# generated using pymatgen
data_PrH3C7NO4
_symmetry_space_group_name_H-M   'P 1'
_cell_length_a   16.70590000
_cell_length_b   17.61433867
_cell_length_c   17.61433867
_cell_angle_alpha   77.00429245
_cell_angle_beta   61.69187312
_cell_angle_gamma   61.69187312
_symmetry_Int_Tables_number   1
_chemical_formula_structural   PrH3C7NO4
_chemical_formula_sum   'Pr8 H24 C56 N8 O32'
_cell_volume   4017.65456437
_cell_formula_units_Z   8
loop_
 _symmetry_equiv_pos_site_id
 _symmetry_equiv_pos_as_xyz
  1  'x, y, z'
loop_
 _atom_site_type_symbol
 _atom_site_label
 _atom_site_symmetry_multiplicity
 _atom_site_fract_x
 _atom_site_fract_y
 _atom_site_fract_z
 _atom_site_occupancy
  C  C0  1  0.84130000  0.54770000  0.37430000  1
  C  C1  1  0.23670000  0.04770000  0.87430000  1
  C  C2  1  0.72570000  0.47820000  0.41220000  1
  C  C3  1  0.38390000  0.97820000  0.91220000  1
  C  C4  1  0.81210000  0.48860000  0.35480000  1
  C  C5  1  0.34450000  0.98860000  0.85480000  1
  C  C6  1  0.70570000  0.42030000  0.38890000  1
  C  C7  1  0.48510000  0.92030000  0.88890000  1
  C  C8  1  0.77140000  0.37640000  0.31220000  1
  C  C9  1  0.54000000  0.87640000  0.81220000  1
  C  C10  1  0.11100000  0.62570000  0.04770000  1
  C  C11  1  0.21560000  0.12570000  0.54770000  1
  C  C12  1  0.22190000  0.82220000  0.84280000  1
  C  C13  1  0.11310000  0.32220000  0.34280000  1
  C  C14  1  0.85620000  0.38940000  0.26160000  1
  C  C15  1  0.49280000  0.88940000  0.76160000  1
  C  C16  1  0.19930000  0.64520000  0.98860000  1
  C  C17  1  0.16690000  0.14520000  0.48860000  1
  C  C18  1  0.25440000  0.73840000  0.88940000  1
  C  C19  1  0.11780000  0.23840000  0.38940000  1
  C  C20  1  0.29610000  0.58780000  0.97820000  1
  C  C21  1  0.13790000  0.08780000  0.47820000  1
  C  C22  1  0.35220000  0.68780000  0.87640000  1
  C  C23  1  0.08360000  0.18780000  0.37640000  1
  C  C24  1  0.37400000  0.61110000  0.92030000  1
  C  C25  1  0.09460000  0.11110000  0.42030000  1
  C  C26  1  0.93530000  0.34280000  0.17780000  1
  C  C27  1  0.54410000  0.84280000  0.67780000  1
  C  C28  1  0.06470000  0.65720000  0.82220000  1
  C  C29  1  0.45590000  0.15720000  0.32220000  1
  C  C30  1  0.62600000  0.38890000  0.07970000  1
  C  C31  1  0.90540000  0.88890000  0.57970000  1
  C  C32  1  0.64780000  0.31220000  0.12360000  1
  C  C33  1  0.91640000  0.81220000  0.62360000  1
  C  C34  1  0.70390000  0.41220000  0.02180000  1
  C  C35  1  0.86210000  0.91220000  0.52180000  1
  C  C36  1  0.74560000  0.26160000  0.11060000  1
  C  C37  1  0.88220000  0.76160000  0.61060000  1
  C  C38  1  0.80070000  0.35480000  0.01140000  1
  C  C39  1  0.83310000  0.85480000  0.51140000  1
  C  C40  1  0.14380000  0.61060000  0.73840000  1
  C  C41  1  0.50720000  0.11060000  0.23840000  1
  C  C42  1  0.77810000  0.17780000  0.15720000  1
  C  C43  1  0.88690000  0.67780000  0.65720000  1
  C  C44  1  0.88900000  0.37430000  0.95230000  1
  C  C45  1  0.78440000  0.87430000  0.45230000  1
  C  C46  1  0.22860000  0.62360000  0.68780000  1
  C  C47  1  0.46000000  0.12360000  0.18780000  1
  C  C48  1  0.29430000  0.57970000  0.61110000  1
  C  C49  1  0.51490000  0.07970000  0.11110000  1
  C  C50  1  0.18790000  0.51140000  0.64520000  1
  C  C51  1  0.65550000  0.01140000  0.14520000  1
  C  C52  1  0.27430000  0.52180000  0.58780000  1
  C  C53  1  0.61610000  0.02180000  0.08780000  1
  C  C54  1  0.15870000  0.45230000  0.62570000  1
  C  C55  1  0.76330000  0.95230000  0.12570000  1
  H  H56  1  0.68290000  0.50830000  0.46390000  1
  H  H57  1  0.34490000  0.00830000  0.96390000  1
  H  H58  1  0.51490000  0.91160000  0.92520000  1
  H  H59  1  0.64830000  0.41160000  0.42520000  1
  H  H60  1  0.75870000  0.33860000  0.29500000  1
  H  H61  1  0.60770000  0.83860000  0.79500000  1
  H  H62  1  0.30880000  0.53610000  0.00830000  1
  H  H63  1  0.14680000  0.03610000  0.50830000  1
  H  H64  1  0.40270000  0.70500000  0.83860000  1
  H  H65  1  0.05370000  0.20500000  0.33860000  1
  H  H66  1  0.55990000  0.42520000  0.08840000  1
  H  H67  1  0.92650000  0.92520000  0.58840000  1
  H  H68  1  0.44010000  0.57480000  0.91160000  1
  H  H69  1  0.07350000  0.07480000  0.41160000  1
  H  H70  1  0.59730000  0.29500000  0.16140000  1
  H  H71  1  0.94630000  0.79500000  0.66140000  1
  H  H72  1  0.69120000  0.46390000  0.99170000  1
  H  H73  1  0.85320000  0.96390000  0.49170000  1
  H  H74  1  0.24130000  0.66140000  0.70500000  1
  H  H75  1  0.39230000  0.16140000  0.20500000  1
  H  H76  1  0.48510000  0.08840000  0.07480000  1
  H  H77  1  0.35170000  0.58840000  0.57480000  1
  H  H78  1  0.31710000  0.49170000  0.53610000  1
  H  H79  1  0.65510000  0.99170000  0.03610000  1
  N  N80  1  0.87550000  0.44590000  0.28170000  1
  N  N81  1  0.39690000  0.94590000  0.78170000  1
  N  N82  1  0.17860000  0.71830000  0.94590000  1
  N  N83  1  0.15720000  0.21830000  0.44590000  1
  N  N84  1  0.82140000  0.28170000  0.05410000  1
  N  N85  1  0.84280000  0.78170000  0.55410000  1
  N  N86  1  0.12450000  0.55410000  0.71830000  1
  N  N87  1  0.60310000  0.05410000  0.21830000  1
  O  O88  1  0.81640000  0.90670000  0.05990000  1
  O  O89  1  0.21700000  0.40670000  0.55990000  1
  O  O90  1  0.92480000  0.54790000  0.32070000  1
  O  O91  1  0.20660000  0.04790000  0.82070000  1
  O  O92  1  0.02730000  0.67930000  0.04790000  1
  O  O93  1  0.24550000  0.17930000  0.54790000  1
  O  O94  1  0.15150000  0.36020000  0.35840000  1
  O  O95  1  0.12990000  0.86020000  0.85840000  1
  O  O96  1  0.12370000  0.55990000  0.09330000  1
  O  O97  1  0.22310000  0.05990000  0.59330000  1
  O  O98  1  0.07490000  0.34740000  0.29080000  1
  O  O99  1  0.28690000  0.84740000  0.79080000  1
  O  O100  1  0.07770000  0.70920000  0.84740000  1
  O  O101  1  0.36570000  0.20920000  0.34740000  1
  O  O102  1  0.98830000  0.64160000  0.86020000  1
  O  O103  1  0.50990000  0.14160000  0.36020000  1
  O  O104  1  0.01170000  0.35840000  0.13980000  1
  O  O105  1  0.49010000  0.85840000  0.63980000  1
  O  O106  1  0.92230000  0.29080000  0.15260000  1
  O  O107  1  0.63430000  0.79080000  0.65260000  1
  O  O108  1  0.92510000  0.65260000  0.70920000  1
  O  O109  1  0.71310000  0.15260000  0.20920000  1
  O  O110  1  0.87630000  0.44010000  0.90670000  1
  O  O111  1  0.77690000  0.94010000  0.40670000  1
  O  O112  1  0.84850000  0.63980000  0.64160000  1
  O  O113  1  0.87010000  0.13980000  0.14160000  1
  O  O114  1  0.97270000  0.32070000  0.95210000  1
  O  O115  1  0.75450000  0.82070000  0.45210000  1
  O  O116  1  0.07520000  0.45210000  0.67930000  1
  O  O117  1  0.79340000  0.95210000  0.17930000  1
  O  O118  1  0.18360000  0.09330000  0.94010000  1
  O  O119  1  0.78300000  0.59330000  0.44010000  1
  Pr  Pr120  1  0.99386000  0.81594000  0.96506000  1
  Pr  Pr121  1  0.22514000  0.31594000  0.46506000  1
  Pr  Pr122  1  0.04108000  0.46506000  0.18406000  1
  Pr  Pr123  1  0.30980000  0.96506000  0.68406000  1
  Pr  Pr124  1  0.95892000  0.53494000  0.81594000  1
  Pr  Pr125  1  0.69020000  0.03494000  0.31594000  1
  Pr  Pr126  1  0.00614000  0.18406000  0.03494000  1
  Pr  Pr127  1  0.77486000  0.68406000  0.53494000  1
