# generated using pymatgen
data_EuCu3H12C18Br3(NO2)3
_symmetry_space_group_name_H-M   'P 1'
_cell_length_a   9.82570000
_cell_length_b   14.79000000
_cell_length_c   20.18200000
_cell_angle_alpha   73.38600000
_cell_angle_beta   82.82500000
_cell_angle_gamma   77.75000000
_symmetry_Int_Tables_number   1
_chemical_formula_structural   EuCu3H12C18Br3(NO2)3
_chemical_formula_sum   'Eu4 Cu12 H48 C72 Br12 N12 O24'
_cell_volume   2739.99079334
_cell_formula_units_Z   4
loop_
 _symmetry_equiv_pos_site_id
 _symmetry_equiv_pos_as_xyz
  1  'x, y, z'
loop_
 _atom_site_type_symbol
 _atom_site_label
 _atom_site_symmetry_multiplicity
 _atom_site_fract_x
 _atom_site_fract_y
 _atom_site_fract_z
 _atom_site_occupancy
  Eu  Eu0  1  0.16424000  0.45324000  0.18914000  1
  Eu  Eu1  1  0.36909000  0.55188000  0.79651000  1
  Eu  Eu2  1  0.63091000  0.44812000  0.20349000  1
  Eu  Eu3  1  0.83576000  0.54676000  0.81086000  1
  Cu  Cu4  1  0.09141000  0.98643000  0.05345000  1
  Cu  Cu5  1  0.17289000  0.99619000  0.88516000  1
  Cu  Cu6  1  0.24132000  0.93985000  0.34139000  1
  Cu  Cu7  1  0.27428000  0.75730000  0.42757000  1
  Cu  Cu8  1  0.40210000  0.89984000  0.44654000  1
  Cu  Cu9  1  0.48543000  0.83311000  0.32588000  1
  Cu  Cu10  1  0.51457000  0.16689000  0.67412000  1
  Cu  Cu11  1  0.59790000  0.10016000  0.55346000  1
  Cu  Cu12  1  0.72572000  0.24270000  0.57243000  1
  Cu  Cu13  1  0.75868000  0.06015000  0.65861000  1
  Cu  Cu14  1  0.82711000  0.00381000  0.11484000  1
  Cu  Cu15  1  0.90859000  0.01357000  0.94655000  1
  H  H16  1  0.00100000  0.70760000  0.49740000  1
  H  H17  1  0.01640000  0.15970000  0.74880000  1
  H  H18  1  0.02260000  0.71140000  0.20420000  1
  H  H19  1  0.05790000  0.05370000  0.62210000  1
  H  H20  1  0.12400000  0.45960000  0.59640000  1
  H  H21  1  0.14080000  0.13320000  0.45880000  1
  H  H22  1  0.14680000  0.14800000  0.27750000  1
  H  H23  1  0.16160000  0.77190000  0.09200000  1
  H  H24  1  0.16840000  0.37110000  0.51720000  1
  H  H25  1  0.18310000  0.25050000  0.35770000  1
  H  H26  1  0.23530000  0.10570000  0.70500000  1
  H  H27  1  0.24550000  0.62220000  0.35330000  1
  H  H28  1  0.26380000  0.95540000  0.65550000  1
  H  H29  1  0.26890000  0.79970000  0.71880000  1
  H  H30  1  0.27150000  0.19870000  0.14610000  1
  H  H31  1  0.31140000  0.06660000  0.53310000  1
  H  H32  1  0.31640000  0.03540000  0.15220000  1
  H  H33  1  0.31700000  0.81320000  0.86520000  1
  H  H34  1  0.38410000  0.29910000  0.75700000  1
  H  H35  1  0.39400000  0.96550000  0.02560000  1
  H  H36  1  0.40650000  0.14870000  0.96160000  1
  H  H37  1  0.42460000  0.31070000  0.91980000  1
  H  H38  1  0.43000000  0.77970000  0.58930000  1
  H  H39  1  0.46240000  0.04130000  0.85650000  1
  H  H40  1  0.53760000  0.95870000  0.14350000  1
  H  H41  1  0.57000000  0.22030000  0.41070000  1
  H  H42  1  0.57540000  0.68930000  0.08020000  1
  H  H43  1  0.59350000  0.85130000  0.03840000  1
  H  H44  1  0.60600000  0.03450000  0.97440000  1
  H  H45  1  0.61590000  0.70090000  0.24300000  1
  H  H46  1  0.68300000  0.18680000  0.13480000  1
  H  H47  1  0.68360000  0.96460000  0.84780000  1
  H  H48  1  0.68860000  0.93340000  0.46690000  1
  H  H49  1  0.72850000  0.80130000  0.85390000  1
  H  H50  1  0.73110000  0.20030000  0.28120000  1
  H  H51  1  0.73620000  0.04460000  0.34450000  1
  H  H52  1  0.75450000  0.37780000  0.64670000  1
  H  H53  1  0.76470000  0.89430000  0.29500000  1
  H  H54  1  0.81690000  0.74950000  0.64230000  1
  H  H55  1  0.83160000  0.62890000  0.48280000  1
  H  H56  1  0.83840000  0.22810000  0.90800000  1
  H  H57  1  0.85320000  0.85200000  0.72250000  1
  H  H58  1  0.85920000  0.86680000  0.54120000  1
  H  H59  1  0.87600000  0.54040000  0.40360000  1
  H  H60  1  0.94210000  0.94630000  0.37790000  1
  H  H61  1  0.97740000  0.28860000  0.79580000  1
  H  H62  1  0.98360000  0.84030000  0.25120000  1
  H  H63  1  0.99900000  0.29240000  0.50260000  1
  C  C64  1  0.01770000  0.67390000  0.46380000  1
  C  C65  1  0.05190000  0.70990000  0.77110000  1
  C  C66  1  0.05650000  0.99220000  0.65070000  1
  C  C67  1  0.05830000  0.80940000  0.72780000  1
  C  C68  1  0.05850000  0.42540000  0.59130000  1
  C  C69  1  0.06250000  0.12660000  0.29100000  1
  C  C70  1  0.06380000  0.57320000  0.36830000  1
  C  C71  1  0.06660000  0.26570000  0.77880000  1
  C  C72  1  0.08430000  0.37420000  0.54410000  1
  C  C73  1  0.08980000  0.18960000  0.75040000  1
  C  C74  1  0.09840000  0.52270000  0.31250000  1
  C  C75  1  0.16060000  0.62390000  0.37960000  1
  C  C76  1  0.16280000  0.39020000  0.81190000  1
  C  C77  1  0.17830000  0.30850000  0.78190000  1
  C  C78  1  0.18090000  0.93240000  0.66920000  1
  C  C79  1  0.18450000  0.84070000  0.70700000  1
  C  C80  1  0.22130000  0.15720000  0.72440000  1
  C  C81  1  0.22710000  0.15210000  0.44870000  1
  C  C82  1  0.24960000  0.78810000  0.08110000  1
  C  C83  1  0.25270000  0.22110000  0.38840000  1
  C  C84  1  0.30850000  0.27160000  0.75500000  1
  C  C85  1  0.32960000  0.11280000  0.49250000  1
  C  C86  1  0.34550000  0.61300000  0.11590000  1
  C  C87  1  0.36270000  0.16500000  0.14480000  1
  C  C88  1  0.36360000  0.71550000  0.08970000  1
  C  C89  1  0.38360000  0.24580000  0.37430000  1
  C  C90  1  0.38560000  0.90130000  0.04250000  1
  C  C91  1  0.38950000  0.06830000  0.14740000  1
  C  C92  1  0.39230000  0.84320000  0.86260000  1
  C  C93  1  0.41660000  0.31830000  0.30860000  1
  C  C94  1  0.45450000  0.31470000  0.13880000  1
  C  C95  1  0.47300000  0.21000000  0.14010000  1
  C  C96  1  0.47830000  0.97690000  0.85690000  1
  C  C97  1  0.48240000  0.20320000  0.42070000  1
  C  C98  1  0.49330000  0.16680000  0.95030000  1
  C  C99  1  0.49620000  0.73740000  0.07420000  1
  C  C100  1  0.50380000  0.26260000  0.92580000  1
  C  C101  1  0.50670000  0.83320000  0.04970000  1
  C  C102  1  0.51760000  0.79680000  0.57930000  1
  C  C103  1  0.52170000  0.02310000  0.14310000  1
  C  C104  1  0.52700000  0.79000000  0.85990000  1
  C  C105  1  0.54550000  0.68530000  0.86120000  1
  C  C106  1  0.58340000  0.68170000  0.69140000  1
  C  C107  1  0.60770000  0.15680000  0.13740000  1
  C  C108  1  0.61050000  0.93170000  0.85260000  1
  C  C109  1  0.61440000  0.09870000  0.95750000  1
  C  C110  1  0.61640000  0.75420000  0.62570000  1
  C  C111  1  0.63640000  0.28450000  0.91030000  1
  C  C112  1  0.63730000  0.83500000  0.85520000  1
  C  C113  1  0.65450000  0.38700000  0.88410000  1
  C  C114  1  0.67040000  0.88720000  0.50750000  1
  C  C115  1  0.69150000  0.72840000  0.24500000  1
  C  C116  1  0.74730000  0.77890000  0.61160000  1
  C  C117  1  0.75040000  0.21190000  0.91890000  1
  C  C118  1  0.77290000  0.84790000  0.55130000  1
  C  C119  1  0.77870000  0.84280000  0.27560000  1
  C  C120  1  0.81550000  0.15930000  0.29300000  1
  C  C121  1  0.81910000  0.06760000  0.33080000  1
  C  C122  1  0.82170000  0.69150000  0.21810000  1
  C  C123  1  0.83720000  0.60980000  0.18810000  1
  C  C124  1  0.83940000  0.37610000  0.62040000  1
  C  C125  1  0.90160000  0.47730000  0.68750000  1
  C  C126  1  0.91020000  0.81040000  0.24960000  1
  C  C127  1  0.91570000  0.62580000  0.45590000  1
  C  C128  1  0.93340000  0.73430000  0.22120000  1
  C  C129  1  0.93620000  0.42680000  0.63170000  1
  C  C130  1  0.93750000  0.87340000  0.70900000  1
  C  C131  1  0.94150000  0.57460000  0.40870000  1
  C  C132  1  0.94170000  0.19060000  0.27220000  1
  C  C133  1  0.94350000  0.00780000  0.34930000  1
  C  C134  1  0.94810000  0.29010000  0.22890000  1
  C  C135  1  0.98230000  0.32610000  0.53620000  1
  Br  Br136  1  0.00188000  0.07818000  0.13589000  1
  Br  Br137  1  0.12418000  0.11661000  0.94468000  1
  Br  Br138  1  0.17226000  0.87338000  0.49172000  1
  Br  Br139  1  0.28284000  0.82552000  0.27198000  1
  Br  Br140  1  0.46308000  0.00365000  0.33769000  1
  Br  Br141  1  0.48142000  0.31471000  0.56407000  1
  Br  Br142  1  0.51858000  0.68529000  0.43593000  1
  Br  Br143  1  0.53692000  0.99635000  0.66231000  1
  Br  Br144  1  0.71716000  0.17448000  0.72802000  1
  Br  Br145  1  0.82774000  0.12662000  0.50828000  1
  Br  Br146  1  0.87582000  0.88339000  0.05532000  1
  Br  Br147  1  0.99812000  0.92182000  0.86411000  1
  N  N148  1  0.06620000  0.03480000  0.32780000  1
  N  N149  1  0.13580000  0.67380000  0.42580000  1
  N  N150  1  0.25760000  0.88150000  0.05800000  1
  N  N151  1  0.33010000  0.19800000  0.72620000  1
  N  N152  1  0.36740000  0.93620000  0.86170000  1
  N  N153  1  0.45890000  0.13720000  0.48070000  1
  N  N154  1  0.54110000  0.86280000  0.51930000  1
  N  N155  1  0.63260000  0.06380000  0.13830000  1
  N  N156  1  0.66990000  0.80200000  0.27380000  1
  N  N157  1  0.74240000  0.11850000  0.94200000  1
  N  N158  1  0.86420000  0.32620000  0.57420000  1
  N  N159  1  0.93380000  0.96520000  0.67220000  1
  O  O160  1  0.03140000  0.46180000  0.30900000  1
  O  O161  1  0.04220000  0.43160000  0.82670000  1
  O  O162  1  0.06130000  0.31780000  0.22240000  1
  O  O163  1  0.16040000  0.66000000  0.79830000  1
  O  O164  1  0.19730000  0.54770000  0.26640000  1
  O  O165  1  0.22870000  0.59450000  0.10980000  1
  O  O166  1  0.26910000  0.41510000  0.82120000  1
  O  O167  1  0.32520000  0.35770000  0.26750000  1
  O  O168  1  0.33590000  0.36500000  0.12600000  1
  O  O169  1  0.44130000  0.54920000  0.14590000  1
  O  O170  1  0.44320000  0.65880000  0.84700000  1
  O  O171  1  0.45980000  0.66640000  0.70130000  1
  O  O172  1  0.54020000  0.33360000  0.29870000  1
  O  O173  1  0.55680000  0.34120000  0.15300000  1
  O  O174  1  0.55870000  0.45080000  0.85410000  1
  O  O175  1  0.66410000  0.63500000  0.87400000  1
  O  O176  1  0.67480000  0.64230000  0.73250000  1
  O  O177  1  0.73090000  0.58490000  0.17880000  1
  O  O178  1  0.77130000  0.40550000  0.89020000  1
  O  O179  1  0.80270000  0.45230000  0.73360000  1
  O  O180  1  0.83960000  0.34000000  0.20170000  1
  O  O181  1  0.93870000  0.68220000  0.77760000  1
  O  O182  1  0.95780000  0.56840000  0.17330000  1
  O  O183  1  0.96860000  0.53820000  0.69100000  1
