# generated using pymatgen
data_SmH2(CO)7
_symmetry_space_group_name_H-M   'P 1'
_cell_length_a   9.95130000
_cell_length_b   9.95130000
_cell_length_c   13.48490000
_cell_angle_alpha   94.21060000
_cell_angle_beta   110.23440000
_cell_angle_gamma   115.58400000
_symmetry_Int_Tables_number   1
_chemical_formula_structural   SmH2(CO)7
_chemical_formula_sum   'Sm4 H8 C28 O28'
_cell_volume   1090.26557186
_cell_formula_units_Z   4
loop_
 _symmetry_equiv_pos_site_id
 _symmetry_equiv_pos_as_xyz
  1  'x, y, z'
loop_
 _atom_site_type_symbol
 _atom_site_label
 _atom_site_symmetry_multiplicity
 _atom_site_fract_x
 _atom_site_fract_y
 _atom_site_fract_z
 _atom_site_occupancy
  Sm  Sm0  1  0.95943000  0.73253000  0.49804000  1
  Sm  Sm1  1  0.73449000  0.46139000  0.00196000  1
  Sm  Sm2  1  0.26551000  0.53861000  0.99804000  1
  Sm  Sm3  1  0.04057000  0.26747000  0.50196000  1
  H  H4  1  0.98620000  0.05320000  0.85400000  1
  H  H5  1  0.81870000  0.76560000  0.82090000  1
  H  H6  1  0.69920000  0.13220000  0.64600000  1
  H  H7  1  0.55530000  0.00220000  0.32090000  1
  H  H8  1  0.44470000  0.99780000  0.67910000  1
  H  H9  1  0.30080000  0.86780000  0.35400000  1
  H  H10  1  0.18130000  0.23440000  0.17910000  1
  H  H11  1  0.01380000  0.94680000  0.14600000  1
  C  C12  1  0.93780000  0.59420000  0.26560000  1
  C  C13  1  0.89710000  0.00200000  0.87090000  1
  C  C14  1  0.87970000  0.22820000  0.96190000  1
  C  C15  1  0.83270000  0.06710000  0.91820000  1
  C  C16  1  0.82860000  0.67220000  0.23440000  1
  C  C17  1  0.80320000  0.84110000  0.85230000  1
  C  C18  1  0.76630000  0.91780000  0.53810000  1
  C  C19  1  0.72120000  0.34220000  0.39960000  1
  C  C20  1  0.68590000  0.81730000  0.88880000  1
  C  C21  1  0.64890000  0.91450000  0.58180000  1
  C  C22  1  0.63110000  0.02620000  0.62910000  1
  C  C23  1  0.57150000  0.20290000  0.38880000  1
  C  C24  1  0.55740000  0.67840000  0.89960000  1
  C  C25  1  0.51120000  0.04910000  0.35230000  1
  C  C26  1  0.48880000  0.95090000  0.64770000  1
  C  C27  1  0.44260000  0.32160000  0.10040000  1
  C  C28  1  0.42850000  0.79710000  0.61120000  1
  C  C29  1  0.36890000  0.97380000  0.37090000  1
  C  C30  1  0.35110000  0.08550000  0.41820000  1
  C  C31  1  0.31410000  0.18270000  0.11120000  1
  C  C32  1  0.27880000  0.65780000  0.60040000  1
  C  C33  1  0.23370000  0.08220000  0.46190000  1
  C  C34  1  0.19680000  0.15890000  0.14770000  1
  C  C35  1  0.17140000  0.32780000  0.76560000  1
  C  C36  1  0.16730000  0.93290000  0.08180000  1
  C  C37  1  0.12030000  0.77180000  0.03810000  1
  C  C38  1  0.10290000  0.99800000  0.12910000  1
  C  C39  1  0.06220000  0.40580000  0.73440000  1
  O  O40  1  0.99260000  0.66860000  0.03700000  1
  O  O41  1  0.97030000  0.37230000  0.63540000  1
  O  O42  1  0.92790000  0.50650000  0.18960000  1
  O  O43  1  0.86840000  0.04440000  0.53700000  1
  O  O44  1  0.83530000  0.31990000  0.39760000  1
  O  O45  1  0.81690000  0.73830000  0.31040000  1
  O  O46  1  0.78660000  0.24990000  0.99730000  1
  O  O47  1  0.76310000  0.66510000  0.13540000  1
  O  O48  1  0.75260000  0.78930000  0.50270000  1
  O  O49  1  0.72530000  0.46950000  0.41000000  1
  O  O50  1  0.70040000  0.95590000  0.92810000  1
  O  O51  1  0.57770000  0.56230000  0.89760000  1
  O  O52  1  0.55950000  0.31530000  0.09000000  1
  O  O53  1  0.52780000  0.77230000  0.57190000  1
  O  O54  1  0.47220000  0.22770000  0.42810000  1
  O  O55  1  0.44050000  0.68470000  0.91000000  1
  O  O56  1  0.42230000  0.43770000  0.10240000  1
  O  O57  1  0.29960000  0.04410000  0.07190000  1
  O  O58  1  0.27470000  0.53050000  0.59000000  1
  O  O59  1  0.24740000  0.21070000  0.49730000  1
  O  O60  1  0.23690000  0.33490000  0.86460000  1
  O  O61  1  0.21340000  0.75010000  0.00270000  1
  O  O62  1  0.18310000  0.26170000  0.68960000  1
  O  O63  1  0.16470000  0.68010000  0.60240000  1
  O  O64  1  0.13160000  0.95560000  0.46300000  1
  O  O65  1  0.07210000  0.49350000  0.81040000  1
  O  O66  1  0.02970000  0.62770000  0.36460000  1
  O  O67  1  0.00740000  0.33140000  0.96300000  1
