# generated using pymatgen
data_MgH8C13NO5
_symmetry_space_group_name_H-M   'P 1'
_cell_length_a   11.93490000
_cell_length_b   12.34328735
_cell_length_c   12.34328735
_cell_angle_alpha   95.75955931
_cell_angle_beta   111.48299328
_cell_angle_gamma   111.48299328
_symmetry_Int_Tables_number   1
_chemical_formula_structural   MgH8C13NO5
_chemical_formula_sum   'Mg4 H32 C52 N4 O20'
_cell_volume   1515.65543950
_cell_formula_units_Z   4
loop_
 _symmetry_equiv_pos_site_id
 _symmetry_equiv_pos_as_xyz
  1  'x, y, z'
loop_
 _atom_site_type_symbol
 _atom_site_label
 _atom_site_symmetry_multiplicity
 _atom_site_fract_x
 _atom_site_fract_y
 _atom_site_fract_z
 _atom_site_occupancy
  C  C0  1  0.00260000  0.88650000  0.09090000  1
  C  C1  1  0.50260000  0.09090000  0.88650000  1
  C  C2  1  0.51870000  0.95160000  0.02060000  1
  C  C3  1  0.01870000  0.02060000  0.95160000  1
  C  C4  1  0.52850000  0.81900000  0.14900000  1
  C  C5  1  0.02850000  0.14900000  0.81900000  1
  C  C6  1  0.57560000  0.89910000  0.96530000  1
  C  C7  1  0.07560000  0.96530000  0.89910000  1
  C  C8  1  0.60480000  0.80720000  0.00080000  1
  C  C9  1  0.10480000  0.00080000  0.80720000  1
  C  C10  1  0.01600000  0.41950000  0.38430000  1
  C  C11  1  0.51600000  0.38430000  0.41950000  1
  C  C12  1  0.96170000  0.48410000  0.31570000  1
  C  C13  1  0.46170000  0.31570000  0.48410000  1
  C  C14  1  0.50180000  0.45530000  0.23530000  1
  C  C15  1  0.00180000  0.23530000  0.45530000  1
  C  C16  1  0.44190000  0.37330000  0.30130000  1
  C  C17  1  0.94190000  0.30130000  0.37330000  1
  C  C18  1  0.76400000  0.50370000  0.16790000  1
  C  C19  1  0.26400000  0.16790000  0.50370000  1
  C  C20  1  0.82910000  0.43060000  0.23240000  1
  C  C21  1  0.32910000  0.23240000  0.43060000  1
  C  C22  1  0.30940000  0.28960000  0.24660000  1
  C  C23  1  0.80940000  0.24660000  0.28960000  1
  C  C24  1  0.75500000  0.31050000  0.21950000  1
  C  C25  1  0.25500000  0.21950000  0.31050000  1
  C  C26  1  0.24500000  0.68950000  0.78050000  1
  C  C27  1  0.74500000  0.78050000  0.68950000  1
  C  C28  1  0.69060000  0.71040000  0.75340000  1
  C  C29  1  0.19060000  0.75340000  0.71040000  1
  C  C30  1  0.17090000  0.56940000  0.76760000  1
  C  C31  1  0.67090000  0.76760000  0.56940000  1
  C  C32  1  0.23600000  0.49630000  0.83210000  1
  C  C33  1  0.73600000  0.83210000  0.49630000  1
  C  C34  1  0.55810000  0.62670000  0.69870000  1
  C  C35  1  0.05810000  0.69870000  0.62670000  1
  C  C36  1  0.49820000  0.54470000  0.76470000  1
  C  C37  1  0.99820000  0.76470000  0.54470000  1
  C  C38  1  0.03830000  0.51590000  0.68430000  1
  C  C39  1  0.53830000  0.68430000  0.51590000  1
  C  C40  1  0.98400000  0.58050000  0.61570000  1
  C  C41  1  0.48400000  0.61570000  0.58050000  1
  C  C42  1  0.39520000  0.19280000  0.99920000  1
  C  C43  1  0.89520000  0.99920000  0.19280000  1
  C  C44  1  0.42440000  0.10090000  0.03470000  1
  C  C45  1  0.92440000  0.03470000  0.10090000  1
  C  C46  1  0.47150000  0.18100000  0.85100000  1
  C  C47  1  0.97150000  0.85100000  0.18100000  1
  C  C48  1  0.48130000  0.04840000  0.97940000  1
  C  C49  1  0.98130000  0.97940000  0.04840000  1
  C  C50  1  0.99740000  0.11350000  0.90910000  1
  C  C51  1  0.49740000  0.90910000  0.11350000  1
  H  H52  1  0.97700000  0.77600000  0.21400000  1
  H  H53  1  0.47700000  0.21400000  0.77600000  1
  H  H54  1  0.03900000  0.84000000  0.06200000  1
  H  H55  1  0.53900000  0.06200000  0.84000000  1
  H  H56  1  0.09600000  0.43900000  0.42500000  1
  H  H57  1  0.59600000  0.42500000  0.43900000  1
  H  H58  1  0.00100000  0.54600000  0.30800000  1
  H  H59  1  0.50100000  0.30800000  0.54600000  1
  H  H60  1  0.08800000  0.90100000  0.91900000  1
  H  H61  1  0.58800000  0.91900000  0.90100000  1
  H  H62  1  0.63000000  0.75600000  0.95600000  1
  H  H63  1  0.13000000  0.95600000  0.75600000  1
  H  H64  1  0.34200000  0.72700000  0.83500000  1
  H  H65  1  0.84200000  0.83500000  0.72700000  1
  H  H66  1  0.74500000  0.71400000  0.82800000  1
  H  H67  1  0.24500000  0.82800000  0.71400000  1
  H  H68  1  0.25500000  0.28600000  0.17200000  1
  H  H69  1  0.75500000  0.17200000  0.28600000  1
  H  H70  1  0.65800000  0.27300000  0.16500000  1
  H  H71  1  0.15800000  0.16500000  0.27300000  1
  H  H72  1  0.37000000  0.24400000  0.04400000  1
  H  H73  1  0.87000000  0.04400000  0.24400000  1
  H  H74  1  0.91200000  0.09900000  0.08100000  1
  H  H75  1  0.41200000  0.08100000  0.09900000  1
  H  H76  1  0.99900000  0.45400000  0.69200000  1
  H  H77  1  0.49900000  0.69200000  0.45400000  1
  H  H78  1  0.90400000  0.56100000  0.57500000  1
  H  H79  1  0.40400000  0.57500000  0.56100000  1
  H  H80  1  0.96100000  0.16000000  0.93800000  1
  H  H81  1  0.46100000  0.93800000  0.16000000  1
  H  H82  1  0.02300000  0.22400000  0.78600000  1
  H  H83  1  0.52300000  0.78600000  0.22400000  1
  Mg  Mg84  1  0.75000000  0.69776000  0.30224000  1
  Mg  Mg85  1  0.25000000  0.30224000  0.69776000  1
  Mg  Mg86  1  0.50000000  0.50000000  0.00000000  1
  Mg  Mg87  1  1.00000000  1.00000000  0.50000000  1
  N  N88  1  0.58130000  0.76930000  0.09110000  1
  N  N89  1  0.08130000  0.09110000  0.76930000  1
  N  N90  1  0.41870000  0.23070000  0.90890000  1
  N  N91  1  0.91870000  0.90890000  0.23070000  1
  O  O92  1  0.61800000  0.53571000  0.29551000  1
  O  O93  1  0.11800000  0.29551000  0.53571000  1
  O  O94  1  0.82390000  0.61633000  0.21177000  1
  O  O95  1  0.32390000  0.21177000  0.61633000  1
  O  O96  1  0.61170000  0.67989000  0.12495000  1
  O  O97  1  0.11170000  0.12495000  0.67989000  1
  O  O98  1  0.43140000  0.43642000  0.12278000  1
  O  O99  1  0.93140000  0.12278000  0.43642000  1
  O  O100  1  0.65280000  0.44884000  0.07592000  1
  O  O101  1  0.15280000  0.07592000  0.44884000  1
  O  O102  1  0.34720000  0.55116000  0.92408000  1
  O  O103  1  0.84720000  0.92408000  0.55116000  1
  O  O104  1  0.56860000  0.56358000  0.87722000  1
  O  O105  1  0.06860000  0.87722000  0.56358000  1
  O  O106  1  0.38830000  0.32011000  0.87505000  1
  O  O107  1  0.88830000  0.87505000  0.32011000  1
  O  O108  1  0.17610000  0.38367000  0.78823000  1
  O  O109  1  0.67610000  0.78823000  0.38367000  1
  O  O110  1  0.38200000  0.46429000  0.70449000  1
  O  O111  1  0.88200000  0.70449000  0.46429000  1
