# generated using pymatgen
data_EuC17(NO2)3
_symmetry_space_group_name_H-M   'P 1'
_cell_length_a   13.22000000
_cell_length_b   14.99300000
_cell_length_c   17.58313218
_cell_angle_alpha   115.23589755
_cell_angle_beta   95.43458778
_cell_angle_gamma   90.00000000
_symmetry_Int_Tables_number   1
_chemical_formula_structural   EuC17(NO2)3
_chemical_formula_sum   'Eu4 C68 N12 O24'
_cell_volume   3135.16242244
_cell_formula_units_Z   4
loop_
 _symmetry_equiv_pos_site_id
 _symmetry_equiv_pos_as_xyz
  1  'x, y, z'
loop_
 _atom_site_type_symbol
 _atom_site_label
 _atom_site_symmetry_multiplicity
 _atom_site_fract_x
 _atom_site_fract_y
 _atom_site_fract_z
 _atom_site_occupancy
  C  C0  1  0.37921000  0.70714000  0.99506000  1
  C  C1  1  0.87921000  0.28792000  0.99506000  1
  C  C2  1  0.12043000  0.61332000  0.99474000  1
  C  C3  1  0.62043000  0.38142000  0.99474000  1
  C  C4  1  0.40570000  0.53139000  0.93990000  1
  C  C5  1  0.90570000  0.40851000  0.93990000  1
  C  C6  1  0.40583000  0.70543000  0.91988000  1
  C  C7  1  0.90583000  0.21445000  0.91988000  1
  C  C8  1  0.14458000  0.53667000  0.91854000  1
  C  C9  1  0.64458000  0.38187000  0.91854000  1
  C  C10  1  0.43229000  0.53305000  0.86550000  1
  C  C11  1  0.93229000  0.33245000  0.86550000  1
  C  C12  1  0.43240000  0.61950000  0.85620000  1
  C  C13  1  0.93240000  0.23670000  0.85620000  1
  C  C14  1  0.15498000  0.53275000  0.83754000  1
  C  C15  1  0.65498000  0.30479000  0.83754000  1
  C  C16  1  0.46660000  0.61881000  0.77682000  1
  C  C17  1  0.96660000  0.15801000  0.77682000  1
  C  C18  1  0.18618000  0.39156000  0.70018000  1
  C  C19  1  0.68618000  0.30862000  0.70018000  1
  C  C20  1  0.24712000  0.43618000  0.66484000  1
  C  C21  1  0.74712000  0.22866000  0.66484000  1
  C  C22  1  0.63599000  0.34849000  0.64954000  1
  C  C23  1  0.13599000  0.30105000  0.64954000  1
  C  C24  1  0.25789000  0.39030000  0.57888000  1
  C  C25  1  0.75789000  0.18858000  0.57888000  1
  C  C26  1  0.64675000  0.30843000  0.56360000  1
  C  C27  1  0.14675000  0.25517000  0.56360000  1
  C  C28  1  0.33020000  0.43595000  0.54190000  1
  C  C29  1  0.83020000  0.10595000  0.54190000  1
  C  C30  1  0.20770000  0.29979000  0.52826000  1
  C  C31  1  0.70770000  0.22847000  0.52826000  1
  C  C32  1  0.58980000  0.35007000  0.50754000  1
  C  C33  1  0.08980000  0.15747000  0.50754000  1
  C  C34  1  0.41020000  0.64993000  0.49246000  1
  C  C35  1  0.91020000  0.84253000  0.49246000  1
  C  C36  1  0.79230000  0.70021000  0.47174000  1
  C  C37  1  0.29230000  0.77153000  0.47174000  1
  C  C38  1  0.66980000  0.56405000  0.45810000  1
  C  C39  1  0.16980000  0.89405000  0.45810000  1
  C  C40  1  0.35325000  0.69157000  0.43640000  1
  C  C41  1  0.85325000  0.74483000  0.43640000  1
  C  C42  1  0.74211000  0.60970000  0.42112000  1
  C  C43  1  0.24211000  0.81142000  0.42112000  1
  C  C44  1  0.36401000  0.65151000  0.35046000  1
  C  C45  1  0.86401000  0.69895000  0.35046000  1
  C  C46  1  0.75288000  0.56382000  0.33516000  1
  C  C47  1  0.25288000  0.77134000  0.33516000  1
  C  C48  1  0.81382000  0.60844000  0.29982000  1
  C  C49  1  0.31382000  0.69138000  0.29982000  1
  C  C50  1  0.53340000  0.38119000  0.22318000  1
  C  C51  1  0.03340000  0.84199000  0.22318000  1
  C  C52  1  0.84502000  0.46725000  0.16246000  1
  C  C53  1  0.34502000  0.69521000  0.16246000  1
  C  C54  1  0.56760000  0.38050000  0.14380000  1
  C  C55  1  0.06760000  0.76330000  0.14380000  1
  C  C56  1  0.56771000  0.46695000  0.13450000  1
  C  C57  1  0.06771000  0.66755000  0.13450000  1
  C  C58  1  0.85542000  0.46333000  0.08146000  1
  C  C59  1  0.35542000  0.61813000  0.08146000  1
  C  C60  1  0.59417000  0.29457000  0.08012000  1
  C  C61  1  0.09417000  0.78555000  0.08012000  1
  C  C62  1  0.59430000  0.46861000  0.06010000  1
  C  C63  1  0.09430000  0.59149000  0.06010000  1
  C  C64  1  0.87957000  0.38668000  0.00526000  1
  C  C65  1  0.37957000  0.61858000  0.00526000  1
  C  C66  1  0.62079000  0.29286000  0.00494000  1
  C  C67  1  0.12079000  0.71208000  0.00494000  1
  Eu  Eu68  1  0.52955000  0.60390000  0.62128000  1
  Eu  Eu69  1  0.02955000  0.01738000  0.62128000  1
  Eu  Eu70  1  0.47045000  0.39610000  0.37872000  1
  Eu  Eu71  1  0.97045000  0.98262000  0.37872000  1
  N  N72  1  0.66095000  0.47321000  0.91436000  1
  N  N73  1  0.16095000  0.44115000  0.91436000  1
  N  N74  1  0.68146000  0.45259000  0.83080000  1
  N  N75  1  0.18146000  0.37821000  0.83080000  1
  N  N76  1  0.17777000  0.43483000  0.78332000  1
  N  N77  1  0.67777000  0.34849000  0.78332000  1
  N  N78  1  0.82223000  0.56517000  0.21668000  1
  N  N79  1  0.32223000  0.65151000  0.21668000  1
  N  N80  1  0.31854000  0.54741000  0.16920000  1
  N  N81  1  0.81854000  0.62179000  0.16920000  1
  N  N82  1  0.33905000  0.52679000  0.08564000  1
  N  N83  1  0.83905000  0.55885000  0.08564000  1
  O  O84  1  0.45340000  0.69071000  0.75862000  1
  O  O85  1  0.95340000  0.06791000  0.75862000  1
  O  O86  1  0.50690000  0.54247000  0.72714000  1
  O  O87  1  0.00690000  0.18467000  0.72714000  1
  O  O88  1  0.36360000  0.52285000  0.58940000  1
  O  O89  1  0.86360000  0.06655000  0.58940000  1
  O  O90  1  0.42110000  0.70307000  0.57078000  1
  O  O91  1  0.92110000  0.86771000  0.57078000  1
  O  O92  1  0.55590000  0.43364000  0.54028000  1
  O  O93  1  0.05590000  0.10664000  0.54028000  1
  O  O94  1  0.64930000  0.61561000  0.53138000  1
  O  O95  1  0.14930000  0.91577000  0.53138000  1
  O  O96  1  0.35070000  0.38439000  0.46862000  1
  O  O97  1  0.85070000  0.08423000  0.46862000  1
  O  O98  1  0.44410000  0.56636000  0.45972000  1
  O  O99  1  0.94410000  0.89336000  0.45972000  1
  O  O100  1  0.57890000  0.29693000  0.42922000  1
  O  O101  1  0.07890000  0.13229000  0.42922000  1
  O  O102  1  0.63640000  0.47715000  0.41060000  1
  O  O103  1  0.13640000  0.93345000  0.41060000  1
  O  O104  1  0.49310000  0.45753000  0.27286000  1
  O  O105  1  0.99310000  0.81533000  0.27286000  1
  O  O106  1  0.54660000  0.30929000  0.24138000  1
  O  O107  1  0.04660000  0.93209000  0.24138000  1
