# generated using pymatgen
data_LaH12C12(NO3)3
_symmetry_space_group_name_H-M   'P 1'
_cell_length_a   4.55880000
_cell_length_b   11.90180000
_cell_length_c   15.80050000
_cell_angle_alpha   85.91200000
_cell_angle_beta   84.81100000
_cell_angle_gamma   83.24900000
_symmetry_Int_Tables_number   1
_chemical_formula_structural   LaH12C12(NO3)3
_chemical_formula_sum   'La2 H24 C24 N6 O18'
_cell_volume   846.27295855
_cell_formula_units_Z   2
loop_
 _symmetry_equiv_pos_site_id
 _symmetry_equiv_pos_as_xyz
  1  'x, y, z'
loop_
 _atom_site_type_symbol
 _atom_site_label
 _atom_site_symmetry_multiplicity
 _atom_site_fract_x
 _atom_site_fract_y
 _atom_site_fract_z
 _atom_site_occupancy
  La  La0  1  0.19167000  0.22426000  0.32633000  1
  La  La1  1  0.80833000  0.77574000  0.67367000  1
  H  H2  1  0.03040000  0.02770000  0.12760000  1
  H  H3  1  0.03060000  0.85160000  0.92280000  1
  H  H4  1  0.10780000  0.85070000  0.26090000  1
  H  H5  1  0.13330000  0.23540000  0.74250000  1
  H  H6  1  0.20870000  0.60060000  0.47080000  1
  H  H7  1  0.23600000  0.45020000  0.60790000  1
  H  H8  1  0.26750000  0.45170000  0.70780000  1
  H  H9  1  0.30680000  0.84550000  0.04420000  1
  H  H10  1  0.42720000  0.17820000  0.02730000  1
  H  H11  1  0.43970000  0.69160000  0.46980000  1
  H  H12  1  0.44270000  0.10710000  0.56130000  1
  H  H13  1  0.46320000  0.10100000  0.66200000  1
  H  H14  1  0.53680000  0.89900000  0.33800000  1
  H  H15  1  0.55730000  0.89290000  0.43870000  1
  H  H16  1  0.56030000  0.30840000  0.53020000  1
  H  H17  1  0.57280000  0.82180000  0.97270000  1
  H  H18  1  0.69320000  0.15450000  0.95580000  1
  H  H19  1  0.73250000  0.54830000  0.29220000  1
  H  H20  1  0.76400000  0.54980000  0.39210000  1
  H  H21  1  0.79130000  0.39940000  0.52920000  1
  H  H22  1  0.86670000  0.76460000  0.25750000  1
  H  H23  1  0.89220000  0.14930000  0.73910000  1
  H  H24  1  0.96940000  0.14840000  0.07720000  1
  H  H25  1  0.96960000  0.97230000  0.87240000  1
  C  C26  1  0.02460000  0.76250000  0.44563000  1
  C  C27  1  0.03090000  0.78210000  0.28950000  1
  C  C28  1  0.12750000  0.91380000  0.89100000  1
  C  C29  1  0.21430000  0.98160000  0.62450000  1
  C  C30  1  0.27440000  0.68520000  0.28310000  1
  C  C31  1  0.27570000  0.66950000  0.43980000  1
  C  C32  1  0.30960000  0.86770000  0.81280000  1
  C  C33  1  0.32750000  0.09760000  0.61700000  1
  C  C34  1  0.33600000  0.07250000  0.93950000  1
  C  C35  1  0.37780000  0.45580000  0.65090000  1
  C  C36  1  0.45770000  0.88180000  0.00620000  1
  C  C37  1  0.49940000  0.56950000  0.63659000  1
  C  C38  1  0.50060000  0.43050000  0.36341000  1
  C  C39  1  0.54230000  0.11820000  0.99380000  1
  C  C40  1  0.62220000  0.54420000  0.34910000  1
  C  C41  1  0.66400000  0.92750000  0.06050000  1
  C  C42  1  0.67250000  0.90240000  0.38300000  1
  C  C43  1  0.69040000  0.13230000  0.18720000  1
  C  C44  1  0.72430000  0.33050000  0.56020000  1
  C  C45  1  0.72560000  0.31480000  0.71690000  1
  C  C46  1  0.78570000  0.01840000  0.37550000  1
  C  C47  1  0.87250000  0.08620000  0.10900000  1
  C  C48  1  0.96910000  0.21790000  0.71050000  1
  C  C49  1  0.97540000  0.23750000  0.55437000  1
  N  N50  1  0.09070000  0.19090000  0.62454000  1
  N  N51  1  0.30460000  0.96300000  0.94744000  1
  N  N52  1  0.39250000  0.64040000  0.35440000  1
  N  N53  1  0.60750000  0.35960000  0.64560000  1
  N  N54  1  0.69540000  0.03700000  0.05256000  1
  N  N55  1  0.90930000  0.80910000  0.37546000  1
  O  O56  1  0.05160000  0.02403000  0.35126000  1
  O  O57  1  0.07480000  0.20812000  0.48274000  1
  O  O58  1  0.19610000  0.79867000  0.77374000  1
  O  O59  1  0.20020000  0.13960000  0.88961000  1
  O  O60  1  0.23460000  0.42553000  0.38787000  1
  O  O61  1  0.32220000  0.65697000  0.65137000  1
  O  O62  1  0.36340000  0.65260000  0.21226000  1
  O  O63  1  0.39870000  0.89788000  0.60700000  1
  O  O64  1  0.44090000  0.09980000  0.20653000  1
  O  O65  1  0.55910000  0.90020000  0.79347000  1
  O  O66  1  0.60130000  0.10212000  0.39300000  1
  O  O67  1  0.63660000  0.34740000  0.78774000  1
  O  O68  1  0.67780000  0.34303000  0.34863000  1
  O  O69  1  0.76540000  0.57447000  0.61213000  1
  O  O70  1  0.79980000  0.86040000  0.11039000  1
  O  O71  1  0.80390000  0.20133000  0.22626000  1
  O  O72  1  0.92520000  0.79188000  0.51726000  1
  O  O73  1  0.94840000  0.97597000  0.64874000  1
