# generated using pymatgen
data_Ni3H32C40(NO6)2
_symmetry_space_group_name_H-M   'P 1'
_cell_length_a   11.37800000
_cell_length_b   11.62590000
_cell_length_c   19.10600000
_cell_angle_alpha   90.00000000
_cell_angle_beta   90.00000000
_cell_angle_gamma   115.75300000
_symmetry_Int_Tables_number   1
_chemical_formula_structural   Ni3H32C40(NO6)2
_chemical_formula_sum   'Ni6 H64 C80 N4 O24'
_cell_volume   2276.30593472
_cell_formula_units_Z   2
loop_
 _symmetry_equiv_pos_site_id
 _symmetry_equiv_pos_as_xyz
  1  'x, y, z'
loop_
 _atom_site_type_symbol
 _atom_site_label
 _atom_site_symmetry_multiplicity
 _atom_site_fract_x
 _atom_site_fract_y
 _atom_site_fract_z
 _atom_site_occupancy
  Ni  Ni0  1  0.00000000  0.50000000  0.00000000  1
  Ni  Ni1  1  0.17403000  0.82933000  0.00515000  1
  Ni  Ni2  1  0.32597000  0.67067000  0.50515000  1
  Ni  Ni3  1  0.50000000  0.00000000  0.50000000  1
  Ni  Ni4  1  0.67403000  0.32933000  0.49485000  1
  Ni  Ni5  1  0.82597000  0.17067000  0.99485000  1
  H  H6  1  0.00860000  0.77080000  0.61090000  1
  H  H7  1  0.05170000  0.13300000  0.82720000  1
  H  H8  1  0.07460000  0.10890000  0.14770000  1
  H  H9  1  0.08740000  0.40630000  0.51620000  1
  H  H10  1  0.09700000  0.04390000  0.95870000  1
  H  H11  1  0.12300000  0.01000000  0.74410000  1
  H  H12  1  0.12880000  0.13190000  0.39010000  1
  H  H13  1  0.13280000  0.32500000  0.56510000  1
  H  H14  1  0.13310000  0.45200000  0.59290000  1
  H  H15  1  0.15660000  0.98660000  0.22810000  1
  H  H16  1  0.16420000  0.01520000  0.06500000  1
  H  H17  1  0.20580000  0.17260000  0.98730000  1
  H  H18  1  0.20750000  0.51320000  0.81590000  1
  H  H19  1  0.20790000  0.98480000  0.44740000  1
  H  H20  1  0.24050000  0.09420000  0.93100000  1
  H  H21  1  0.24560000  0.49060000  0.15350000  1
  H  H22  1  0.25440000  0.00940000  0.65350000  1
  H  H23  1  0.25950000  0.40580000  0.43100000  1
  H  H24  1  0.29210000  0.51520000  0.94740000  1
  H  H25  1  0.29250000  0.98680000  0.31590000  1
  H  H26  1  0.29420000  0.32740000  0.48730000  1
  H  H27  1  0.33580000  0.48480000  0.56500000  1
  H  H28  1  0.34340000  0.51340000  0.72810000  1
  H  H29  1  0.36690000  0.04800000  0.09290000  1
  H  H30  1  0.36720000  0.17500000  0.06510000  1
  H  H31  1  0.37120000  0.36810000  0.89010000  1
  H  H32  1  0.37700000  0.49000000  0.24410000  1
  H  H33  1  0.40300000  0.45610000  0.45870000  1
  H  H34  1  0.41260000  0.09370000  0.01620000  1
  H  H35  1  0.42540000  0.39110000  0.64770000  1
  H  H36  1  0.44830000  0.36700000  0.32720000  1
  H  H37  1  0.49140000  0.72920000  0.11090000  1
  H  H38  1  0.50860000  0.27080000  0.88910000  1
  H  H39  1  0.55170000  0.63300000  0.67280000  1
  H  H40  1  0.57460000  0.60890000  0.35230000  1
  H  H41  1  0.58740000  0.90630000  0.98380000  1
  H  H42  1  0.59700000  0.54390000  0.54130000  1
  H  H43  1  0.62300000  0.51000000  0.75590000  1
  H  H44  1  0.62880000  0.63190000  0.10990000  1
  H  H45  1  0.63280000  0.82500000  0.93490000  1
  H  H46  1  0.63310000  0.95200000  0.90710000  1
  H  H47  1  0.65660000  0.48660000  0.27190000  1
  H  H48  1  0.66420000  0.51520000  0.43500000  1
  H  H49  1  0.70580000  0.67260000  0.51270000  1
  H  H50  1  0.70750000  0.01320000  0.68410000  1
  H  H51  1  0.70790000  0.48480000  0.05260000  1
  H  H52  1  0.74050000  0.59420000  0.56900000  1
  H  H53  1  0.74560000  0.99060000  0.34650000  1
  H  H54  1  0.75440000  0.50940000  0.84650000  1
  H  H55  1  0.75950000  0.90580000  0.06900000  1
  H  H56  1  0.79210000  0.01520000  0.55260000  1
  H  H57  1  0.79250000  0.48680000  0.18410000  1
  H  H58  1  0.79420000  0.82740000  0.01270000  1
  H  H59  1  0.83580000  0.98480000  0.93500000  1
  H  H60  1  0.84340000  0.01340000  0.77190000  1
  H  H61  1  0.86690000  0.54800000  0.40710000  1
  H  H62  1  0.86720000  0.67500000  0.43490000  1
  H  H63  1  0.87120000  0.86810000  0.60990000  1
  H  H64  1  0.87700000  0.99000000  0.25590000  1
  H  H65  1  0.90300000  0.95610000  0.04130000  1
  H  H66  1  0.91260000  0.59370000  0.48380000  1
  H  H67  1  0.92540000  0.89110000  0.85230000  1
  H  H68  1  0.94830000  0.86700000  0.17280000  1
  H  H69  1  0.99140000  0.22920000  0.38910000  1
  C  C70  1  0.02000000  0.83360000  0.57790000  1
  C  C71  1  0.02890000  0.32320000  0.89010000  1
  C  C72  1  0.05050000  0.01670000  0.47610000  1
  C  C73  1  0.05700000  0.30510000  0.08410000  1
  C  C74  1  0.06310000  0.10980000  0.42360000  1
  C  C75  1  0.11010000  0.20890000  0.80670000  1
  C  C76  1  0.11590000  0.32140000  0.83060000  1
  C  C77  1  0.12350000  0.87090000  0.52900000  1
  C  C78  1  0.13700000  0.18470000  0.16640000  1
  C  C79  1  0.13940000  0.96050000  0.47920000  1
  C  C80  1  0.14710000  0.41010000  0.55260000  1
  C  C81  1  0.14770000  0.29970000  0.14100000  1
  C  C82  1  0.18210000  0.08690000  0.72490000  1
  C  C83  1  0.18760000  0.08830000  0.97120000  1
  C  C84  1  0.19030000  0.20410000  0.75160000  1
  C  C85  1  0.20410000  0.43620000  0.80000000  1
  C  C86  1  0.20820000  0.80140000  0.52870000  1
  C  C87  1  0.21540000  0.06380000  0.24730000  1
  C  C88  1  0.22000000  0.18020000  0.22110000  1
  C  C89  1  0.23850000  0.41300000  0.17080000  1
  C  C90  1  0.26150000  0.08700000  0.67080000  1
  C  C91  1  0.28000000  0.31980000  0.72110000  1
  C  C92  1  0.28460000  0.43620000  0.74730000  1
  C  C93  1  0.29180000  0.69860000  0.02870000  1
  C  C94  1  0.29590000  0.06380000  0.30000000  1
  C  C95  1  0.30970000  0.29590000  0.25160000  1
  C  C96  1  0.31240000  0.41170000  0.47120000  1
  C  C97  1  0.31790000  0.41310000  0.22490000  1
  C  C98  1  0.35230000  0.20030000  0.64100000  1
  C  C99  1  0.35290000  0.08990000  0.05260000  1
  C  C100  1  0.36060000  0.53950000  0.97920000  1
  C  C101  1  0.36300000  0.31530000  0.66640000  1
  C  C102  1  0.37650000  0.62910000  0.02900000  1
  C  C103  1  0.38410000  0.17860000  0.33060000  1
  C  C104  1  0.38990000  0.29110000  0.30670000  1
  C  C105  1  0.43690000  0.39020000  0.92360000  1
  C  C106  1  0.44300000  0.19490000  0.58410000  1
  C  C107  1  0.44950000  0.48330000  0.97610000  1
  C  C108  1  0.47110000  0.17680000  0.39010000  1
  C  C109  1  0.48000000  0.66640000  0.07790000  1
  C  C110  1  0.52000000  0.33360000  0.92210000  1
  C  C111  1  0.52890000  0.82320000  0.60990000  1
  C  C112  1  0.55050000  0.51670000  0.02390000  1
  C  C113  1  0.55700000  0.80510000  0.41590000  1
  C  C114  1  0.56310000  0.60980000  0.07640000  1
  C  C115  1  0.61010000  0.70890000  0.69330000  1
  C  C116  1  0.61590000  0.82140000  0.66940000  1
  C  C117  1  0.62350000  0.37090000  0.97100000  1
  C  C118  1  0.63700000  0.68470000  0.33360000  1
  C  C119  1  0.63940000  0.46050000  0.02080000  1
  C  C120  1  0.64710000  0.91010000  0.94740000  1
  C  C121  1  0.64770000  0.79970000  0.35900000  1
  C  C122  1  0.68210000  0.58690000  0.77510000  1
  C  C123  1  0.68760000  0.58830000  0.52880000  1
  C  C124  1  0.69030000  0.70410000  0.74840000  1
  C  C125  1  0.70410000  0.93620000  0.70000000  1
  C  C126  1  0.70820000  0.30140000  0.97130000  1
  C  C127  1  0.71540000  0.56380000  0.25270000  1
  C  C128  1  0.72000000  0.68020000  0.27890000  1
  C  C129  1  0.73850000  0.91300000  0.32920000  1
  C  C130  1  0.76150000  0.58700000  0.82920000  1
  C  C131  1  0.78000000  0.81980000  0.77890000  1
  C  C132  1  0.78460000  0.93620000  0.75270000  1
  C  C133  1  0.79180000  0.19860000  0.47130000  1
  C  C134  1  0.79590000  0.56380000  0.20000000  1
  C  C135  1  0.80970000  0.79590000  0.24840000  1
  C  C136  1  0.81240000  0.91170000  0.02880000  1
  C  C137  1  0.81790000  0.91310000  0.27510000  1
  C  C138  1  0.85230000  0.70030000  0.85900000  1
  C  C139  1  0.85290000  0.58990000  0.44740000  1
  C  C140  1  0.86060000  0.03950000  0.52080000  1
  C  C141  1  0.86300000  0.81530000  0.83360000  1
  C  C142  1  0.87650000  0.12910000  0.47100000  1
  C  C143  1  0.88410000  0.67860000  0.16940000  1
  C  C144  1  0.88990000  0.79110000  0.19330000  1
  C  C145  1  0.93690000  0.89020000  0.57640000  1
  C  C146  1  0.94300000  0.69490000  0.91590000  1
  C  C147  1  0.94950000  0.98330000  0.52390000  1
  C  C148  1  0.97110000  0.67680000  0.10990000  1
  C  C149  1  0.98000000  0.16640000  0.42210000  1
  N  N150  1  0.21740000  0.01770000  0.02750000  1
  N  N151  1  0.28260000  0.48230000  0.52750000  1
  N  N152  1  0.71740000  0.51770000  0.47250000  1
  N  N153  1  0.78260000  0.98230000  0.97250000  1
  O  O154  1  0.02360000  0.80080000  0.94051000  1
  O  O155  1  0.05130000  0.42950000  0.91440000  1
  O  O156  1  0.05880000  0.78470000  0.09087000  1
  O  O157  1  0.07270000  0.41390000  0.06770000  1
  O  O158  1  0.17210000  0.69620000  0.55980000  1
  O  O159  1  0.18610000  0.65620000  0.99263000  1
  O  O160  1  0.31390000  0.84380000  0.49263000  1
  O  O161  1  0.32790000  0.80380000  0.05980000  1
  O  O162  1  0.42730000  0.08610000  0.56770000  1
  O  O163  1  0.44120000  0.71530000  0.59087000  1
  O  O164  1  0.44870000  0.07050000  0.41440000  1
  O  O165  1  0.47640000  0.69920000  0.44051000  1
  O  O166  1  0.52360000  0.30080000  0.55949000  1
  O  O167  1  0.55130000  0.92950000  0.58560000  1
  O  O168  1  0.55880000  0.28470000  0.40913000  1
  O  O169  1  0.57270000  0.91390000  0.43230000  1
  O  O170  1  0.67210000  0.19620000  0.94020000  1
  O  O171  1  0.68610000  0.15620000  0.50737000  1
  O  O172  1  0.81390000  0.34380000  0.00737000  1
  O  O173  1  0.82790000  0.30380000  0.44020000  1
  O  O174  1  0.92730000  0.58610000  0.93230000  1
  O  O175  1  0.94120000  0.21530000  0.90913000  1
  O  O176  1  0.94870000  0.57050000  0.08560000  1
  O  O177  1  0.97640000  0.19920000  0.05949000  1
