# generated using pymatgen
data_SmH10C17O9
_symmetry_space_group_name_H-M   'P 1'
_cell_length_a   11.06566935
_cell_length_b   11.06566935
_cell_length_c   16.66170000
_cell_angle_alpha   90.00000000
_cell_angle_beta   90.00000000
_cell_angle_gamma   97.42839556
_symmetry_Int_Tables_number   1
_chemical_formula_structural   SmH10C17O9
_chemical_formula_sum   'Sm4 H40 C68 O36'
_cell_volume   2023.08609280
_cell_formula_units_Z   4
loop_
 _symmetry_equiv_pos_site_id
 _symmetry_equiv_pos_as_xyz
  1  'x, y, z'
loop_
 _atom_site_type_symbol
 _atom_site_label
 _atom_site_symmetry_multiplicity
 _atom_site_fract_x
 _atom_site_fract_y
 _atom_site_fract_z
 _atom_site_occupancy
  C  C0  1  0.63250000  0.34730000  0.95630000  1
  C  C1  1  0.34730000  0.63250000  0.04370000  1
  C  C2  1  0.66310000  0.28890000  0.09670000  1
  C  C3  1  0.28890000  0.66310000  0.90330000  1
  C  C4  1  0.69530000  0.23210000  0.23780000  1
  C  C5  1  0.64470000  0.25650000  0.01730000  1
  C  C6  1  0.25650000  0.64470000  0.98270000  1
  C  C7  1  0.66720000  0.20460000  0.15620000  1
  C  C8  1  0.20460000  0.66720000  0.84380000  1
  C  C9  1  0.64860000  0.13360000  0.99570000  1
  C  C10  1  0.13360000  0.64860000  0.00430000  1
  C  C11  1  0.67200000  0.08560000  0.13580000  1
  C  C12  1  0.08560000  0.67200000  0.86420000  1
  C  C13  1  0.66420000  0.07480000  0.71290000  1
  C  C14  1  0.07480000  0.66420000  0.28710000  1
  C  C15  1  0.36640000  0.36140000  0.29650000  1
  C  C16  1  0.36140000  0.36640000  0.70350000  1
  C  C17  1  0.66430000  0.04690000  0.05580000  1
  C  C18  1  0.04690000  0.66430000  0.94420000  1
  C  C19  1  0.33710000  0.30050000  0.15320000  1
  C  C20  1  0.30050000  0.33710000  0.84680000  1
  C  C21  1  0.35960000  0.26780000  0.23200000  1
  C  C22  1  0.26780000  0.35960000  0.76800000  1
  C  C23  1  0.65640000  0.94160000  0.69250000  1
  C  C24  1  0.94160000  0.65640000  0.30750000  1
  C  C25  1  0.67910000  0.91810000  0.03410000  1
  C  C26  1  0.91810000  0.67910000  0.96590000  1
  C  C27  1  0.66790000  0.90750000  0.61210000  1
  C  C28  1  0.90750000  0.66790000  0.38790000  1
  C  C29  1  0.33430000  0.21190000  0.09160000  1
  C  C30  1  0.21190000  0.33430000  0.90840000  1
  C  C31  1  0.29600000  0.23640000  0.01300000  1
  C  C32  1  0.36270000  0.14510000  0.25090000  1
  C  C33  1  0.14510000  0.36270000  0.74910000  1
  C  C34  1  0.63730000  0.85490000  0.75090000  1
  C  C35  1  0.85490000  0.63730000  0.24910000  1
  C  C36  1  0.70400000  0.76360000  0.51300000  1
  C  C37  1  0.66570000  0.78810000  0.59160000  1
  C  C38  1  0.78810000  0.66570000  0.40840000  1
  C  C39  1  0.33210000  0.09250000  0.11210000  1
  C  C40  1  0.09250000  0.33210000  0.88790000  1
  C  C41  1  0.32090000  0.08190000  0.53410000  1
  C  C42  1  0.08190000  0.32090000  0.46590000  1
  C  C43  1  0.34360000  0.05840000  0.19250000  1
  C  C44  1  0.05840000  0.34360000  0.80750000  1
  C  C45  1  0.64040000  0.73220000  0.73200000  1
  C  C46  1  0.73220000  0.64040000  0.26800000  1
  C  C47  1  0.66290000  0.69950000  0.65320000  1
  C  C48  1  0.69950000  0.66290000  0.34680000  1
  C  C49  1  0.33570000  0.95310000  0.55580000  1
  C  C50  1  0.95310000  0.33570000  0.44420000  1
  C  C51  1  0.63360000  0.63860000  0.79650000  1
  C  C52  1  0.63860000  0.63360000  0.20350000  1
  C  C53  1  0.33580000  0.92520000  0.21290000  1
  C  C54  1  0.92520000  0.33580000  0.78710000  1
  C  C55  1  0.32800000  0.91440000  0.63580000  1
  C  C56  1  0.91440000  0.32800000  0.36420000  1
  C  C57  1  0.35140000  0.86640000  0.49570000  1
  C  C58  1  0.86640000  0.35140000  0.50430000  1
  C  C59  1  0.33280000  0.79540000  0.65620000  1
  C  C60  1  0.79540000  0.33280000  0.34380000  1
  C  C61  1  0.35530000  0.74350000  0.51730000  1
  C  C62  1  0.74350000  0.35530000  0.48270000  1
  C  C63  1  0.30470000  0.76790000  0.73780000  1
  C  C64  1  0.33690000  0.71110000  0.59670000  1
  C  C65  1  0.71110000  0.33690000  0.40330000  1
  C  C66  1  0.36750000  0.65270000  0.45630000  1
  C  C67  1  0.65270000  0.36750000  0.54370000  1
  H  H68  1  0.63590000  0.32770000  0.39090000  1
  H  H69  1  0.32770000  0.63590000  0.60910000  1
  H  H70  1  0.62130000  0.25110000  0.26190000  1
  H  H71  1  0.25110000  0.62130000  0.73810000  1
  H  H72  1  0.71370000  0.15830000  0.26260000  1
  H  H73  1  0.15830000  0.71370000  0.73740000  1
  H  H74  1  0.64080000  0.10980000  0.94220000  1
  H  H75  1  0.10980000  0.64080000  0.05780000  1
  H  H76  1  0.68060000  0.02920000  0.17610000  1
  H  H77  1  0.02920000  0.68060000  0.82390000  1
  H  H78  1  0.37970000  0.32410000  0.85890000  1
  H  H79  1  0.32410000  0.37970000  0.14110000  1
  H  H80  1  0.67620000  0.96200000  0.57580000  1
  H  H81  1  0.96200000  0.67620000  0.42420000  1
  H  H82  1  0.37240000  0.26300000  0.98730000  1
  H  H83  1  0.26300000  0.37240000  0.01270000  1
  H  H84  1  0.72930000  0.83050000  0.49260000  1
  H  H85  1  0.83050000  0.72930000  0.50740000  1
  H  H86  1  0.37770000  0.12250000  0.30340000  1
  H  H87  1  0.12250000  0.37770000  0.69660000  1
  H  H88  1  0.62230000  0.87750000  0.80340000  1
  H  H89  1  0.87750000  0.62230000  0.19660000  1
  H  H90  1  0.27070000  0.16950000  0.99260000  1
  H  H91  1  0.16950000  0.27070000  0.00740000  1
  H  H92  1  0.62760000  0.73700000  0.48730000  1
  H  H93  1  0.73700000  0.62760000  0.51270000  1
  H  H94  1  0.32380000  0.03800000  0.07580000  1
  H  H95  1  0.03800000  0.32380000  0.92420000  1
  H  H96  1  0.62030000  0.67590000  0.35890000  1
  H  H97  1  0.67590000  0.62030000  0.64110000  1
  H  H98  1  0.31940000  0.97080000  0.67610000  1
  H  H99  1  0.97080000  0.31940000  0.32390000  1
  H  H100  1  0.35920000  0.89020000  0.44220000  1
  H  H101  1  0.89020000  0.35920000  0.55780000  1
  H  H102  1  0.28630000  0.84170000  0.76260000  1
  H  H103  1  0.84170000  0.28630000  0.23740000  1
  H  H104  1  0.37870000  0.74890000  0.76190000  1
  H  H105  1  0.74890000  0.37870000  0.23810000  1
  H  H106  1  0.36410000  0.67230000  0.89090000  1
  H  H107  1  0.67230000  0.36410000  0.10910000  1
  O  O108  1  0.23210000  0.69530000  0.76220000  1
  O  O109  1  0.59990000  0.31070000  0.88490000  1
  O  O110  1  0.31070000  0.59990000  0.11510000  1
  O  O111  1  0.54190000  0.34990000  0.52350000  1
  O  O112  1  0.34990000  0.54190000  0.47650000  1
  O  O113  1  0.71350000  0.15350000  0.66650000  1
  O  O114  1  0.15350000  0.71350000  0.33350000  1
  O  O115  1  0.46120000  0.32980000  0.72180000  1
  O  O116  1  0.32980000  0.46120000  0.27820000  1
  O  O117  1  0.40270000  0.33410000  0.36380000  1
  O  O118  1  0.33410000  0.40270000  0.63620000  1
  O  O119  1  0.60400000  0.10680000  0.77470000  1
  O  O120  1  0.10680000  0.60400000  0.22530000  1
  O  O121  1  0.70070000  0.84770000  0.08450000  1
  O  O122  1  0.84770000  0.70070000  0.91550000  1
  O  O123  1  0.65340000  0.88380000  0.96420000  1
  O  O124  1  0.88380000  0.65340000  0.03580000  1
  O  O125  1  0.23640000  0.29600000  0.98700000  1
  O  O126  1  0.76360000  0.70400000  0.48700000  1
  O  O127  1  0.34660000  0.11620000  0.46420000  1
  O  O128  1  0.11620000  0.34660000  0.53580000  1
  O  O129  1  0.29930000  0.15230000  0.58450000  1
  O  O130  1  0.15230000  0.29930000  0.41550000  1
  O  O131  1  0.39600000  0.89320000  0.27470000  1
  O  O132  1  0.89320000  0.39600000  0.72530000  1
  O  O133  1  0.59730000  0.66590000  0.86380000  1
  O  O134  1  0.66590000  0.59730000  0.13620000  1
  O  O135  1  0.53880000  0.67020000  0.22180000  1
  O  O136  1  0.67020000  0.53880000  0.77820000  1
  O  O137  1  0.28650000  0.84650000  0.16650000  1
  O  O138  1  0.84650000  0.28650000  0.83350000  1
  O  O139  1  0.45810000  0.65010000  0.02350000  1
  O  O140  1  0.65010000  0.45810000  0.97650000  1
  O  O141  1  0.40010000  0.68930000  0.38490000  1
  O  O142  1  0.68930000  0.40010000  0.61510000  1
  O  O143  1  0.76790000  0.30470000  0.26220000  1
  Sm  Sm144  1  0.66801000  0.33199000  0.75000000  1
  Sm  Sm145  1  0.33199000  0.66801000  0.25000000  1
  Sm  Sm146  1  0.33787000  0.33787000  0.50000000  1
  Sm  Sm147  1  0.66213000  0.66213000  0.00000000  1
