# generated using pymatgen
data_Ag2H22C11S2(N2O3)2
_symmetry_space_group_name_H-M   'P 1'
_cell_length_a   6.73380000
_cell_length_b   16.69030000
_cell_length_c   16.69032568
_cell_angle_alpha   87.66771679
_cell_angle_beta   78.36177206
_cell_angle_gamma   78.36200000
_symmetry_Int_Tables_number   1
_chemical_formula_structural   Ag2H22C11S2(N2O3)2
_chemical_formula_sum   'Ag8 H88 C44 S8 N16 O24'
_cell_volume   1799.47562902
_cell_formula_units_Z   4
loop_
 _symmetry_equiv_pos_site_id
 _symmetry_equiv_pos_as_xyz
  1  'x, y, z'
loop_
 _atom_site_type_symbol
 _atom_site_label
 _atom_site_symmetry_multiplicity
 _atom_site_fract_x
 _atom_site_fract_y
 _atom_site_fract_z
 _atom_site_occupancy
  Ag  Ag0  1  0.29888000  0.89096000  0.61744000  1
  Ag  Ag1  1  0.69272000  0.39096000  0.11744000  1
  Ag  Ag2  1  0.81016000  0.88256000  0.89096000  1
  Ag  Ag3  1  0.08368000  0.61744000  0.60904000  1
  Ag  Ag4  1  0.91632000  0.38256000  0.39096000  1
  Ag  Ag5  1  0.18984000  0.11744000  0.10904000  1
  Ag  Ag6  1  0.30728000  0.60904000  0.88256000  1
  Ag  Ag7  1  0.70112000  0.10904000  0.38256000  1
  H  H8  1  0.40520000  0.16730000  0.58570000  1
  H  H9  1  0.66430000  0.62230000  0.32490000  1
  H  H10  1  0.66800000  0.28600000  0.29000000  1
  H  H11  1  0.74400000  0.21400000  0.21000000  1
  H  H12  1  0.01080000  0.32490000  0.87770000  1
  H  H13  1  0.47050000  0.76230000  0.39910000  1
  H  H14  1  0.13040000  0.39910000  0.73770000  1
  H  H15  1  0.34700000  0.46030000  0.50090000  1
  H  H16  1  0.27440000  0.05390000  0.57310000  1
  H  H17  1  0.43460000  0.89160000  0.37460000  1
  H  H18  1  0.84790000  0.49910000  0.96030000  1
  H  H19  1  0.80820000  0.03970000  0.99910000  1
  H  H20  1  0.39810000  0.01640000  0.40520000  1
  H  H21  1  0.19080000  0.37460000  0.60840000  1
  H  H22  1  0.86810000  0.26230000  0.89910000  1
  H  H23  1  0.37290000  0.27850000  0.39030000  1
  H  H24  1  0.26010000  0.11930000  0.50310000  1
  H  H25  1  0.54640000  0.11230000  0.21090000  1
  H  H26  1  0.95800000  0.71000000  0.78600000  1
  H  H27  1  0.62060000  0.99690000  0.11930000  1
  H  H28  1  0.67170000  0.92690000  0.05390000  1
  H  H29  1  0.88850000  0.12230000  0.82490000  1
  H  H30  1  0.19670000  0.40520000  0.48360000  1
  H  H31  1  0.79920000  0.39160000  0.87460000  1
  H  H32  1  0.59860000  0.55390000  0.07310000  1
  H  H33  1  0.95400000  0.79000000  0.71400000  1
  H  H34  1  0.28660000  0.82490000  0.37770000  1
  H  H35  1  0.36960000  0.38770000  0.28910000  1
  H  H36  1  0.99090000  0.41430000  0.66730000  1
  H  H37  1  0.19270000  0.99910000  0.46030000  1
  H  H38  1  0.54170000  0.22150000  0.10970000  1
  H  H39  1  0.24270000  0.21090000  0.38770000  1
  H  H40  1  0.34860000  0.10970000  0.27850000  1
  H  H41  1  0.61750000  0.61930000  0.00310000  1
  H  H42  1  0.23680000  0.50310000  0.38070000  1
  H  H43  1  0.58550000  0.09480000  0.01640000  1
  H  H44  1  0.15250000  0.57310000  0.44610000  1
  H  H45  1  0.42750000  0.91430000  0.16730000  1
  H  H46  1  0.68030000  0.51640000  0.90520000  1
  H  H47  1  0.65820000  0.33270000  0.91430000  1
  H  H48  1  0.67380000  0.12540000  0.89160000  1
  H  H49  1  0.65870000  0.71090000  0.88770000  1
  H  H50  1  0.76320000  0.60970000  0.77850000  1
  H  H51  1  0.76720000  0.10090000  0.76230000  1
  H  H52  1  0.23280000  0.89910000  0.23770000  1
  H  H53  1  0.23680000  0.39030000  0.22150000  1
  H  H54  1  0.34130000  0.28910000  0.11230000  1
  H  H55  1  0.32620000  0.87460000  0.10840000  1
  H  H56  1  0.34180000  0.66730000  0.08570000  1
  H  H57  1  0.31970000  0.48360000  0.09480000  1
  H  H58  1  0.57250000  0.08570000  0.83270000  1
  H  H59  1  0.84750000  0.42690000  0.55390000  1
  H  H60  1  0.41450000  0.90520000  0.98360000  1
  H  H61  1  0.76320000  0.49690000  0.61930000  1
  H  H62  1  0.38250000  0.38070000  0.99690000  1
  H  H63  1  0.65140000  0.89030000  0.72150000  1
  H  H64  1  0.75730000  0.78910000  0.61230000  1
  H  H65  1  0.45830000  0.77850000  0.89030000  1
  H  H66  1  0.80730000  0.00090000  0.53970000  1
  H  H67  1  0.00910000  0.58570000  0.33270000  1
  H  H68  1  0.63040000  0.61230000  0.71090000  1
  H  H69  1  0.71340000  0.17510000  0.62230000  1
  H  H70  1  0.04600000  0.21000000  0.28600000  1
  H  H71  1  0.40140000  0.44610000  0.92690000  1
  H  H72  1  0.20080000  0.60840000  0.12540000  1
  H  H73  1  0.80330000  0.59480000  0.51640000  1
  H  H74  1  0.11150000  0.87770000  0.17510000  1
  H  H75  1  0.32830000  0.07310000  0.94610000  1
  H  H76  1  0.37940000  0.00310000  0.88070000  1
  H  H77  1  0.04200000  0.29000000  0.21400000  1
  H  H78  1  0.45360000  0.88770000  0.78910000  1
  H  H79  1  0.73990000  0.88070000  0.49690000  1
  H  H80  1  0.62710000  0.72150000  0.60970000  1
  H  H81  1  0.13190000  0.73770000  0.10090000  1
  H  H82  1  0.80920000  0.62540000  0.39160000  1
  H  H83  1  0.60190000  0.98360000  0.59480000  1
  H  H84  1  0.19180000  0.96030000  0.00090000  1
  H  H85  1  0.15210000  0.50090000  0.03970000  1
  H  H86  1  0.56540000  0.10840000  0.62540000  1
  H  H87  1  0.72560000  0.94610000  0.42690000  1
  H  H88  1  0.65300000  0.53970000  0.49910000  1
  H  H89  1  0.86960000  0.60090000  0.26230000  1
  H  H90  1  0.52950000  0.23770000  0.60090000  1
  H  H91  1  0.98920000  0.67510000  0.12230000  1
  H  H92  1  0.25600000  0.78600000  0.79000000  1
  H  H93  1  0.33200000  0.71400000  0.71000000  1
  H  H94  1  0.33570000  0.37770000  0.67510000  1
  H  H95  1  0.59480000  0.83270000  0.41430000  1
  C  C96  1  0.21650000  0.42120000  0.69180000  1
  C  C97  1  0.62760000  0.25000000  0.25000000  1
  C  C98  1  0.45150000  0.86080000  0.42420000  1
  C  C99  1  0.33910000  0.06750000  0.51830000  1
  C  C100  1  0.90830000  0.30820000  0.92120000  1
  C  C101  1  0.33490000  0.00240000  0.46020000  1
  C  C102  1  0.36230000  0.80820000  0.42120000  1
  C  C103  1  0.12430000  0.42420000  0.63920000  1
  C  C104  1  0.20490000  0.46020000  0.49760000  1
  C  C105  1  0.76350000  0.36080000  0.92420000  1
  C  C106  1  0.32450000  0.24610000  0.35410000  1
  C  C107  1  0.42940000  0.14590000  0.24610000  1
  C  C108  1  0.66270000  0.03980000  0.00240000  1
  C  C109  1  0.70250000  0.50240000  0.96020000  1
  C  C110  1  0.59340000  0.98170000  0.06750000  1
  C  C111  1  0.82950000  0.07880000  0.80820000  1
  C  C112  1  0.87760000  0.75000000  0.75000000  1
  C  C113  1  0.57510000  0.56750000  0.01830000  1
  C  C114  1  0.32140000  0.35410000  0.25390000  1
  C  C115  1  0.14260000  0.51830000  0.43250000  1
  C  C116  1  0.42470000  0.25390000  0.14590000  1
  C  C117  1  0.68770000  0.07580000  0.86080000  1
  C  C118  1  0.31230000  0.92420000  0.13920000  1
  C  C119  1  0.57530000  0.74610000  0.85410000  1
  C  C120  1  0.85740000  0.48170000  0.56750000  1
  C  C121  1  0.67860000  0.64590000  0.74610000  1
  C  C122  1  0.42490000  0.43250000  0.98170000  1
  C  C123  1  0.12240000  0.25000000  0.25000000  1
  C  C124  1  0.17050000  0.92120000  0.19180000  1
  C  C125  1  0.40660000  0.01830000  0.93250000  1
  C  C126  1  0.29750000  0.49760000  0.03980000  1
  C  C127  1  0.33730000  0.96020000  0.99760000  1
  C  C128  1  0.57060000  0.85410000  0.75390000  1
  C  C129  1  0.67550000  0.75390000  0.64590000  1
  C  C130  1  0.23650000  0.63920000  0.07580000  1
  C  C131  1  0.79510000  0.53980000  0.50240000  1
  C  C132  1  0.87570000  0.57580000  0.36080000  1
  C  C133  1  0.63770000  0.19180000  0.57880000  1
  C  C134  1  0.66510000  0.99760000  0.53980000  1
  C  C135  1  0.09170000  0.69180000  0.07880000  1
  C  C136  1  0.66090000  0.93250000  0.48170000  1
  C  C137  1  0.54850000  0.13920000  0.57580000  1
  C  C138  1  0.37240000  0.75000000  0.75000000  1
  C  C139  1  0.78350000  0.57880000  0.30820000  1
  S  S140  1  0.94641000  0.73728000  0.00610000  1
  S  S141  1  0.68369000  0.50610000  0.26272000  1
  S  S142  1  0.04749000  0.00610000  0.76272000  1
  S  S143  1  0.18979000  0.76272000  0.49390000  1
  S  S144  1  0.81021000  0.23728000  0.50610000  1
  S  S145  1  0.95251000  0.99390000  0.23728000  1
  S  S146  1  0.31631000  0.49390000  0.73728000  1
  S  S147  1  0.05359000  0.26272000  0.99390000  1
  N  N148  1  0.44510000  0.92430000  0.48290000  1
  N  N149  1  0.50550000  0.19460000  0.30100000  1
  N  N150  1  0.50110000  0.30540000  0.19900000  1
  N  N151  1  0.07200000  0.48290000  0.57570000  1
  N  N152  1  0.64770000  0.42430000  0.98290000  1
  N  N153  1  0.63060000  0.01710000  0.92430000  1
  N  N154  1  0.70010000  0.80100000  0.80540000  1
  N  N155  1  0.80650000  0.69900000  0.69460000  1
  N  N156  1  0.19350000  0.30100000  0.30540000  1
  N  N157  1  0.29990000  0.19900000  0.19460000  1
  N  N158  1  0.36940000  0.98290000  0.07570000  1
  N  N159  1  0.35230000  0.57570000  0.01710000  1
  N  N160  1  0.92800000  0.51710000  0.42430000  1
  N  N161  1  0.49890000  0.69460000  0.80100000  1
  N  N162  1  0.49450000  0.80540000  0.69900000  1
  N  N163  1  0.55490000  0.07570000  0.51710000  1
  O  O164  1  0.96780000  0.19180000  0.02100000  1
  O  O165  1  0.64710000  0.44110000  0.32270000  1
  O  O166  1  0.15960000  0.52100000  0.80820000  1
  O  O167  1  0.22040000  0.04500000  0.74200000  1
  O  O168  1  0.08910000  0.94110000  0.82270000  1
  O  O169  1  0.96980000  0.67730000  0.94110000  1
  O  O170  1  0.31940000  0.69180000  0.52100000  1
  O  O171  1  0.73460000  0.75800000  0.04500000  1
  O  O172  1  0.49260000  0.54500000  0.24200000  1
  O  O173  1  0.98880000  0.97900000  0.69180000  1
  O  O174  1  0.08820000  0.82270000  0.55890000  1
  O  O175  1  0.96240000  0.25800000  0.54500000  1
  O  O176  1  0.03760000  0.74200000  0.45500000  1
  O  O177  1  0.91180000  0.17730000  0.44110000  1
  O  O178  1  0.01120000  0.02100000  0.30820000  1
  O  O179  1  0.50740000  0.45500000  0.75800000  1
  O  O180  1  0.26540000  0.24200000  0.95500000  1
  O  O181  1  0.68060000  0.30820000  0.47900000  1
  O  O182  1  0.03020000  0.32270000  0.05890000  1
  O  O183  1  0.91090000  0.05890000  0.17730000  1
  O  O184  1  0.77960000  0.95500000  0.25800000  1
  O  O185  1  0.84040000  0.47900000  0.19180000  1
  O  O186  1  0.35290000  0.55890000  0.67730000  1
  O  O187  1  0.03220000  0.80820000  0.97900000  1
