# generated using pymatgen
data_Ni2H22C36N4O9
_symmetry_space_group_name_H-M   'P 1'
_cell_length_a   8.24200000
_cell_length_b   11.25900000
_cell_length_c   12.89809416
_cell_angle_alpha   104.23900658
_cell_angle_beta   108.63292305
_cell_angle_gamma   90.00000000
_symmetry_Int_Tables_number   1
_chemical_formula_structural   Ni2H22C36N4O9
_chemical_formula_sum   'Ni2 H22 C36 N4 O9'
_cell_volume   1095.28957115
_cell_formula_units_Z   1
loop_
 _symmetry_equiv_pos_site_id
 _symmetry_equiv_pos_as_xyz
  1  'x, y, z'
loop_
 _atom_site_type_symbol
 _atom_site_label
 _atom_site_symmetry_multiplicity
 _atom_site_fract_x
 _atom_site_fract_y
 _atom_site_fract_z
 _atom_site_occupancy
  Ni  Ni0  1  0.49144000  0.43674000  0.37130000  1
  Ni  Ni1  1  0.12014000  0.56326000  0.62870000  1
  H  H2  1  0.26460000  0.19700000  0.25820000  1
  H  H3  1  0.32030000  0.59800000  0.22340000  1
  H  H4  1  0.31420000  0.79560000  0.21680000  1
  H  H5  1  0.64850000  0.68940000  0.52900000  1
  H  H6  1  0.66180000  0.88950000  0.52860000  1
  H  H7  1  0.99130000  0.00700000  0.73820000  1
  H  H8  1  0.00640000  0.80300000  0.74180000  1
  H  H9  1  0.73900000  0.05420000  0.46960000  1
  H  H10  1  0.73620000  0.25530000  0.46400000  1
  H  H11  1  0.09740000  0.20440000  0.78320000  1
  H  H12  1  0.09690000  0.40200000  0.77660000  1
  H  H13  1  0.99850000  0.70070000  0.35680000  1
  H  H14  1  0.11950000  0.31060000  0.47100000  1
  H  H15  1  0.13320000  0.11050000  0.47140000  1
  H  H16  1  0.70750000  0.69330000  0.03980000  1
  H  H17  1  0.66770000  0.30670000  0.96020000  1
  H  H18  1  0.92640000  0.78790000  0.20520000  1
  H  H19  1  0.27220000  0.74470000  0.53600000  1
  H  H20  1  0.26940000  0.94580000  0.53040000  1
  H  H21  1  0.72120000  0.21210000  0.79480000  1
  H  H22  1  0.25310000  0.99300000  0.26180000  1
  H  H23  1  0.64170000  0.29930000  0.64320000  1
  C  C24  1  0.35290000  0.04440000  0.30340000  1
  C  C25  1  0.36070000  0.16830000  0.30300000  1
  C  C26  1  0.38980000  0.65750000  0.28580000  1
  C  C27  1  0.38790000  0.77560000  0.28020000  1
  C  C28  1  0.58300000  0.71120000  0.46420000  1
  C  C29  1  0.49640000  0.86880000  0.36960000  1
  C  C30  1  0.59200000  0.83190000  0.46480000  1
  C  C31  1  0.50060000  0.99900000  0.36840000  1
  C  C32  1  0.63930000  0.08070000  0.42640000  1
  C  C33  1  0.63700000  0.20300000  0.42300000  1
  C  C34  1  0.04950000  0.95560000  0.69660000  1
  C  C35  1  0.05770000  0.83170000  0.69700000  1
  C  C36  1  0.10770000  0.22440000  0.71980000  1
  C  C37  1  0.10400000  0.34250000  0.71420000  1
  C  C38  1  0.58540000  0.38270000  0.17760000  1
  C  C39  1  0.86040000  0.50960000  0.39120000  1
  C  C40  1  0.68390000  0.50030000  0.18860000  1
  C  C41  1  0.12680000  0.13120000  0.63040000  1
  C  C42  1  0.13220000  0.00100000  0.63160000  1
  C  C43  1  0.81630000  0.55880000  0.28700000  1
  C  C44  1  0.64320000  0.55530000  0.09660000  1
  C  C45  1  0.11880000  0.28880000  0.53580000  1
  C  C46  1  0.40780000  0.61730000  0.82240000  1
  C  C47  1  0.12720000  0.16810000  0.53520000  1
  C  C48  1  0.90760000  0.66410000  0.29140000  1
  C  C49  1  0.73430000  0.66020000  0.10180000  1
  C  C50  1  0.21400000  0.79700000  0.57700000  1
  C  C51  1  0.21290000  0.91930000  0.57360000  1
  C  C52  1  0.54660000  0.44470000  0.90340000  1
  C  C53  1  0.86590000  0.71580000  0.20020000  1
  C  C54  1  0.49530000  0.49970000  0.81140000  1
  C  C55  1  0.63250000  0.33980000  0.89820000  1
  C  C56  1  0.52930000  0.44120000  0.71300000  1
  C  C57  1  0.46920000  0.49040000  0.60880000  1
  C  C58  1  0.66570000  0.28420000  0.79980000  1
  C  C59  1  0.61620000  0.33590000  0.70860000  1
  N  N60  1  0.48602000  0.62070000  0.37624000  1
  N  N61  1  0.49931000  0.24890000  0.36402000  1
  N  N62  1  0.10978000  0.37930000  0.62376000  1
  N  N63  1  0.13529000  0.75110000  0.63598000  1
  O  O64  1  0.55643000  0.46240000  0.54306000  1
  O  O65  1  0.44471000  0.38610000  0.19722000  1
  O  O66  1  0.75352000  0.44800000  0.40824000  1
  O  O67  1  0.24749000  0.61390000  0.80278000  1
  O  O68  1  0.50360000  0.50000000  0.00000000  1
  O  O69  1  0.64405000  0.28440000  0.13890000  1
  O  O70  1  0.01337000  0.53760000  0.45694000  1
  O  O71  1  0.50515000  0.71560000  0.86110000  1
  O  O72  1  0.34528000  0.55200000  0.59176000  1
