# generated using pymatgen
data_KTbC8(NO4)2
_symmetry_space_group_name_H-M   'P 1'
_cell_length_a   6.66120000
_cell_length_b   14.34200000
_cell_length_c   15.11900000
_cell_angle_alpha   90.00000000
_cell_angle_beta   90.00000000
_cell_angle_gamma   90.00000000
_symmetry_Int_Tables_number   1
_chemical_formula_structural   KTbC8(NO4)2
_chemical_formula_sum   'K4 Tb4 C32 N8 O32'
_cell_volume   1444.39261272
_cell_formula_units_Z   4
loop_
 _symmetry_equiv_pos_site_id
 _symmetry_equiv_pos_as_xyz
  1  'x, y, z'
loop_
 _atom_site_type_symbol
 _atom_site_label
 _atom_site_symmetry_multiplicity
 _atom_site_fract_x
 _atom_site_fract_y
 _atom_site_fract_z
 _atom_site_occupancy
  K  K0  1  0.75000000  0.80910000  0.22890000  1
  K  K1  1  0.25000000  0.30910000  0.27110000  1
  K  K2  1  0.75000000  0.69090000  0.72890000  1
  K  K3  1  0.25000000  0.19090000  0.77110000  1
  Tb  Tb4  1  0.25000000  0.62043000  0.20091000  1
  Tb  Tb5  1  0.75000000  0.12043000  0.29909000  1
  Tb  Tb6  1  0.25000000  0.87957000  0.70091000  1
  Tb  Tb7  1  0.75000000  0.37957000  0.79909000  1
  C  C8  1  0.25000000  0.50780000  0.00480000  1
  C  C9  1  0.75000000  0.33200000  0.01790000  1
  C  C10  1  0.25000000  0.76150000  0.02900000  1
  C  C11  1  0.25000000  0.43320000  0.07530000  1
  C  C12  1  0.75000000  0.50590000  0.08680000  1
  C  C13  1  0.75000000  0.34740000  0.10980000  1
  C  C14  1  0.75000000  0.60270000  0.13060000  1
  C  C15  1  0.75000000  0.27170000  0.17680000  1
  C  C16  1  0.25000000  0.77170000  0.32320000  1
  C  C17  1  0.25000000  0.10270000  0.36940000  1
  C  C18  1  0.25000000  0.84740000  0.39020000  1
  C  C19  1  0.25000000  0.00590000  0.41320000  1
  C  C20  1  0.75000000  0.93320000  0.42470000  1
  C  C21  1  0.75000000  0.26150000  0.47100000  1
  C  C22  1  0.25000000  0.83200000  0.48210000  1
  C  C23  1  0.75000000  0.00780000  0.49520000  1
  C  C24  1  0.25000000  0.99220000  0.50480000  1
  C  C25  1  0.75000000  0.16800000  0.51790000  1
  C  C26  1  0.25000000  0.73850000  0.52900000  1
  C  C27  1  0.25000000  0.06680000  0.57530000  1
  C  C28  1  0.75000000  0.99410000  0.58680000  1
  C  C29  1  0.75000000  0.15260000  0.60980000  1
  C  C30  1  0.75000000  0.89730000  0.63060000  1
  C  C31  1  0.75000000  0.22830000  0.67680000  1
  C  C32  1  0.25000000  0.72830000  0.82320000  1
  C  C33  1  0.25000000  0.39730000  0.86940000  1
  C  C34  1  0.25000000  0.65260000  0.89020000  1
  C  C35  1  0.25000000  0.49410000  0.91320000  1
  C  C36  1  0.75000000  0.56680000  0.92470000  1
  C  C37  1  0.75000000  0.23850000  0.97100000  1
  C  C38  1  0.25000000  0.66800000  0.98210000  1
  C  C39  1  0.75000000  0.49220000  0.99520000  1
  N  N40  1  0.25000000  0.59370000  0.03750000  1
  N  N41  1  0.75000000  0.43370000  0.14250000  1
  N  N42  1  0.25000000  0.93370000  0.35750000  1
  N  N43  1  0.75000000  0.09370000  0.46250000  1
  N  N44  1  0.25000000  0.90630000  0.53750000  1
  N  N45  1  0.75000000  0.06630000  0.64250000  1
  N  N46  1  0.25000000  0.56630000  0.85750000  1
  N  N47  1  0.75000000  0.40630000  0.96250000  1
  O  O48  1  0.75000000  0.16830000  0.01910000  1
  O  O49  1  0.25000000  0.35140000  0.05170000  1
  O  O50  1  0.25000000  0.75770000  0.11220000  1
  O  O51  1  0.58370000  0.63500000  0.14930000  1
  O  O52  1  0.91630000  0.63500000  0.14930000  1
  O  O53  1  0.25000000  0.46230000  0.15440000  1
  O  O54  1  0.58580000  0.24210000  0.20550000  1
  O  O55  1  0.91420000  0.24210000  0.20550000  1
  O  O56  1  0.08580000  0.74210000  0.29450000  1
  O  O57  1  0.41420000  0.74210000  0.29450000  1
  O  O58  1  0.75000000  0.96230000  0.34560000  1
  O  O59  1  0.08370000  0.13500000  0.35070000  1
  O  O60  1  0.41630000  0.13500000  0.35070000  1
  O  O61  1  0.75000000  0.25770000  0.38780000  1
  O  O62  1  0.75000000  0.85140000  0.44830000  1
  O  O63  1  0.25000000  0.66830000  0.48090000  1
  O  O64  1  0.75000000  0.33170000  0.51910000  1
  O  O65  1  0.25000000  0.14860000  0.55170000  1
  O  O66  1  0.25000000  0.74230000  0.61220000  1
  O  O67  1  0.58370000  0.86500000  0.64930000  1
  O  O68  1  0.91630000  0.86500000  0.64930000  1
  O  O69  1  0.25000000  0.03770000  0.65440000  1
  O  O70  1  0.58580000  0.25790000  0.70550000  1
  O  O71  1  0.91420000  0.25790000  0.70550000  1
  O  O72  1  0.08580000  0.75790000  0.79450000  1
  O  O73  1  0.41420000  0.75790000  0.79450000  1
  O  O74  1  0.75000000  0.53770000  0.84560000  1
  O  O75  1  0.08370000  0.36500000  0.85070000  1
  O  O76  1  0.41630000  0.36500000  0.85070000  1
  O  O77  1  0.75000000  0.24230000  0.88780000  1
  O  O78  1  0.75000000  0.64860000  0.94830000  1
  O  O79  1  0.25000000  0.83170000  0.98090000  1
