# generated using pymatgen
data_CuH8C14O5
_symmetry_space_group_name_H-M   'P 1'
_cell_length_a   17.06934708
_cell_length_b   17.06934708
_cell_length_c   17.06934708
_cell_angle_alpha   66.18754771
_cell_angle_beta   66.18754771
_cell_angle_gamma   66.18754771
_symmetry_Int_Tables_number   1
_chemical_formula_structural   CuH8C14O5
_chemical_formula_sum   'Cu6 H48 C84 O30'
_cell_volume   3986.76956282
_cell_formula_units_Z   6
loop_
 _symmetry_equiv_pos_site_id
 _symmetry_equiv_pos_as_xyz
  1  'x, y, z'
loop_
 _atom_site_type_symbol
 _atom_site_label
 _atom_site_symmetry_multiplicity
 _atom_site_fract_x
 _atom_site_fract_y
 _atom_site_fract_z
 _atom_site_occupancy
  C  C0  1  0.56680000  0.03645000  0.03645000  1
  C  C1  1  0.50549000  0.97389000  0.97389000  1
  C  C2  1  0.44603000  0.90798000  0.90798000  1
  C  C3  1  0.33332000  0.52325000  0.06597000  1
  C  C4  1  0.33332000  0.06597000  0.52325000  1
  C  C5  1  0.45375000  0.81729000  0.94568000  1
  C  C6  1  0.45375000  0.94568000  0.81729000  1
  C  C7  1  0.76449000  0.89447000  0.46608000  1
  C  C8  1  0.76449000  0.46608000  0.89447000  1
  C  C9  1  0.98370000  0.98370000  0.78750000  1
  C  C10  1  0.98370000  0.78750000  0.98370000  1
  C  C11  1  0.81729000  0.94568000  0.45375000  1
  C  C12  1  0.81729000  0.45375000  0.94568000  1
  C  C13  1  0.46608000  0.76449000  0.89447000  1
  C  C14  1  0.46608000  0.89447000  0.76449000  1
  C  C15  1  0.06597000  0.33332000  0.52325000  1
  C  C16  1  0.06597000  0.52325000  0.33332000  1
  C  C17  1  0.94148000  0.94148000  0.66473000  1
  C  C18  1  0.94148000  0.66473000  0.94148000  1
  C  C19  1  0.65033000  0.99443000  0.99443000  1
  C  C20  1  0.59614000  0.93179000  0.93179000  1
  C  C21  1  0.47063000  0.80403000  0.80403000  1
  C  C22  1  0.80403000  0.80403000  0.47063000  1
  C  C23  1  0.80403000  0.47063000  0.80403000  1
  C  C24  1  0.93179000  0.93179000  0.59614000  1
  C  C25  1  0.93179000  0.59614000  0.93179000  1
  C  C26  1  0.99443000  0.99443000  0.65033000  1
  C  C27  1  0.99443000  0.65033000  0.99443000  1
  C  C28  1  0.47675000  0.66668000  0.93403000  1
  C  C29  1  0.47675000  0.93403000  0.66668000  1
  C  C30  1  0.05432000  0.18271000  0.54625000  1
  C  C31  1  0.05432000  0.54625000  0.18271000  1
  C  C32  1  0.21250000  0.01630000  0.01630000  1
  C  C33  1  0.10553000  0.23551000  0.53392000  1
  C  C34  1  0.10553000  0.53392000  0.23551000  1
  C  C35  1  0.66473000  0.94148000  0.94148000  1
  C  C36  1  0.90798000  0.90798000  0.44603000  1
  C  C37  1  0.90798000  0.44603000  0.90798000  1
  C  C38  1  0.97389000  0.97389000  0.50549000  1
  C  C39  1  0.97389000  0.50549000  0.97389000  1
  C  C40  1  0.03645000  0.03645000  0.56680000  1
  C  C41  1  0.03645000  0.56680000  0.03645000  1
  C  C42  1  0.96355000  0.96355000  0.43320000  1
  C  C43  1  0.96355000  0.43320000  0.96355000  1
  C  C44  1  0.02611000  0.02611000  0.49451000  1
  C  C45  1  0.02611000  0.49451000  0.02611000  1
  C  C46  1  0.09202000  0.09202000  0.55397000  1
  C  C47  1  0.09202000  0.55397000  0.09202000  1
  C  C48  1  0.33527000  0.05852000  0.05852000  1
  C  C49  1  0.89447000  0.76449000  0.46608000  1
  C  C50  1  0.89447000  0.46608000  0.76449000  1
  C  C51  1  0.78750000  0.98370000  0.98370000  1
  C  C52  1  0.94568000  0.81729000  0.45375000  1
  C  C53  1  0.94568000  0.45375000  0.81729000  1
  C  C54  1  0.52325000  0.33332000  0.06597000  1
  C  C55  1  0.52325000  0.06597000  0.33332000  1
  C  C56  1  0.00557000  0.00557000  0.34967000  1
  C  C57  1  0.00557000  0.34967000  0.00557000  1
  C  C58  1  0.06821000  0.06821000  0.40386000  1
  C  C59  1  0.06821000  0.40386000  0.06821000  1
  C  C60  1  0.19597000  0.19597000  0.52937000  1
  C  C61  1  0.19597000  0.52937000  0.19597000  1
  C  C62  1  0.52937000  0.19597000  0.19597000  1
  C  C63  1  0.40386000  0.06821000  0.06821000  1
  C  C64  1  0.34967000  0.00557000  0.00557000  1
  C  C65  1  0.05852000  0.05852000  0.33527000  1
  C  C66  1  0.05852000  0.33527000  0.05852000  1
  C  C67  1  0.93403000  0.47675000  0.66668000  1
  C  C68  1  0.93403000  0.66668000  0.47675000  1
  C  C69  1  0.53392000  0.10553000  0.23551000  1
  C  C70  1  0.53392000  0.23551000  0.10553000  1
  C  C71  1  0.18271000  0.05432000  0.54625000  1
  C  C72  1  0.18271000  0.54625000  0.05432000  1
  C  C73  1  0.01630000  0.01630000  0.21250000  1
  C  C74  1  0.01630000  0.21250000  0.01630000  1
  C  C75  1  0.23551000  0.10553000  0.53392000  1
  C  C76  1  0.23551000  0.53392000  0.10553000  1
  C  C77  1  0.54625000  0.05432000  0.18271000  1
  C  C78  1  0.54625000  0.18271000  0.05432000  1
  C  C79  1  0.66668000  0.47675000  0.93403000  1
  C  C80  1  0.66668000  0.93403000  0.47675000  1
  C  C81  1  0.55397000  0.09202000  0.09202000  1
  C  C82  1  0.49451000  0.02611000  0.02611000  1
  C  C83  1  0.43320000  0.96355000  0.96355000  1
  Cu  Cu84  1  0.07451667  0.50382000  0.50382333  1
  Cu  Cu85  1  0.50382333  0.50382000  0.07451667  1
  Cu  Cu86  1  0.50382333  0.07451333  0.50382333  1
  Cu  Cu87  1  0.49617667  0.49618000  0.92548333  1
  Cu  Cu88  1  0.49617667  0.92548667  0.49617667  1
  Cu  Cu89  1  0.92548333  0.49618000  0.49617667  1
  H  H90  1  0.91470000  0.99890000  0.80950000  1
  H  H91  1  0.91470000  0.80950000  0.99890000  1
  H  H92  1  0.45070000  0.79120000  0.00590000  1
  H  H93  1  0.45070000  0.00590000  0.79120000  1
  H  H94  1  0.79120000  0.00590000  0.45070000  1
  H  H95  1  0.79120000  0.45070000  0.00590000  1
  H  H96  1  0.99895000  0.99895000  0.82540000  1
  H  H97  1  0.99895000  0.82540000  0.99895000  1
  H  H98  1  0.91315000  0.91315000  0.72280000  1
  H  H99  1  0.91315000  0.72280000  0.91315000  1
  H  H100  1  0.99410000  0.20880000  0.54930000  1
  H  H101  1  0.99410000  0.54930000  0.20880000  1
  H  H102  1  0.99890000  0.91470000  0.80950000  1
  H  H103  1  0.99890000  0.80950000  0.91470000  1
  H  H104  1  0.89660000  0.89660000  0.60730000  1
  H  H105  1  0.89660000  0.60730000  0.89660000  1
  H  H106  1  0.76995000  0.76995000  0.47660000  1
  H  H107  1  0.76995000  0.47660000  0.76995000  1
  H  H108  1  0.19050000  0.00110000  0.08530000  1
  H  H109  1  0.19050000  0.08530000  0.00110000  1
  H  H110  1  0.17460000  0.00105000  0.00105000  1
  H  H111  1  0.27720000  0.08685000  0.08685000  1
  H  H112  1  0.47660000  0.76995000  0.76995000  1
  H  H113  1  0.60730000  0.89660000  0.89660000  1
  H  H114  1  0.39270000  0.10340000  0.10340000  1
  H  H115  1  0.52340000  0.23005000  0.23005000  1
  H  H116  1  0.72280000  0.91315000  0.91315000  1
  H  H117  1  0.82540000  0.99895000  0.99895000  1
  H  H118  1  0.80950000  0.91470000  0.99890000  1
  H  H119  1  0.80950000  0.99890000  0.91470000  1
  H  H120  1  0.23005000  0.23005000  0.52340000  1
  H  H121  1  0.23005000  0.52340000  0.23005000  1
  H  H122  1  0.10340000  0.10340000  0.39270000  1
  H  H123  1  0.10340000  0.39270000  0.10340000  1
  H  H124  1  0.00110000  0.08530000  0.19050000  1
  H  H125  1  0.00110000  0.19050000  0.08530000  1
  H  H126  1  0.00590000  0.79120000  0.45070000  1
  H  H127  1  0.00590000  0.45070000  0.79120000  1
  H  H128  1  0.08685000  0.08685000  0.27720000  1
  H  H129  1  0.08685000  0.27720000  0.08685000  1
  H  H130  1  0.00105000  0.00105000  0.17460000  1
  H  H131  1  0.00105000  0.17460000  0.00105000  1
  H  H132  1  0.20880000  0.99410000  0.54930000  1
  H  H133  1  0.20880000  0.54930000  0.99410000  1
  H  H134  1  0.54930000  0.99410000  0.20880000  1
  H  H135  1  0.54930000  0.20880000  0.99410000  1
  H  H136  1  0.08530000  0.00110000  0.19050000  1
  H  H137  1  0.08530000  0.19050000  0.00110000  1
  O  O138  1  0.98739000  0.36754000  0.51625000  1
  O  O139  1  0.98739000  0.51625000  0.36754000  1
  O  O140  1  0.37466000  0.52157000  0.11280000  1
  O  O141  1  0.37466000  0.11280000  0.52157000  1
  O  O142  1  0.36754000  0.51625000  0.98739000  1
  O  O143  1  0.36754000  0.98739000  0.51625000  1
  O  O144  1  0.00550000  0.00550000  0.71900000  1
  O  O145  1  0.00550000  0.71900000  0.00550000  1
  O  O146  1  0.48375000  0.63246000  0.01261000  1
  O  O147  1  0.48375000  0.01261000  0.63246000  1
  O  O148  1  0.11280000  0.37466000  0.52157000  1
  O  O149  1  0.11280000  0.52157000  0.37466000  1
  O  O150  1  0.71900000  0.00550000  0.00550000  1
  O  O151  1  0.47843000  0.62534000  0.88720000  1
  O  O152  1  0.47843000  0.88720000  0.62534000  1
  O  O153  1  0.52157000  0.37466000  0.11280000  1
  O  O154  1  0.52157000  0.11280000  0.37466000  1
  O  O155  1  0.28100000  0.99450000  0.99450000  1
  O  O156  1  0.88720000  0.47843000  0.62534000  1
  O  O157  1  0.88720000  0.62534000  0.47843000  1
  O  O158  1  0.51625000  0.36754000  0.98739000  1
  O  O159  1  0.51625000  0.98739000  0.36754000  1
  O  O160  1  0.99450000  0.99450000  0.28100000  1
  O  O161  1  0.99450000  0.28100000  0.99450000  1
  O  O162  1  0.63246000  0.48375000  0.01261000  1
  O  O163  1  0.63246000  0.01261000  0.48375000  1
  O  O164  1  0.62534000  0.47843000  0.88720000  1
  O  O165  1  0.62534000  0.88720000  0.47843000  1
  O  O166  1  0.01261000  0.48375000  0.63246000  1
  O  O167  1  0.01261000  0.63246000  0.48375000  1
