# generated using pymatgen
data_Fe3H48C66O13
_symmetry_space_group_name_H-M   'P 1'
_cell_length_a   11.87000000
_cell_length_b   24.76300000
_cell_length_c   31.33800000
_cell_angle_alpha   90.00000000
_cell_angle_beta   90.00000000
_cell_angle_gamma   90.00000000
_symmetry_Int_Tables_number   1
_chemical_formula_structural   Fe3H48C66O13
_chemical_formula_sum   'Fe12 H192 C264 O52'
_cell_volume   9211.39175178
_cell_formula_units_Z   4
loop_
 _symmetry_equiv_pos_site_id
 _symmetry_equiv_pos_as_xyz
  1  'x, y, z'
loop_
 _atom_site_type_symbol
 _atom_site_label
 _atom_site_symmetry_multiplicity
 _atom_site_fract_x
 _atom_site_fract_y
 _atom_site_fract_z
 _atom_site_occupancy
  Fe  Fe0  1  0.99182000  0.01896000  0.25000000  1
  Fe  Fe1  1  0.95453000  0.88885000  0.25000000  1
  Fe  Fe2  1  0.78509000  0.06166000  0.75000000  1
  Fe  Fe3  1  0.71491000  0.56166000  0.25000000  1
  Fe  Fe4  1  0.54547000  0.38885000  0.75000000  1
  Fe  Fe5  1  0.50818000  0.51896000  0.75000000  1
  Fe  Fe6  1  0.49182000  0.48104000  0.25000000  1
  Fe  Fe7  1  0.45453000  0.61115000  0.25000000  1
  Fe  Fe8  1  0.28509000  0.43834000  0.75000000  1
  Fe  Fe9  1  0.21491000  0.93834000  0.25000000  1
  Fe  Fe10  1  0.04547000  0.11115000  0.75000000  1
  Fe  Fe11  1  0.00818000  0.98104000  0.75000000  1
  H  H12  1  0.98530000  0.62720000  0.95530000  1
  H  H13  1  0.98530000  0.62720000  0.54470000  1
  H  H14  1  0.98510000  0.23880000  0.83700000  1
  H  H15  1  0.98510000  0.23880000  0.66300000  1
  H  H16  1  0.96370000  0.79480000  0.44530000  1
  H  H17  1  0.96370000  0.79480000  0.05470000  1
  H  H18  1  0.96330000  0.32610000  0.42570000  1
  H  H19  1  0.96330000  0.32610000  0.07430000  1
  H  H20  1  0.95950000  0.68920000  0.96580000  1
  H  H21  1  0.95950000  0.68920000  0.53420000  1
  H  H22  1  0.95460000  0.28740000  0.97110000  1
  H  H23  1  0.95460000  0.28740000  0.52890000  1
  H  H24  1  0.95090000  0.29940000  0.89250000  1
  H  H25  1  0.95090000  0.29940000  0.60750000  1
  H  H26  1  0.95090000  0.85810000  0.43640000  1
  H  H27  1  0.95090000  0.85810000  0.06360000  1
  H  H28  1  0.93780000  0.61410000  0.44360000  1
  H  H29  1  0.93780000  0.61410000  0.05640000  1
  H  H30  1  0.92320000  0.88820000  0.85210000  1
  H  H31  1  0.92320000  0.88820000  0.64790000  1
  H  H32  1  0.90950000  0.56630000  0.41100000  1
  H  H33  1  0.90950000  0.56630000  0.08900000  1
  H  H34  1  0.89500000  0.43660000  0.43170000  1
  H  H35  1  0.89500000  0.43660000  0.06830000  1
  H  H36  1  0.89090000  0.81540000  0.40560000  1
  H  H37  1  0.89090000  0.81540000  0.09440000  1
  H  H38  1  0.88480000  0.84470000  0.91660000  1
  H  H39  1  0.88480000  0.84470000  0.58340000  1
  H  H40  1  0.88470000  0.87090000  0.99180000  1
  H  H41  1  0.88470000  0.87090000  0.50820000  1
  H  H42  1  0.87240000  0.56040000  0.90590000  1
  H  H43  1  0.87240000  0.56040000  0.59410000  1
  H  H44  1  0.85820000  0.39880000  0.92570000  1
  H  H45  1  0.85820000  0.39880000  0.57430000  1
  H  H46  1  0.85690000  0.48020000  0.36700000  1
  H  H47  1  0.85690000  0.48020000  0.13300000  1
  H  H48  1  0.83340000  0.71710000  0.42290000  1
  H  H49  1  0.83340000  0.71710000  0.07710000  1
  H  H50  1  0.83190000  0.54540000  0.98510000  1
  H  H51  1  0.83190000  0.54540000  0.51490000  1
  H  H52  1  0.82110000  0.58200000  0.44750000  1
  H  H53  1  0.82110000  0.58200000  0.05250000  1
  H  H54  1  0.79930000  0.65650000  0.36710000  1
  H  H55  1  0.79930000  0.65650000  0.13290000  1
  H  H56  1  0.76100000  0.55100000  0.84510000  1
  H  H57  1  0.76100000  0.55100000  0.65490000  1
  H  H58  1  0.75190000  0.88930000  0.36440000  1
  H  H59  1  0.75190000  0.88930000  0.13560000  1
  H  H60  1  0.74810000  0.38930000  0.86440000  1
  H  H61  1  0.74810000  0.38930000  0.63560000  1
  H  H62  1  0.73900000  0.05100000  0.34510000  1
  H  H63  1  0.73900000  0.05100000  0.15490000  1
  H  H64  1  0.70070000  0.15650000  0.86710000  1
  H  H65  1  0.70070000  0.15650000  0.63290000  1
  H  H66  1  0.67890000  0.08200000  0.94750000  1
  H  H67  1  0.67890000  0.08200000  0.55250000  1
  H  H68  1  0.66810000  0.04540000  0.48510000  1
  H  H69  1  0.66810000  0.04540000  0.01490000  1
  H  H70  1  0.66660000  0.21710000  0.92290000  1
  H  H71  1  0.66660000  0.21710000  0.57710000  1
  H  H72  1  0.64310000  0.98020000  0.86700000  1
  H  H73  1  0.64310000  0.98020000  0.63300000  1
  H  H74  1  0.64180000  0.89880000  0.42570000  1
  H  H75  1  0.64180000  0.89880000  0.07430000  1
  H  H76  1  0.62760000  0.06040000  0.40590000  1
  H  H77  1  0.62760000  0.06040000  0.09410000  1
  H  H78  1  0.61530000  0.37090000  0.49180000  1
  H  H79  1  0.61530000  0.37090000  0.00820000  1
  H  H80  1  0.61520000  0.34470000  0.41660000  1
  H  H81  1  0.61520000  0.34470000  0.08340000  1
  H  H82  1  0.60910000  0.31540000  0.90560000  1
  H  H83  1  0.60910000  0.31540000  0.59440000  1
  H  H84  1  0.60500000  0.93660000  0.93170000  1
  H  H85  1  0.60500000  0.93660000  0.56830000  1
  H  H86  1  0.59050000  0.06630000  0.91100000  1
  H  H87  1  0.59050000  0.06630000  0.58900000  1
  H  H88  1  0.57680000  0.38820000  0.35210000  1
  H  H89  1  0.57680000  0.38820000  0.14790000  1
  H  H90  1  0.56220000  0.11410000  0.94360000  1
  H  H91  1  0.56220000  0.11410000  0.55640000  1
  H  H92  1  0.54910000  0.35810000  0.93640000  1
  H  H93  1  0.54910000  0.35810000  0.56360000  1
  H  H94  1  0.54910000  0.79940000  0.39250000  1
  H  H95  1  0.54910000  0.79940000  0.10750000  1
  H  H96  1  0.54540000  0.78740000  0.47110000  1
  H  H97  1  0.54540000  0.78740000  0.02890000  1
  H  H98  1  0.54050000  0.18920000  0.46580000  1
  H  H99  1  0.54050000  0.18920000  0.03420000  1
  H  H100  1  0.53670000  0.82610000  0.92570000  1
  H  H101  1  0.53670000  0.82610000  0.57430000  1
  H  H102  1  0.53630000  0.29480000  0.94530000  1
  H  H103  1  0.53630000  0.29480000  0.55470000  1
  H  H104  1  0.51490000  0.73880000  0.33700000  1
  H  H105  1  0.51490000  0.73880000  0.16300000  1
  H  H106  1  0.51470000  0.12720000  0.45530000  1
  H  H107  1  0.51470000  0.12720000  0.04470000  1
  H  H108  1  0.48530000  0.87280000  0.95530000  1
  H  H109  1  0.48530000  0.87280000  0.54470000  1
  H  H110  1  0.48510000  0.26120000  0.83700000  1
  H  H111  1  0.48510000  0.26120000  0.66300000  1
  H  H112  1  0.46370000  0.70520000  0.44530000  1
  H  H113  1  0.46370000  0.70520000  0.05470000  1
  H  H114  1  0.46330000  0.17390000  0.42570000  1
  H  H115  1  0.46330000  0.17390000  0.07430000  1
  H  H116  1  0.45950000  0.81080000  0.96580000  1
  H  H117  1  0.45950000  0.81080000  0.53420000  1
  H  H118  1  0.45460000  0.21260000  0.97110000  1
  H  H119  1  0.45460000  0.21260000  0.52890000  1
  H  H120  1  0.45090000  0.20060000  0.89250000  1
  H  H121  1  0.45090000  0.20060000  0.60750000  1
  H  H122  1  0.45090000  0.64190000  0.43640000  1
  H  H123  1  0.45090000  0.64190000  0.06360000  1
  H  H124  1  0.43780000  0.88590000  0.44360000  1
  H  H125  1  0.43780000  0.88590000  0.05640000  1
  H  H126  1  0.42320000  0.61180000  0.85210000  1
  H  H127  1  0.42320000  0.61180000  0.64790000  1
  H  H128  1  0.40950000  0.93370000  0.41100000  1
  H  H129  1  0.40950000  0.93370000  0.08900000  1
  H  H130  1  0.39500000  0.06340000  0.43170000  1
  H  H131  1  0.39500000  0.06340000  0.06830000  1
  H  H132  1  0.39090000  0.68460000  0.40560000  1
  H  H133  1  0.39090000  0.68460000  0.09440000  1
  H  H134  1  0.38480000  0.65530000  0.91660000  1
  H  H135  1  0.38480000  0.65530000  0.58340000  1
  H  H136  1  0.38470000  0.62910000  0.99180000  1
  H  H137  1  0.38470000  0.62910000  0.50820000  1
  H  H138  1  0.37240000  0.93960000  0.90590000  1
  H  H139  1  0.37240000  0.93960000  0.59410000  1
  H  H140  1  0.35820000  0.10120000  0.92570000  1
  H  H141  1  0.35820000  0.10120000  0.57430000  1
  H  H142  1  0.35690000  0.01980000  0.36700000  1
  H  H143  1  0.35690000  0.01980000  0.13300000  1
  H  H144  1  0.33333333  0.78290000  0.42290000  1
  H  H145  1  0.33333333  0.78290000  0.07710000  1
  H  H146  1  0.33190000  0.95460000  0.98510000  1
  H  H147  1  0.33190000  0.95460000  0.51490000  1
  H  H148  1  0.32110000  0.91800000  0.44750000  1
  H  H149  1  0.32110000  0.91800000  0.05250000  1
  H  H150  1  0.29930000  0.84350000  0.36710000  1
  H  H151  1  0.29930000  0.84350000  0.13290000  1
  H  H152  1  0.26100000  0.94900000  0.84510000  1
  H  H153  1  0.26100000  0.94900000  0.65490000  1
  H  H154  1  0.25190000  0.61070000  0.36440000  1
  H  H155  1  0.25190000  0.61070000  0.13560000  1
  H  H156  1  0.24810000  0.11070000  0.86440000  1
  H  H157  1  0.24810000  0.11070000  0.63560000  1
  H  H158  1  0.23900000  0.44900000  0.34510000  1
  H  H159  1  0.23900000  0.44900000  0.15490000  1
  H  H160  1  0.20070000  0.34350000  0.86710000  1
  H  H161  1  0.20070000  0.34350000  0.63290000  1
  H  H162  1  0.17890000  0.41800000  0.94750000  1
  H  H163  1  0.17890000  0.41800000  0.55250000  1
  H  H164  1  0.16810000  0.45460000  0.48510000  1
  H  H165  1  0.16810000  0.45460000  0.01490000  1
  H  H166  1  0.16660000  0.28290000  0.92290000  1
  H  H167  1  0.16660000  0.28290000  0.57710000  1
  H  H168  1  0.14310000  0.51980000  0.86700000  1
  H  H169  1  0.14310000  0.51980000  0.63300000  1
  H  H170  1  0.14180000  0.60120000  0.42570000  1
  H  H171  1  0.14180000  0.60120000  0.07430000  1
  H  H172  1  0.12760000  0.43960000  0.40590000  1
  H  H173  1  0.12760000  0.43960000  0.09410000  1
  H  H174  1  0.11530000  0.12910000  0.49180000  1
  H  H175  1  0.11530000  0.12910000  0.00820000  1
  H  H176  1  0.11520000  0.15530000  0.41660000  1
  H  H177  1  0.11520000  0.15530000  0.08340000  1
  H  H178  1  0.10910000  0.18460000  0.90560000  1
  H  H179  1  0.10910000  0.18460000  0.59440000  1
  H  H180  1  0.10500000  0.56340000  0.93170000  1
  H  H181  1  0.10500000  0.56340000  0.56830000  1
  H  H182  1  0.09050000  0.43370000  0.91100000  1
  H  H183  1  0.09050000  0.43370000  0.58900000  1
  H  H184  1  0.07680000  0.11180000  0.35210000  1
  H  H185  1  0.07680000  0.11180000  0.14790000  1
  H  H186  1  0.06220000  0.38590000  0.94360000  1
  H  H187  1  0.06220000  0.38590000  0.55640000  1
  H  H188  1  0.04910000  0.14190000  0.93640000  1
  H  H189  1  0.04910000  0.14190000  0.56360000  1
  H  H190  1  0.04910000  0.70060000  0.39250000  1
  H  H191  1  0.04910000  0.70060000  0.10750000  1
  H  H192  1  0.04540000  0.71260000  0.47110000  1
  H  H193  1  0.04540000  0.71260000  0.02890000  1
  H  H194  1  0.04050000  0.31080000  0.46580000  1
  H  H195  1  0.04050000  0.31080000  0.03420000  1
  H  H196  1  0.03670000  0.67390000  0.92570000  1
  H  H197  1  0.03670000  0.67390000  0.57430000  1
  H  H198  1  0.03630000  0.20520000  0.94530000  1
  H  H199  1  0.03630000  0.20520000  0.55470000  1
  H  H200  1  0.01490000  0.76120000  0.33700000  1
  H  H201  1  0.01490000  0.76120000  0.16300000  1
  H  H202  1  0.01470000  0.37280000  0.45530000  1
  H  H203  1  0.01470000  0.37280000  0.04470000  1
  C  C204  1  0.98380000  0.33610000  0.45500000  1
  C  C205  1  0.98380000  0.33610000  0.04500000  1
  C  C206  1  0.95760000  0.53760000  0.47107000  1
  C  C207  1  0.95760000  0.53760000  0.02893000  1
  C  C208  1  0.94210000  0.48950000  0.96224000  1
  C  C209  1  0.94210000  0.48950000  0.53776000  1
  C  C210  1  0.92040000  0.23440000  0.85444000  1
  C  C211  1  0.92040000  0.23440000  0.64556000  1
  C  C212  1  0.91270000  0.82310000  0.43510000  1
  C  C213  1  0.91270000  0.82310000  0.06490000  1
  C  C214  1  0.90130000  0.57880000  0.44050000  1
  C  C215  1  0.90130000  0.57880000  0.05950000  1
  C  C216  1  0.90030000  0.27040000  0.88745000  1
  C  C217  1  0.90030000  0.27040000  0.61255000  1
  C  C218  1  0.90020000  0.52690000  0.99112000  1
  C  C219  1  0.90020000  0.52690000  0.50888000  1
  C  C220  1  0.88570000  0.30440000  0.97877000  1
  C  C221  1  0.88570000  0.30440000  0.52123000  1
  C  C222  1  0.87870000  0.33380000  0.48347000  1
  C  C223  1  0.87870000  0.33380000  0.01653000  1
  C  C224  1  0.87510000  0.48070000  0.92212000  1
  C  C225  1  0.87510000  0.48070000  0.57788000  1
  C  C226  1  0.87090000  0.15180000  0.81080000  1
  C  C227  1  0.87090000  0.15180000  0.68920000  1
  C  C228  1  0.85860000  0.89800000  0.86821000  1
  C  C229  1  0.85860000  0.89800000  0.63179000  1
  C  C230  1  0.84660000  0.52570000  0.89770000  1
  C  C231  1  0.84660000  0.52570000  0.60230000  1
  C  C232  1  0.84620000  0.19190000  0.84665000  1
  C  C233  1  0.84620000  0.19190000  0.65335000  1
  C  C234  1  0.83850000  0.42970000  0.90940000  1
  C  C235  1  0.83850000  0.42970000  0.59060000  1
  C  C236  1  0.83570000  0.87220000  0.90656000  1
  C  C237  1  0.83570000  0.87220000  0.59344000  1
  C  C238  1  0.83380000  0.96230000  0.31090000  1
  C  C239  1  0.83380000  0.96230000  0.18910000  1
  C  C240  1  0.83050000  0.42670000  0.41552000  1
  C  C241  1  0.83050000  0.42670000  0.08448000  1
  C  C242  1  0.81790000  0.96710000  0.81300000  1
  C  C243  1  0.81790000  0.96710000  0.68700000  1
  C  C244  1  0.81570000  0.85390000  0.99932000  1
  C  C245  1  0.81570000  0.85390000  0.50068000  1
  C  C246  1  0.80880000  0.82450000  0.46288000  1
  C  C247  1  0.80880000  0.82450000  0.03712000  1
  C  C248  1  0.80790000  0.45270000  0.37710000  1
  C  C249  1  0.80790000  0.45270000  0.12290000  1
  C  C250  1  0.80590000  0.26400000  0.91319000  1
  C  C251  1  0.80590000  0.26400000  0.58681000  1
  C  C252  1  0.79240000  0.29980000  0.95219000  1
  C  C253  1  0.79240000  0.29980000  0.54781000  1
  C  C254  1  0.78670000  0.93840000  0.85336000  1
  C  C255  1  0.78670000  0.93840000  0.64664000  1
  C  C256  1  0.78090000  0.52010000  0.86140000  1
  C  C257  1  0.78090000  0.52010000  0.63860000  1
  C  C258  1  0.77730000  0.35860000  0.47227000  1
  C  C259  1  0.77730000  0.35860000  0.02773000  1
  C  C260  1  0.77310000  0.42410000  0.87290000  1
  C  C261  1  0.77310000  0.42410000  0.62710000  1
  C  C262  1  0.76860000  0.72140000  0.40543000  1
  C  C263  1  0.76860000  0.72140000  0.09457000  1
  C  C264  1  0.75880000  0.38640000  0.43034000  1
  C  C265  1  0.75880000  0.38640000  0.06966000  1
  C  C266  1  0.75590000  0.96900000  0.34877000  1
  C  C267  1  0.75590000  0.96900000  0.15123000  1
  C  C268  1  0.75150000  0.18550000  0.87227000  1
  C  C269  1  0.75150000  0.18550000  0.62773000  1
  C  C270  1  0.74850000  0.68550000  0.37227000  1
  C  C271  1  0.74850000  0.68550000  0.12773000  1
  C  C272  1  0.74410000  0.46900000  0.84877000  1
  C  C273  1  0.74410000  0.46900000  0.65123000  1
  C  C274  1  0.74120000  0.88640000  0.93034000  1
  C  C275  1  0.74120000  0.88640000  0.56966000  1
  C  C276  1  0.73140000  0.22140000  0.90543000  1
  C  C277  1  0.73140000  0.22140000  0.59457000  1
  C  C278  1  0.72690000  0.92410000  0.37290000  1
  C  C279  1  0.72690000  0.92410000  0.12710000  1
  C  C280  1  0.72270000  0.85860000  0.97227000  1
  C  C281  1  0.72270000  0.85860000  0.52773000  1
  C  C282  1  0.71910000  0.02010000  0.36140000  1
  C  C283  1  0.71910000  0.02010000  0.13860000  1
  C  C284  1  0.71330000  0.43840000  0.35336000  1
  C  C285  1  0.71330000  0.43840000  0.14664000  1
  C  C286  1  0.70760000  0.79980000  0.45219000  1
  C  C287  1  0.70760000  0.79980000  0.04781000  1
  C  C288  1  0.69410000  0.76400000  0.41319000  1
  C  C289  1  0.69410000  0.76400000  0.08681000  1
  C  C290  1  0.69210000  0.95270000  0.87710000  1
  C  C291  1  0.69210000  0.95270000  0.62290000  1
  C  C292  1  0.69120000  0.32450000  0.96288000  1
  C  C293  1  0.69120000  0.32450000  0.53712000  1
  C  C294  1  0.68430000  0.35390000  0.49932000  1
  C  C295  1  0.68430000  0.35390000  0.00068000  1
  C  C296  1  0.68210000  0.46710000  0.31300000  1
  C  C297  1  0.68210000  0.46710000  0.18700000  1
  C  C298  1  0.66950000  0.92670000  0.91552000  1
  C  C299  1  0.66950000  0.92670000  0.58448000  1
  C  C300  1  0.66620000  0.46230000  0.81090000  1
  C  C301  1  0.66620000  0.46230000  0.68910000  1
  C  C302  1  0.66430000  0.37220000  0.40656000  1
  C  C303  1  0.66430000  0.37220000  0.09344000  1
  C  C304  1  0.66150000  0.92970000  0.40940000  1
  C  C305  1  0.66150000  0.92970000  0.09060000  1
  C  C306  1  0.65380000  0.69190000  0.34665000  1
  C  C307  1  0.65380000  0.69190000  0.15335000  1
  C  C308  1  0.65340000  0.02570000  0.39770000  1
  C  C309  1  0.65340000  0.02570000  0.10230000  1
  C  C310  1  0.64140000  0.39800000  0.36821000  1
  C  C311  1  0.64140000  0.39800000  0.13179000  1
  C  C312  1  0.62910000  0.65180000  0.31080000  1
  C  C313  1  0.62910000  0.65180000  0.18920000  1
  C  C314  1  0.62490000  0.98070000  0.42212000  1
  C  C315  1  0.62490000  0.98070000  0.07788000  1
  C  C316  1  0.62130000  0.83380000  0.98347000  1
  C  C317  1  0.62130000  0.83380000  0.51653000  1
  C  C318  1  0.61430000  0.80440000  0.47877000  1
  C  C319  1  0.61430000  0.80440000  0.02123000  1
  C  C320  1  0.59980000  0.02690000  0.49112000  1
  C  C321  1  0.59980000  0.02690000  0.00888000  1
  C  C322  1  0.59970000  0.77040000  0.38745000  1
  C  C323  1  0.59970000  0.77040000  0.11255000  1
  C  C324  1  0.59870000  0.07880000  0.94050000  1
  C  C325  1  0.59870000  0.07880000  0.55950000  1
  C  C326  1  0.58730000  0.32310000  0.93510000  1
  C  C327  1  0.58730000  0.32310000  0.56490000  1
  C  C328  1  0.57960000  0.73440000  0.35444000  1
  C  C329  1  0.57960000  0.73440000  0.14556000  1
  C  C330  1  0.55790000  0.98950000  0.46224000  1
  C  C331  1  0.55790000  0.98950000  0.03776000  1
  C  C332  1  0.54240000  0.03760000  0.97107000  1
  C  C333  1  0.54240000  0.03760000  0.52893000  1
  C  C334  1  0.51620000  0.83610000  0.95500000  1
  C  C335  1  0.51620000  0.83610000  0.54500000  1
  C  C336  1  0.48380000  0.16390000  0.45500000  1
  C  C337  1  0.48380000  0.16390000  0.04500000  1
  C  C338  1  0.45760000  0.96240000  0.47107000  1
  C  C339  1  0.45760000  0.96240000  0.02893000  1
  C  C340  1  0.44210000  0.01050000  0.96224000  1
  C  C341  1  0.44210000  0.01050000  0.53776000  1
  C  C342  1  0.42040000  0.26560000  0.85444000  1
  C  C343  1  0.42040000  0.26560000  0.64556000  1
  C  C344  1  0.41270000  0.67690000  0.43510000  1
  C  C345  1  0.41270000  0.67690000  0.06490000  1
  C  C346  1  0.40130000  0.92120000  0.44050000  1
  C  C347  1  0.40130000  0.92120000  0.05950000  1
  C  C348  1  0.40030000  0.22960000  0.88745000  1
  C  C349  1  0.40030000  0.22960000  0.61255000  1
  C  C350  1  0.40020000  0.97310000  0.99112000  1
  C  C351  1  0.40020000  0.97310000  0.50888000  1
  C  C352  1  0.38570000  0.19560000  0.97877000  1
  C  C353  1  0.38570000  0.19560000  0.52123000  1
  C  C354  1  0.37870000  0.16620000  0.48347000  1
  C  C355  1  0.37870000  0.16620000  0.01653000  1
  C  C356  1  0.37510000  0.01930000  0.92212000  1
  C  C357  1  0.37510000  0.01930000  0.57788000  1
  C  C358  1  0.37090000  0.34820000  0.81080000  1
  C  C359  1  0.37090000  0.34820000  0.68920000  1
  C  C360  1  0.35860000  0.60200000  0.86821000  1
  C  C361  1  0.35860000  0.60200000  0.63179000  1
  C  C362  1  0.34660000  0.97430000  0.89770000  1
  C  C363  1  0.34660000  0.97430000  0.60230000  1
  C  C364  1  0.34620000  0.30810000  0.84665000  1
  C  C365  1  0.34620000  0.30810000  0.65335000  1
  C  C366  1  0.33850000  0.07030000  0.90940000  1
  C  C367  1  0.33850000  0.07030000  0.59060000  1
  C  C368  1  0.33570000  0.62780000  0.90656000  1
  C  C369  1  0.33570000  0.62780000  0.59344000  1
  C  C370  1  0.33380000  0.53770000  0.31090000  1
  C  C371  1  0.33380000  0.53770000  0.18910000  1
  C  C372  1  0.33050000  0.07330000  0.41552000  1
  C  C373  1  0.33050000  0.07330000  0.08448000  1
  C  C374  1  0.31790000  0.53290000  0.81300000  1
  C  C375  1  0.31790000  0.53290000  0.68700000  1
  C  C376  1  0.31570000  0.64610000  0.99932000  1
  C  C377  1  0.31570000  0.64610000  0.50068000  1
  C  C378  1  0.30880000  0.67550000  0.46288000  1
  C  C379  1  0.30880000  0.67550000  0.03712000  1
  C  C380  1  0.30790000  0.04730000  0.37710000  1
  C  C381  1  0.30790000  0.04730000  0.12290000  1
  C  C382  1  0.30590000  0.23600000  0.91319000  1
  C  C383  1  0.30590000  0.23600000  0.58681000  1
  C  C384  1  0.29240000  0.20020000  0.95219000  1
  C  C385  1  0.29240000  0.20020000  0.54781000  1
  C  C386  1  0.28670000  0.56160000  0.85336000  1
  C  C387  1  0.28670000  0.56160000  0.64664000  1
  C  C388  1  0.28090000  0.97990000  0.86140000  1
  C  C389  1  0.28090000  0.97990000  0.63860000  1
  C  C390  1  0.27730000  0.14140000  0.47227000  1
  C  C391  1  0.27730000  0.14140000  0.02773000  1
  C  C392  1  0.27310000  0.07590000  0.87290000  1
  C  C393  1  0.27310000  0.07590000  0.62710000  1
  C  C394  1  0.26860000  0.77860000  0.40543000  1
  C  C395  1  0.26860000  0.77860000  0.09457000  1
  C  C396  1  0.25880000  0.11360000  0.43034000  1
  C  C397  1  0.25880000  0.11360000  0.06966000  1
  C  C398  1  0.25590000  0.53100000  0.34877000  1
  C  C399  1  0.25590000  0.53100000  0.15123000  1
  C  C400  1  0.25150000  0.31450000  0.87227000  1
  C  C401  1  0.25150000  0.31450000  0.62773000  1
  C  C402  1  0.24850000  0.81450000  0.37227000  1
  C  C403  1  0.24850000  0.81450000  0.12773000  1
  C  C404  1  0.24410000  0.03100000  0.84877000  1
  C  C405  1  0.24410000  0.03100000  0.65123000  1
  C  C406  1  0.24120000  0.61360000  0.93034000  1
  C  C407  1  0.24120000  0.61360000  0.56966000  1
  C  C408  1  0.23140000  0.27860000  0.90543000  1
  C  C409  1  0.23140000  0.27860000  0.59457000  1
  C  C410  1  0.22690000  0.57590000  0.37290000  1
  C  C411  1  0.22690000  0.57590000  0.12710000  1
  C  C412  1  0.22270000  0.64140000  0.97227000  1
  C  C413  1  0.22270000  0.64140000  0.52773000  1
  C  C414  1  0.21910000  0.47990000  0.36140000  1
  C  C415  1  0.21910000  0.47990000  0.13860000  1
  C  C416  1  0.21330000  0.06160000  0.35336000  1
  C  C417  1  0.21330000  0.06160000  0.14664000  1
  C  C418  1  0.20760000  0.70020000  0.45219000  1
  C  C419  1  0.20760000  0.70020000  0.04781000  1
  C  C420  1  0.19410000  0.73600000  0.41319000  1
  C  C421  1  0.19410000  0.73600000  0.08681000  1
  C  C422  1  0.19210000  0.54730000  0.87710000  1
  C  C423  1  0.19210000  0.54730000  0.62290000  1
  C  C424  1  0.19120000  0.17550000  0.96288000  1
  C  C425  1  0.19120000  0.17550000  0.53712000  1
  C  C426  1  0.18430000  0.14610000  0.49932000  1
  C  C427  1  0.18430000  0.14610000  0.00068000  1
  C  C428  1  0.18210000  0.03290000  0.31300000  1
  C  C429  1  0.18210000  0.03290000  0.18700000  1
  C  C430  1  0.16950000  0.57330000  0.91552000  1
  C  C431  1  0.16950000  0.57330000  0.58448000  1
  C  C432  1  0.16620000  0.03770000  0.81090000  1
  C  C433  1  0.16620000  0.03770000  0.68910000  1
  C  C434  1  0.16430000  0.12780000  0.40656000  1
  C  C435  1  0.16430000  0.12780000  0.09344000  1
  C  C436  1  0.16150000  0.57030000  0.40940000  1
  C  C437  1  0.16150000  0.57030000  0.09060000  1
  C  C438  1  0.15380000  0.80810000  0.34665000  1
  C  C439  1  0.15380000  0.80810000  0.15335000  1
  C  C440  1  0.15340000  0.47430000  0.39770000  1
  C  C441  1  0.15340000  0.47430000  0.10230000  1
  C  C442  1  0.14140000  0.10200000  0.36821000  1
  C  C443  1  0.14140000  0.10200000  0.13179000  1
  C  C444  1  0.12910000  0.84820000  0.31080000  1
  C  C445  1  0.12910000  0.84820000  0.18920000  1
  C  C446  1  0.12490000  0.51930000  0.42212000  1
  C  C447  1  0.12490000  0.51930000  0.07788000  1
  C  C448  1  0.12130000  0.66620000  0.98347000  1
  C  C449  1  0.12130000  0.66620000  0.51653000  1
  C  C450  1  0.11430000  0.69560000  0.47877000  1
  C  C451  1  0.11430000  0.69560000  0.02123000  1
  C  C452  1  0.09980000  0.47310000  0.49112000  1
  C  C453  1  0.09980000  0.47310000  0.00888000  1
  C  C454  1  0.09970000  0.72960000  0.38745000  1
  C  C455  1  0.09970000  0.72960000  0.11255000  1
  C  C456  1  0.09870000  0.42120000  0.94050000  1
  C  C457  1  0.09870000  0.42120000  0.55950000  1
  C  C458  1  0.08730000  0.17690000  0.93510000  1
  C  C459  1  0.08730000  0.17690000  0.56490000  1
  C  C460  1  0.07960000  0.76560000  0.35444000  1
  C  C461  1  0.07960000  0.76560000  0.14556000  1
  C  C462  1  0.05790000  0.51050000  0.46224000  1
  C  C463  1  0.05790000  0.51050000  0.03776000  1
  C  C464  1  0.04240000  0.46240000  0.97107000  1
  C  C465  1  0.04240000  0.46240000  0.52893000  1
  C  C466  1  0.01620000  0.66390000  0.95500000  1
  C  C467  1  0.01620000  0.66390000  0.54500000  1
  O  O468  1  0.96600000  0.15440000  0.79491000  1
  O  O469  1  0.96600000  0.15440000  0.70509000  1
  O  O470  1  0.95090000  0.05170000  0.75000000  1
  O  O471  1  0.90970000  0.95200000  0.79603000  1
  O  O472  1  0.90970000  0.95200000  0.70397000  1
  O  O473  1  0.87180000  0.00530000  0.29516000  1
  O  O474  1  0.87180000  0.00530000  0.20484000  1
  O  O475  1  0.85070000  0.91550000  0.29683000  1
  O  O476  1  0.85070000  0.91550000  0.20317000  1
  O  O477  1  0.79360000  0.12130000  0.79910000  1
  O  O478  1  0.79360000  0.12130000  0.70090000  1
  O  O479  1  0.75370000  0.00430000  0.79973000  1
  O  O480  1  0.75370000  0.00430000  0.70027000  1
  O  O481  1  0.74630000  0.50430000  0.29973000  1
  O  O482  1  0.74630000  0.50430000  0.20027000  1
  O  O483  1  0.70640000  0.62130000  0.29910000  1
  O  O484  1  0.70640000  0.62130000  0.20090000  1
  O  O485  1  0.64930000  0.41550000  0.79683000  1
  O  O486  1  0.64930000  0.41550000  0.70317000  1
  O  O487  1  0.62820000  0.50530000  0.79516000  1
  O  O488  1  0.62820000  0.50530000  0.70484000  1
  O  O489  1  0.59030000  0.45200000  0.29603000  1
  O  O490  1  0.59030000  0.45200000  0.20397000  1
  O  O491  1  0.54910000  0.55170000  0.25000000  1
  O  O492  1  0.53400000  0.65440000  0.29491000  1
  O  O493  1  0.53400000  0.65440000  0.20509000  1
  O  O494  1  0.46600000  0.34560000  0.79491000  1
  O  O495  1  0.46600000  0.34560000  0.70509000  1
  O  O496  1  0.45090000  0.44830000  0.75000000  1
  O  O497  1  0.40970000  0.54800000  0.79603000  1
  O  O498  1  0.40970000  0.54800000  0.70397000  1
  O  O499  1  0.37180000  0.49470000  0.29516000  1
  O  O500  1  0.37180000  0.49470000  0.20484000  1
  O  O501  1  0.35070000  0.58450000  0.29683000  1
  O  O502  1  0.35070000  0.58450000  0.20317000  1
  O  O503  1  0.29360000  0.37870000  0.79910000  1
  O  O504  1  0.29360000  0.37870000  0.70090000  1
  O  O505  1  0.25370000  0.49570000  0.79973000  1
  O  O506  1  0.25370000  0.49570000  0.70027000  1
  O  O507  1  0.24630000  0.99570000  0.29973000  1
  O  O508  1  0.24630000  0.99570000  0.20027000  1
  O  O509  1  0.20640000  0.87870000  0.29910000  1
  O  O510  1  0.20640000  0.87870000  0.20090000  1
  O  O511  1  0.14930000  0.08450000  0.79683000  1
  O  O512  1  0.14930000  0.08450000  0.70317000  1
  O  O513  1  0.12820000  0.99470000  0.79516000  1
  O  O514  1  0.12820000  0.99470000  0.70484000  1
  O  O515  1  0.09030000  0.04800000  0.29603000  1
  O  O516  1  0.09030000  0.04800000  0.20397000  1
  O  O517  1  0.04910000  0.94830000  0.25000000  1
  O  O518  1  0.03400000  0.84560000  0.29491000  1
  O  O519  1  0.03400000  0.84560000  0.20509000  1
