# generated using pymatgen
data_CoHC4O3
_symmetry_space_group_name_H-M   'P 1'
_cell_length_a   6.78800000
_cell_length_b   15.09610000
_cell_length_c   15.09608571
_cell_angle_alpha   117.79453402
_cell_angle_beta   98.62005339
_cell_angle_gamma   98.62030000
_symmetry_Int_Tables_number   1
_chemical_formula_structural   CoHC4O3
_chemical_formula_sum   'Co6 H6 C24 O18'
_cell_volume   1309.58565521
_cell_formula_units_Z   6
loop_
 _symmetry_equiv_pos_site_id
 _symmetry_equiv_pos_as_xyz
  1  'x, y, z'
loop_
 _atom_site_type_symbol
 _atom_site_label
 _atom_site_symmetry_multiplicity
 _atom_site_fract_x
 _atom_site_fract_y
 _atom_site_fract_z
 _atom_site_occupancy
  Co  Co0  1  0.38540000  0.58270000  0.28350000  1
  Co  Co1  1  0.80270000  0.41730000  0.70080000  1
  Co  Co2  1  0.80270000  0.70080000  0.41730000  1
  Co  Co3  1  0.10190000  0.29920000  0.71650000  1
  Co  Co4  1  0.10190000  0.71650000  0.29920000  1
  Co  Co5  1  0.38540000  0.28350000  0.58270000  1
  H  H6  1  0.53405000  1.00000000  0.42715000  1
  H  H7  1  0.71770000  0.48855000  0.48855000  1
  H  H8  1  0.22915000  0.51145000  0.00000000  1
  H  H9  1  0.10690000  0.57285000  0.57285000  1
  H  H10  1  0.53405000  0.42715000  0.00000000  1
  H  H11  1  0.22915000  1.00000000  0.51145000  1
  C  C12  1  0.50600000  0.56180000  0.46810000  1
  C  C13  1  0.94420000  0.43820000  0.90630000  1
  C  C14  1  0.58050000  0.50040000  0.50040000  1
  C  C15  1  0.08010000  0.49960000  0.00000000  1
  C  C16  1  0.56450000  0.81510000  0.35810000  1
  C  C17  1  0.74940000  0.18490000  0.54300000  1
  C  C18  1  0.67765000  1.00000000  0.44125000  1
  C  C19  1  0.73290000  0.90500000  0.41460000  1
  C  C20  1  0.82790000  0.09500000  0.50960000  1
  C  C21  1  0.94420000  0.90630000  0.43820000  1
  C  C22  1  0.03790000  0.09370000  0.53190000  1
  C  C23  1  0.74940000  0.54300000  0.18490000  1
  C  C24  1  0.20640000  0.45700000  0.64190000  1
  C  C25  1  0.08010000  1.00000000  0.49960000  1
  C  C26  1  0.23640000  0.55875000  0.55875000  1
  C  C27  1  0.67765000  0.44125000  0.00000000  1
  C  C28  1  0.82790000  0.50960000  0.09500000  1
  C  C29  1  0.31830000  0.49040000  0.58540000  1
  C  C30  1  0.20640000  0.64190000  0.45700000  1
  C  C31  1  0.56450000  0.35810000  0.81510000  1
  C  C32  1  0.31830000  0.58540000  0.49040000  1
  C  C33  1  0.73290000  0.41460000  0.90500000  1
  C  C34  1  0.03790000  0.53190000  0.09370000  1
  C  C35  1  0.50600000  0.46810000  0.56180000  1
  O  O36  1  0.18400000  0.59960000  0.18230000  1
  O  O37  1  0.58440000  0.40040000  0.58270000  1
  O  O38  1  0.37770000  0.82090000  0.32590000  1
  O  O39  1  0.55680000  0.17910000  0.50500000  1
  O  O40  1  0.58440000  0.58270000  0.40040000  1
  O  O41  1  0.00170000  0.41730000  0.81770000  1
  O  O42  1  0.60180000  0.72390000  0.33860000  1
  O  O43  1  0.87790000  0.27610000  0.61470000  1
  O  O44  1  0.55680000  0.50500000  0.17910000  1
  O  O45  1  0.05180000  0.49500000  0.67410000  1
  O  O46  1  0.05180000  0.67410000  0.49500000  1
  O  O47  1  0.37770000  0.32590000  0.82090000  1
  O  O48  1  0.00170000  0.81770000  0.41730000  1
  O  O49  1  0.18400000  0.18230000  0.59960000  1
  O  O50  1  0.87790000  0.61470000  0.27610000  1
  O  O51  1  0.26320000  0.38530000  0.66140000  1
  O  O52  1  0.26320000  0.66140000  0.38530000  1
  O  O53  1  0.60180000  0.33860000  0.72390000  1
