# generated using pymatgen
data_Ni3H12(C18O13)2
_symmetry_space_group_name_H-M   'P 1'
_cell_length_a   10.78100000
_cell_length_b   13.90300000
_cell_length_c   18.74000000
_cell_angle_alpha   90.00000000
_cell_angle_beta   98.17000000
_cell_angle_gamma   90.00000000
_symmetry_Int_Tables_number   1
_chemical_formula_structural   Ni3H12(C18O13)2
_chemical_formula_sum   'Ni6 H24 C72 O52'
_cell_volume   2780.39745971
_cell_formula_units_Z   2
loop_
 _symmetry_equiv_pos_site_id
 _symmetry_equiv_pos_as_xyz
  1  'x, y, z'
loop_
 _atom_site_type_symbol
 _atom_site_label
 _atom_site_symmetry_multiplicity
 _atom_site_fract_x
 _atom_site_fract_y
 _atom_site_fract_z
 _atom_site_occupancy
  Ni  Ni0  1  0.39430000  0.23079000  0.02375000  1
  Ni  Ni1  1  0.39430000  0.26921000  0.52375000  1
  Ni  Ni2  1  0.50000000  0.00000000  0.00000000  1
  Ni  Ni3  1  0.50000000  0.50000000  0.50000000  1
  Ni  Ni4  1  0.60570000  0.73079000  0.47625000  1
  Ni  Ni5  1  0.60570000  0.76921000  0.97625000  1
  H  H6  1  0.06930000  0.12220000  0.55730000  1
  H  H7  1  0.06930000  0.37780000  0.05730000  1
  H  H8  1  0.10410000  0.62230000  0.49040000  1
  H  H9  1  0.10410000  0.87770000  0.99040000  1
  H  H10  1  0.31000000  0.63710000  0.97320000  1
  H  H11  1  0.31000000  0.86290000  0.47320000  1
  H  H12  1  0.38550000  0.19890000  0.23600000  1
  H  H13  1  0.38550000  0.30110000  0.73600000  1
  H  H14  1  0.43280000  0.05520000  0.76790000  1
  H  H15  1  0.43280000  0.44480000  0.26790000  1
  H  H16  1  0.46610000  0.04280000  0.41960000  1
  H  H17  1  0.46610000  0.45720000  0.91960000  1
  H  H18  1  0.53390000  0.54280000  0.08040000  1
  H  H19  1  0.53390000  0.95720000  0.58040000  1
  H  H20  1  0.56720000  0.55520000  0.73210000  1
  H  H21  1  0.56720000  0.94480000  0.23210000  1
  H  H22  1  0.61450000  0.69890000  0.26400000  1
  H  H23  1  0.61450000  0.80110000  0.76400000  1
  H  H24  1  0.69000000  0.13710000  0.52680000  1
  H  H25  1  0.69000000  0.36290000  0.02680000  1
  H  H26  1  0.89590000  0.12230000  0.00960000  1
  H  H27  1  0.89590000  0.37770000  0.50960000  1
  H  H28  1  0.93070000  0.62220000  0.94270000  1
  H  H29  1  0.93070000  0.87780000  0.44270000  1
  C  C30  1  0.00095000  0.24298000  0.03389000  1
  C  C31  1  0.00095000  0.25702000  0.53389000  1
  C  C32  1  0.00552000  0.65881000  0.95325000  1
  C  C33  1  0.00552000  0.84119000  0.45325000  1
  C  C34  1  0.10848000  0.68947000  0.48160000  1
  C  C35  1  0.10848000  0.81053000  0.98160000  1
  C  C36  1  0.12141000  0.61411000  0.95588000  1
  C  C37  1  0.12141000  0.88589000  0.45588000  1
  C  C38  1  0.12539000  0.19571000  0.02747000  1
  C  C39  1  0.12539000  0.30429000  0.52747000  1
  C  C40  1  0.12800000  0.50852000  0.94220000  1
  C  C41  1  0.12800000  0.99148000  0.44220000  1
  C  C42  1  0.22437000  0.73416000  0.48423000  1
  C  C43  1  0.22437000  0.76584000  0.98423000  1
  C  C44  1  0.23083000  0.66763000  0.97138000  1
  C  C45  1  0.23083000  0.83237000  0.47138000  1
  C  C46  1  0.34700000  0.68159000  0.49522000  1
  C  C47  1  0.34700000  0.81841000  0.99522000  1
  C  C48  1  0.36551000  0.21399000  0.37393000  1
  C  C49  1  0.36551000  0.28601000  0.87393000  1
  C  C50  1  0.40828000  0.10068000  0.62766000  1
  C  C51  1  0.40828000  0.39932000  0.12766000  1
  C  C52  1  0.41856000  0.13272000  0.33398000  1
  C  C53  1  0.41856000  0.36728000  0.83398000  1
  C  C54  1  0.42044000  0.14309000  0.26037000  1
  C  C55  1  0.42044000  0.35691000  0.76037000  1
  C  C56  1  0.46920000  0.08395000  0.14100000  1
  C  C57  1  0.46920000  0.41605000  0.64100000  1
  C  C58  1  0.46971000  0.05110000  0.36957000  1
  C  C59  1  0.46971000  0.44890000  0.86957000  1
  C  C60  1  0.47175000  0.00776000  0.74213000  1
  C  C61  1  0.47175000  0.49224000  0.24213000  1
  C  C62  1  0.47347000  0.07183000  0.22234000  1
  C  C63  1  0.47347000  0.42817000  0.72234000  1
  C  C64  1  0.47371000  0.01840000  0.66854000  1
  C  C65  1  0.47371000  0.48160000  0.16854000  1
  C  C66  1  0.52629000  0.51840000  0.83146000  1
  C  C67  1  0.52629000  0.98160000  0.33146000  1
  C  C68  1  0.52653000  0.57183000  0.27766000  1
  C  C69  1  0.52653000  0.92817000  0.77766000  1
  C  C70  1  0.52825000  0.50776000  0.75787000  1
  C  C71  1  0.52825000  0.99224000  0.25787000  1
  C  C72  1  0.53029000  0.55110000  0.13043000  1
  C  C73  1  0.53029000  0.94890000  0.63043000  1
  C  C74  1  0.53080000  0.58395000  0.35900000  1
  C  C75  1  0.53080000  0.91605000  0.85900000  1
  C  C76  1  0.57956000  0.64309000  0.23963000  1
  C  C77  1  0.57956000  0.85691000  0.73963000  1
  C  C78  1  0.58144000  0.63272000  0.16602000  1
  C  C79  1  0.58144000  0.86728000  0.66602000  1
  C  C80  1  0.59172000  0.60068000  0.87234000  1
  C  C81  1  0.59172000  0.89932000  0.37234000  1
  C  C82  1  0.63449000  0.71399000  0.12607000  1
  C  C83  1  0.63449000  0.78601000  0.62607000  1
  C  C84  1  0.65300000  0.18159000  0.00478000  1
  C  C85  1  0.65300000  0.31841000  0.50478000  1
  C  C86  1  0.76917000  0.16763000  0.52862000  1
  C  C87  1  0.76917000  0.33237000  0.02862000  1
  C  C88  1  0.77563000  0.23416000  0.01577000  1
  C  C89  1  0.77563000  0.26584000  0.51577000  1
  C  C90  1  0.87200000  0.00852000  0.55780000  1
  C  C91  1  0.87200000  0.49148000  0.05780000  1
  C  C92  1  0.87461000  0.69571000  0.47253000  1
  C  C93  1  0.87461000  0.80429000  0.97253000  1
  C  C94  1  0.87859000  0.11411000  0.54412000  1
  C  C95  1  0.87859000  0.38589000  0.04412000  1
  C  C96  1  0.89152000  0.18947000  0.01840000  1
  C  C97  1  0.89152000  0.31053000  0.51840000  1
  C  C98  1  0.99448000  0.15881000  0.54675000  1
  C  C99  1  0.99448000  0.34119000  0.04675000  1
  C  C100  1  0.99905000  0.74298000  0.46611000  1
  C  C101  1  0.99905000  0.75702000  0.96611000  1
  O  O102  1  0.04346000  0.03904000  0.41150000  1
  O  O103  1  0.04346000  0.46096000  0.91150000  1
  O  O104  1  0.12778000  0.11733000  0.99559000  1
  O  O105  1  0.12778000  0.38267000  0.49559000  1
  O  O106  1  0.22311000  0.24152000  0.05638000  1
  O  O107  1  0.22311000  0.25848000  0.55638000  1
  O  O108  1  0.24047000  0.02809000  0.46774000  1
  O  O109  1  0.24047000  0.47191000  0.96774000  1
  O  O110  1  0.30724000  0.13285000  0.65334000  1
  O  O111  1  0.30724000  0.36715000  0.15334000  1
  O  O112  1  0.32520000  0.19236000  0.43304000  1
  O  O113  1  0.32520000  0.30764000  0.93304000  1
  O  O114  1  0.34780000  0.59207000  0.48495000  1
  O  O115  1  0.34780000  0.90793000  0.98495000  1
  O  O116  1  0.35962000  0.10296000  0.96792000  1
  O  O117  1  0.35962000  0.39704000  0.46792000  1
  O  O118  1  0.36570000  0.20310000  0.84911000  1
  O  O119  1  0.36570000  0.29690000  0.34911000  1
  O  O120  1  0.44118000  0.73453000  0.51307000  1
  O  O121  1  0.44118000  0.76547000  0.01307000  1
  O  O122  1  0.44515000  0.13484000  0.57404000  1
  O  O123  1  0.44515000  0.36516000  0.07404000  1
  O  O124  1  0.45855000  0.16943000  0.11916000  1
  O  O125  1  0.45855000  0.33057000  0.61916000  1
  O  O126  1  0.47995000  0.00897000  0.10542000  1
  O  O127  1  0.47995000  0.49103000  0.60542000  1
  O  O128  1  0.52005000  0.50897000  0.39458000  1
  O  O129  1  0.52005000  0.99103000  0.89458000  1
  O  O130  1  0.54145000  0.66943000  0.38084000  1
  O  O131  1  0.54145000  0.83057000  0.88084000  1
  O  O132  1  0.55485000  0.63484000  0.92596000  1
  O  O133  1  0.55485000  0.86516000  0.42596000  1
  O  O134  1  0.55882000  0.23453000  0.98693000  1
  O  O135  1  0.55882000  0.26547000  0.48693000  1
  O  O136  1  0.63430000  0.70310000  0.65089000  1
  O  O137  1  0.63430000  0.79690000  0.15089000  1
  O  O138  1  0.64038000  0.60296000  0.53208000  1
  O  O139  1  0.64038000  0.89704000  0.03208000  1
  O  O140  1  0.65220000  0.09207000  0.01505000  1
  O  O141  1  0.65220000  0.40793000  0.51505000  1
  O  O142  1  0.67480000  0.69236000  0.06696000  1
  O  O143  1  0.67480000  0.80764000  0.56696000  1
  O  O144  1  0.69276000  0.63285000  0.84666000  1
  O  O145  1  0.69276000  0.86715000  0.34666000  1
  O  O146  1  0.75953000  0.52809000  0.03226000  1
  O  O147  1  0.75953000  0.97191000  0.53226000  1
  O  O148  1  0.77689000  0.74152000  0.44362000  1
  O  O149  1  0.77689000  0.75848000  0.94362000  1
  O  O150  1  0.87222000  0.61733000  0.50441000  1
  O  O151  1  0.87222000  0.88267000  0.00441000  1
  O  O152  1  0.95654000  0.53904000  0.08850000  1
  O  O153  1  0.95654000  0.96096000  0.58850000  1
