# generated using pymatgen
data_AgH8(CN)2
_symmetry_space_group_name_H-M   'P 1'
_cell_length_a   6.20200000
_cell_length_b   7.40595904
_cell_length_c   7.40595904
_cell_angle_alpha   89.48030155
_cell_angle_beta   72.53107777
_cell_angle_gamma   72.53107777
_symmetry_Int_Tables_number   1
_chemical_formula_structural   AgH8(CN)2
_chemical_formula_sum   'Ag2 H16 C4 N4'
_cell_volume   308.28487565
_cell_formula_units_Z   2
loop_
 _symmetry_equiv_pos_site_id
 _symmetry_equiv_pos_as_xyz
  1  'x, y, z'
loop_
 _atom_site_type_symbol
 _atom_site_label
 _atom_site_symmetry_multiplicity
 _atom_site_fract_x
 _atom_site_fract_y
 _atom_site_fract_z
 _atom_site_occupancy
  Ag  Ag0  1  0.00000000  0.50000000  0.50000000  1
  Ag  Ag1  1  0.50000000  0.50000000  0.50000000  1
  C  C2  1  0.45400000  0.10460000  0.52420000  1
  C  C3  1  0.95400000  0.52420000  0.10460000  1
  C  C4  1  0.54600000  0.89540000  0.47580000  1
  C  C5  1  0.04600000  0.47580000  0.89540000  1
  H  H6  1  0.42550000  0.13200000  0.65880000  1
  H  H7  1  0.92550000  0.65880000  0.13200000  1
  H  H8  1  0.30390000  0.15560000  0.49820000  1
  H  H9  1  0.80390000  0.49820000  0.15560000  1
  H  H10  1  0.76670000  0.14350000  0.43070000  1
  H  H11  1  0.26670000  0.43070000  0.14350000  1
  H  H12  1  0.35730000  0.82130000  0.71110000  1
  H  H13  1  0.85730000  0.71110000  0.82130000  1
  H  H14  1  0.64270000  0.17870000  0.28890000  1
  H  H15  1  0.14270000  0.28890000  0.17870000  1
  H  H16  1  0.23330000  0.85650000  0.56930000  1
  H  H17  1  0.73330000  0.56930000  0.85650000  1
  H  H18  1  0.69610000  0.84440000  0.50180000  1
  H  H19  1  0.19610000  0.50180000  0.84440000  1
  H  H20  1  0.57450000  0.86800000  0.34120000  1
  H  H21  1  0.07450000  0.34120000  0.86800000  1
  N  N22  1  0.62400000  0.19670000  0.41330000  1
  N  N23  1  0.12400000  0.41330000  0.19670000  1
  N  N24  1  0.37600000  0.80330000  0.58670000  1
  N  N25  1  0.87600000  0.58670000  0.80330000  1
