# generated using pymatgen
data_Cu4H6C5N20O
_symmetry_space_group_name_H-M   'P 1'
_cell_length_a   12.01600000
_cell_length_b   12.16700000
_cell_length_c   13.85000000
_cell_angle_alpha   90.00000000
_cell_angle_beta   90.00000000
_cell_angle_gamma   90.00000000
_symmetry_Int_Tables_number   1
_chemical_formula_structural   Cu4H6C5N20O
_chemical_formula_sum   'Cu16 H24 C20 N80 O4'
_cell_volume   2024.85160720
_cell_formula_units_Z   4
loop_
 _symmetry_equiv_pos_site_id
 _symmetry_equiv_pos_as_xyz
  1  'x, y, z'
loop_
 _atom_site_type_symbol
 _atom_site_label
 _atom_site_symmetry_multiplicity
 _atom_site_fract_x
 _atom_site_fract_y
 _atom_site_fract_z
 _atom_site_occupancy
  Cu  Cu0  1  0.03088000  0.16643000  0.38280000  1
  Cu  Cu1  1  0.03088000  0.16643000  0.61720000  1
  Cu  Cu2  1  0.24059000  0.75267000  0.25195000  1
  Cu  Cu3  1  0.24059000  0.75267000  0.74805000  1
  Cu  Cu4  1  0.25941000  0.25267000  0.24805000  1
  Cu  Cu5  1  0.25941000  0.25267000  0.75195000  1
  Cu  Cu6  1  0.46912000  0.66643000  0.11720000  1
  Cu  Cu7  1  0.46912000  0.66643000  0.88280000  1
  Cu  Cu8  1  0.53088000  0.33357000  0.11720000  1
  Cu  Cu9  1  0.53088000  0.33357000  0.88280000  1
  Cu  Cu10  1  0.74059000  0.74733000  0.24805000  1
  Cu  Cu11  1  0.74059000  0.74733000  0.75195000  1
  Cu  Cu12  1  0.75941000  0.24733000  0.25195000  1
  Cu  Cu13  1  0.75941000  0.24733000  0.74805000  1
  Cu  Cu14  1  0.96912000  0.83357000  0.38280000  1
  Cu  Cu15  1  0.96912000  0.83357000  0.61720000  1
  H  H16  1  0.09460000  0.62880000  0.09160000  1
  H  H17  1  0.09460000  0.62880000  0.90840000  1
  H  H18  1  0.11080000  0.04170000  0.50000000  1
  H  H19  1  0.16950000  0.49500000  0.30690000  1
  H  H20  1  0.16950000  0.49500000  0.69310000  1
  H  H21  1  0.18440000  0.16370000  0.00000000  1
  H  H22  1  0.31560000  0.66370000  0.50000000  1
  H  H23  1  0.33050000  0.99500000  0.19310000  1
  H  H24  1  0.33050000  0.99500000  0.80690000  1
  H  H25  1  0.38920000  0.54170000  0.00000000  1
  H  H26  1  0.40540000  0.12880000  0.40840000  1
  H  H27  1  0.40540000  0.12880000  0.59160000  1
  H  H28  1  0.59460000  0.87120000  0.40840000  1
  H  H29  1  0.59460000  0.87120000  0.59160000  1
  H  H30  1  0.61080000  0.45830000  0.00000000  1
  H  H31  1  0.66950000  0.00500000  0.19310000  1
  H  H32  1  0.66950000  0.00500000  0.80690000  1
  H  H33  1  0.68440000  0.33630000  0.50000000  1
  H  H34  1  0.81560000  0.83630000  0.00000000  1
  H  H35  1  0.83050000  0.50500000  0.30690000  1
  H  H36  1  0.83050000  0.50500000  0.69310000  1
  H  H37  1  0.88920000  0.95830000  0.50000000  1
  H  H38  1  0.90540000  0.37120000  0.09160000  1
  H  H39  1  0.90540000  0.37120000  0.90840000  1
  C  C40  1  0.04750000  0.66100000  0.13670000  1
  C  C41  1  0.04750000  0.66100000  0.86330000  1
  C  C42  1  0.23340000  0.49950000  0.26920000  1
  C  C43  1  0.23340000  0.49950000  0.73080000  1
  C  C44  1  0.24470000  0.69430000  0.50000000  1
  C  C45  1  0.25530000  0.19430000  0.00000000  1
  C  C46  1  0.26660000  0.99950000  0.23080000  1
  C  C47  1  0.26660000  0.99950000  0.76920000  1
  C  C48  1  0.45250000  0.16100000  0.36330000  1
  C  C49  1  0.45250000  0.16100000  0.63670000  1
  C  C50  1  0.54750000  0.83900000  0.36330000  1
  C  C51  1  0.54750000  0.83900000  0.63670000  1
  C  C52  1  0.73340000  0.00050000  0.23080000  1
  C  C53  1  0.73340000  0.00050000  0.76920000  1
  C  C54  1  0.74470000  0.80570000  0.00000000  1
  C  C55  1  0.75530000  0.30570000  0.50000000  1
  C  C56  1  0.76660000  0.50050000  0.26920000  1
  C  C57  1  0.76660000  0.50050000  0.73080000  1
  C  C58  1  0.95250000  0.33900000  0.13670000  1
  C  C59  1  0.95250000  0.33900000  0.86330000  1
  N  N60  1  0.01090000  0.25210000  0.25950000  1
  N  N61  1  0.01090000  0.25210000  0.74050000  1
  N  N62  1  0.06340000  0.34270000  0.13300000  1
  N  N63  1  0.06340000  0.34270000  0.86700000  1
  N  N64  1  0.08160000  0.71730000  0.21410000  1
  N  N65  1  0.08160000  0.71730000  0.78590000  1
  N  N66  1  0.09310000  0.75670000  0.45190000  1
  N  N67  1  0.09310000  0.75670000  0.54810000  1
  N  N68  1  0.09710000  0.28680000  0.21090000  1
  N  N69  1  0.09710000  0.28680000  0.78910000  1
  N  N70  1  0.12410000  0.95390000  0.31380000  1
  N  N71  1  0.12410000  0.95390000  0.68620000  1
  N  N72  1  0.13140000  0.06090000  0.31270000  1
  N  N73  1  0.13140000  0.06090000  0.68730000  1
  N  N74  1  0.18950000  0.71810000  0.41990000  1
  N  N75  1  0.18950000  0.71810000  0.58010000  1
  N  N76  1  0.20860000  0.91420000  0.26240000  1
  N  N77  1  0.20860000  0.91420000  0.73760000  1
  N  N78  1  0.21990000  0.09270000  0.26090000  1
  N  N79  1  0.21990000  0.09270000  0.73910000  1
  N  N80  1  0.28010000  0.59270000  0.23910000  1
  N  N81  1  0.28010000  0.59270000  0.76090000  1
  N  N82  1  0.29140000  0.41420000  0.23760000  1
  N  N83  1  0.29140000  0.41420000  0.76240000  1
  N  N84  1  0.31050000  0.21810000  0.08010000  1
  N  N85  1  0.31050000  0.21810000  0.91990000  1
  N  N86  1  0.36860000  0.56090000  0.18730000  1
  N  N87  1  0.36860000  0.56090000  0.81270000  1
  N  N88  1  0.37590000  0.45390000  0.18620000  1
  N  N89  1  0.37590000  0.45390000  0.81380000  1
  N  N90  1  0.40290000  0.78680000  0.28910000  1
  N  N91  1  0.40290000  0.78680000  0.71090000  1
  N  N92  1  0.40690000  0.25670000  0.04810000  1
  N  N93  1  0.40690000  0.25670000  0.95190000  1
  N  N94  1  0.41840000  0.21730000  0.28590000  1
  N  N95  1  0.41840000  0.21730000  0.71410000  1
  N  N96  1  0.43660000  0.84270000  0.36700000  1
  N  N97  1  0.43660000  0.84270000  0.63300000  1
  N  N98  1  0.48910000  0.75210000  0.24050000  1
  N  N99  1  0.48910000  0.75210000  0.75950000  1
  N  N100  1  0.51090000  0.24790000  0.24050000  1
  N  N101  1  0.51090000  0.24790000  0.75950000  1
  N  N102  1  0.56340000  0.15730000  0.36700000  1
  N  N103  1  0.56340000  0.15730000  0.63300000  1
  N  N104  1  0.58160000  0.78270000  0.28590000  1
  N  N105  1  0.58160000  0.78270000  0.71410000  1
  N  N106  1  0.59310000  0.74330000  0.04810000  1
  N  N107  1  0.59310000  0.74330000  0.95190000  1
  N  N108  1  0.59710000  0.21320000  0.28910000  1
  N  N109  1  0.59710000  0.21320000  0.71090000  1
  N  N110  1  0.62410000  0.54610000  0.18620000  1
  N  N111  1  0.62410000  0.54610000  0.81380000  1
  N  N112  1  0.63140000  0.43910000  0.18730000  1
  N  N113  1  0.63140000  0.43910000  0.81270000  1
  N  N114  1  0.68950000  0.78190000  0.08010000  1
  N  N115  1  0.68950000  0.78190000  0.91990000  1
  N  N116  1  0.70860000  0.58580000  0.23760000  1
  N  N117  1  0.70860000  0.58580000  0.76240000  1
  N  N118  1  0.71990000  0.40730000  0.23910000  1
  N  N119  1  0.71990000  0.40730000  0.76090000  1
  N  N120  1  0.78010000  0.90730000  0.26090000  1
  N  N121  1  0.78010000  0.90730000  0.73910000  1
  N  N122  1  0.79140000  0.08580000  0.26240000  1
  N  N123  1  0.79140000  0.08580000  0.73760000  1
  N  N124  1  0.81050000  0.28190000  0.41990000  1
  N  N125  1  0.81050000  0.28190000  0.58010000  1
  N  N126  1  0.86860000  0.93910000  0.31270000  1
  N  N127  1  0.86860000  0.93910000  0.68730000  1
  N  N128  1  0.87590000  0.04610000  0.31380000  1
  N  N129  1  0.87590000  0.04610000  0.68620000  1
  N  N130  1  0.90290000  0.71320000  0.21090000  1
  N  N131  1  0.90290000  0.71320000  0.78910000  1
  N  N132  1  0.90690000  0.24330000  0.45190000  1
  N  N133  1  0.90690000  0.24330000  0.54810000  1
  N  N134  1  0.91840000  0.28270000  0.21410000  1
  N  N135  1  0.91840000  0.28270000  0.78590000  1
  N  N136  1  0.93660000  0.65730000  0.13300000  1
  N  N137  1  0.93660000  0.65730000  0.86700000  1
  N  N138  1  0.98910000  0.74790000  0.25950000  1
  N  N139  1  0.98910000  0.74790000  0.74050000  1
  O  O140  1  0.06150000  0.08940000  0.50000000  1
  O  O141  1  0.43850000  0.58940000  0.00000000  1
  O  O142  1  0.56150000  0.41060000  0.00000000  1
  O  O143  1  0.93850000  0.91060000  0.50000000  1
