# generated using pymatgen
data_ZnH3C9O4
_symmetry_space_group_name_H-M   'P 1'
_cell_length_a   15.33010000
_cell_length_b   15.33010000
_cell_length_c   15.33010000
_cell_angle_alpha   102.03800000
_cell_angle_beta   102.03800000
_cell_angle_gamma   102.03800000
_symmetry_Int_Tables_number   1
_chemical_formula_structural   ZnH3C9O4
_chemical_formula_sum   'Zn6 H18 C54 O24'
_cell_volume   3324.24183824
_cell_formula_units_Z   6
loop_
 _symmetry_equiv_pos_site_id
 _symmetry_equiv_pos_as_xyz
  1  'x, y, z'
loop_
 _atom_site_type_symbol
 _atom_site_label
 _atom_site_symmetry_multiplicity
 _atom_site_fract_x
 _atom_site_fract_y
 _atom_site_fract_z
 _atom_site_occupancy
  Zn  Zn0  1  0.97702000  0.97702000  0.58347000  1
  Zn  Zn1  1  0.58347000  0.97702000  0.97702000  1
  Zn  Zn2  1  0.97702000  0.58347000  0.97702000  1
  Zn  Zn3  1  0.02298000  0.41653000  0.02298000  1
  Zn  Zn4  1  0.41653000  0.02298000  0.02298000  1
  Zn  Zn5  1  0.02298000  0.02298000  0.41653000  1
  H  H6  1  0.69630000  0.98580000  0.50620000  1
  H  H7  1  0.50620000  0.98580000  0.69630000  1
  H  H8  1  0.25925000  0.74075000  0.00000000  1
  H  H9  1  0.00000000  0.74075000  0.25925000  1
  H  H10  1  0.98580000  0.69630000  0.50620000  1
  H  H11  1  0.50620000  0.69630000  0.98580000  1
  H  H12  1  0.98580000  0.50620000  0.69630000  1
  H  H13  1  0.69630000  0.50620000  0.98580000  1
  H  H14  1  0.30370000  0.49380000  0.01420000  1
  H  H15  1  0.01420000  0.49380000  0.30370000  1
  H  H16  1  0.49380000  0.30370000  0.01420000  1
  H  H17  1  0.01420000  0.30370000  0.49380000  1
  H  H18  1  0.00000000  0.25925000  0.74075000  1
  H  H19  1  0.74075000  0.25925000  0.00000000  1
  H  H20  1  0.49380000  0.01420000  0.30370000  1
  H  H21  1  0.30370000  0.01420000  0.49380000  1
  H  H22  1  0.74075000  1.00000000  0.25925000  1
  H  H23  1  0.25925000  0.00000000  0.74075000  1
  C  C24  1  0.29829000  0.00000000  0.70171000  1
  C  C25  1  0.73314000  0.99361000  0.38763000  1
  C  C26  1  0.38763000  0.99361000  0.73314000  1
  C  C27  1  0.67602000  0.99194000  0.44681000  1
  C  C28  1  0.44681000  0.99194000  0.67602000  1
  C  C29  1  0.83086000  0.98733000  0.42180000  1
  C  C30  1  0.42180000  0.98733000  0.83086000  1
  C  C31  1  0.98733000  0.83086000  0.42180000  1
  C  C32  1  0.42180000  0.83086000  0.98733000  1
  C  C33  1  0.99361000  0.73314000  0.38763000  1
  C  C34  1  0.38763000  0.73314000  0.99361000  1
  C  C35  1  0.00000000  0.70171000  0.29829000  1
  C  C36  1  0.29829000  0.70171000  0.00000000  1
  C  C37  1  0.99194000  0.67602000  0.44681000  1
  C  C38  1  0.44681000  0.67602000  0.99194000  1
  C  C39  1  0.26686000  0.61237000  0.00639000  1
  C  C40  1  0.00639000  0.61237000  0.26686000  1
  C  C41  1  0.00000000  0.58643000  0.41357000  1
  C  C42  1  0.41357000  0.58643000  0.00000000  1
  C  C43  1  0.16914000  0.57820000  0.01267000  1
  C  C44  1  0.01267000  0.57820000  0.16914000  1
  C  C45  1  0.32398000  0.55319000  0.00806000  1
  C  C46  1  0.00806000  0.55319000  0.32398000  1
  C  C47  1  0.47598000  0.52403000  0.00000000  1
  C  C48  1  0.00000000  0.52402000  0.47597000  1
  C  C49  1  0.00000000  0.47598000  0.52403000  1
  C  C50  1  0.52403000  0.47597000  0.00000000  1
  C  C51  1  0.99194000  0.44681000  0.67602000  1
  C  C52  1  0.67602000  0.44681000  0.99194000  1
  C  C53  1  0.98733000  0.42180000  0.83086000  1
  C  C54  1  0.83086000  0.42180000  0.98733000  1
  C  C55  1  0.00000000  0.41357000  0.58643000  1
  C  C56  1  0.58643000  0.41357000  0.00000000  1
  C  C57  1  0.99361000  0.38763000  0.73314000  1
  C  C58  1  0.73314000  0.38763000  0.99361000  1
  C  C59  1  0.55319000  0.32398000  0.00806000  1
  C  C60  1  0.00806000  0.32398000  0.55319000  1
  C  C61  1  0.00000000  0.29829000  0.70171000  1
  C  C62  1  0.70171000  0.29829000  0.00000000  1
  C  C63  1  0.61237000  0.26686000  0.00639000  1
  C  C64  1  0.00639000  0.26686000  0.61237000  1
  C  C65  1  0.57820000  0.16914000  0.01267000  1
  C  C66  1  0.01267000  0.16914000  0.57820000  1
  C  C67  1  0.57820000  0.01267000  0.16914000  1
  C  C68  1  0.16914000  0.01267000  0.57820000  1
  C  C69  1  0.55319000  0.00806000  0.32398000  1
  C  C70  1  0.32398000  0.00806000  0.55319000  1
  C  C71  1  0.61237000  0.00639000  0.26686000  1
  C  C72  1  0.26686000  0.00639000  0.61237000  1
  C  C73  1  0.70171000  1.00000000  0.29829000  1
  C  C74  1  0.58643000  0.00000000  0.41357000  1
  C  C75  1  0.52402000  1.00000000  0.47597000  1
  C  C76  1  0.47598000  0.00000000  0.52403000  1
  C  C77  1  0.41357000  0.00000000  0.58643000  1
  O  O78  1  0.62837000  0.99754000  0.11697000  1
  O  O79  1  0.11697000  0.99754000  0.62837000  1
  O  O80  1  0.85349000  0.97397000  0.50028000  1
  O  O81  1  0.50028000  0.97397000  0.85349000  1
  O  O82  1  0.37163000  0.88303000  0.00246000  1
  O  O83  1  0.00246000  0.88303000  0.37163000  1
  O  O84  1  0.97397000  0.85349000  0.50028000  1
  O  O85  1  0.50028000  0.85349000  0.97397000  1
  O  O86  1  0.99754000  0.62837000  0.11697000  1
  O  O87  1  0.11697000  0.62837000  0.99754000  1
  O  O88  1  0.97397000  0.50028000  0.85349000  1
  O  O89  1  0.85349000  0.50028000  0.97397000  1
  O  O90  1  0.14651000  0.49972000  0.02603000  1
  O  O91  1  0.02603000  0.49972000  0.14651000  1
  O  O92  1  0.88303000  0.37163000  0.00246000  1
  O  O93  1  0.00246000  0.37163000  0.88303000  1
  O  O94  1  0.49972000  0.14651000  0.02603000  1
  O  O95  1  0.02603000  0.14651000  0.49972000  1
  O  O96  1  0.99754000  0.11697000  0.62837000  1
  O  O97  1  0.62837000  0.11697000  0.99754000  1
  O  O98  1  0.49972000  0.02603000  0.14651000  1
  O  O99  1  0.14651000  0.02603000  0.49972000  1
  O  O100  1  0.88303000  0.00246000  0.37163000  1
  O  O101  1  0.37163000  0.00246000  0.88303000  1
