# generated using pymatgen
data_Cu4C7N5
_symmetry_space_group_name_H-M   'P 1'
_cell_length_a   12.52540000
_cell_length_b   13.30740000
_cell_length_c   14.44400000
_cell_angle_alpha   90.00000000
_cell_angle_beta   90.00000000
_cell_angle_gamma   90.00000000
_symmetry_Int_Tables_number   1
_chemical_formula_structural   Cu4C7N5
_chemical_formula_sum   'Cu16 C28 N20'
_cell_volume   2407.53325697
_cell_formula_units_Z   4
loop_
 _symmetry_equiv_pos_site_id
 _symmetry_equiv_pos_as_xyz
  1  'x, y, z'
loop_
 _atom_site_type_symbol
 _atom_site_label
 _atom_site_symmetry_multiplicity
 _atom_site_fract_x
 _atom_site_fract_y
 _atom_site_fract_z
 _atom_site_occupancy
  Cu  Cu0  1  0.03144000  0.06814000  0.05157000  1
  Cu  Cu1  1  0.96856000  0.56814000  0.05157000  1
  Cu  Cu2  1  0.35596000  0.52119000  0.11798000  1
  Cu  Cu3  1  0.64404000  0.02119000  0.11798000  1
  Cu  Cu4  1  0.14404000  0.02119000  0.38202000  1
  Cu  Cu5  1  0.85596000  0.52119000  0.38202000  1
  Cu  Cu6  1  0.46856000  0.56814000  0.44843000  1
  Cu  Cu7  1  0.53144000  0.06814000  0.44843000  1
  Cu  Cu8  1  0.46856000  0.93186000  0.55157000  1
  Cu  Cu9  1  0.53144000  0.43186000  0.55157000  1
  Cu  Cu10  1  0.14404000  0.47881000  0.61798000  1
  Cu  Cu11  1  0.85596000  0.97881000  0.61798000  1
  Cu  Cu12  1  0.35596000  0.97881000  0.88202000  1
  Cu  Cu13  1  0.64404000  0.47881000  0.88202000  1
  Cu  Cu14  1  0.03144000  0.43186000  0.94843000  1
  Cu  Cu15  1  0.96856000  0.93186000  0.94843000  1
  C  C16  1  0.03490000  0.20970000  0.01190000  1
  C  C17  1  0.96510000  0.70970000  0.01190000  1
  C  C18  1  0.46560000  0.50300000  0.02660000  1
  C  C19  1  0.12650000  0.51350000  0.04260000  1
  C  C20  1  0.87350000  0.01350000  0.04260000  1
  C  C21  1  0.38790000  0.54040000  0.24600000  1
  C  C22  1  0.61210000  0.04040000  0.24600000  1
  C  C23  1  0.11210000  0.04040000  0.25400000  1
  C  C24  1  0.88790000  0.54040000  0.25400000  1
  C  C25  1  0.37350000  0.01350000  0.45740000  1
  C  C26  1  0.62650000  0.51350000  0.45740000  1
  C  C27  1  0.03440000  0.00300000  0.47340000  1
  C  C28  1  0.46510000  0.70970000  0.48810000  1
  C  C29  1  0.53490000  0.20970000  0.48810000  1
  C  C30  1  0.46510000  0.79030000  0.51190000  1
  C  C31  1  0.53490000  0.29030000  0.51190000  1
  C  C32  1  0.03440000  0.49700000  0.52660000  1
  C  C33  1  0.37350000  0.48650000  0.54260000  1
  C  C34  1  0.62650000  0.98650000  0.54260000  1
  C  C35  1  0.11210000  0.45960000  0.74600000  1
  C  C36  1  0.88790000  0.95960000  0.74600000  1
  C  C37  1  0.38790000  0.95960000  0.75400000  1
  C  C38  1  0.61210000  0.45960000  0.75400000  1
  C  C39  1  0.12650000  0.98650000  0.95740000  1
  C  C40  1  0.87350000  0.48650000  0.95740000  1
  C  C41  1  0.46560000  0.99700000  0.97340000  1
  C  C42  1  0.03490000  0.29030000  0.98810000  1
  C  C43  1  0.96510000  0.79030000  0.98810000  1
  N  N44  1  0.53440000  0.00300000  0.02660000  1
  N  N45  1  0.21190000  0.51940000  0.07070000  1
  N  N46  1  0.78810000  0.01940000  0.07070000  1
  N  N47  1  0.08740000  0.05000000  0.17770000  1
  N  N48  1  0.91260000  0.55000000  0.17770000  1
  N  N49  1  0.41260000  0.55000000  0.32230000  1
  N  N50  1  0.58740000  0.05000000  0.32230000  1
  N  N51  1  0.28810000  0.01940000  0.42930000  1
  N  N52  1  0.71190000  0.51940000  0.42930000  1
  N  N53  1  0.96560000  0.50300000  0.47340000  1
  N  N54  1  0.96560000  0.99700000  0.52660000  1
  N  N55  1  0.28810000  0.48060000  0.57070000  1
  N  N56  1  0.71190000  0.98060000  0.57070000  1
  N  N57  1  0.41260000  0.95000000  0.67770000  1
  N  N58  1  0.58740000  0.45000000  0.67770000  1
  N  N59  1  0.08740000  0.45000000  0.82230000  1
  N  N60  1  0.91260000  0.95000000  0.82230000  1
  N  N61  1  0.21190000  0.98060000  0.92930000  1
  N  N62  1  0.78810000  0.48060000  0.92930000  1
  N  N63  1  0.53440000  0.49700000  0.97340000  1
