# generated using pymatgen
data_ZnCo2H6C18O13
_symmetry_space_group_name_H-M   'P 1'
_cell_length_a   17.20645245
_cell_length_b   17.20650000
_cell_length_c   17.20650000
_cell_angle_alpha   105.64200000
_cell_angle_beta   105.64177990
_cell_angle_gamma   117.43560379
_symmetry_Int_Tables_number   1
_chemical_formula_structural   ZnCo2H6C18O13
_chemical_formula_sum   'Zn4 Co8 H24 C72 O52'
_cell_volume   3863.95860912
_cell_formula_units_Z   4
loop_
 _symmetry_equiv_pos_site_id
 _symmetry_equiv_pos_as_xyz
  1  'x, y, z'
loop_
 _atom_site_type_symbol
 _atom_site_label
 _atom_site_symmetry_multiplicity
 _atom_site_fract_x
 _atom_site_fract_y
 _atom_site_fract_z
 _atom_site_occupancy
  Zn  Zn0  1  0.31572000  0.49438000  0.50000000  1
  Zn  Zn1  1  0.81572000  0.31572000  0.82134000  1
  Zn  Zn2  1  0.49438000  0.99438000  0.17866000  1
  Zn  Zn3  1  0.99438000  0.81572000  0.50000000  1
  Co  Co4  1  0.54543000  0.67825000  0.62224000  1
  Co  Co5  1  0.42319000  0.55601000  0.37776000  1
  Co  Co6  1  0.67825000  0.05601000  0.13282000  1
  Co  Co7  1  0.04543000  0.42319000  0.86718000  1
  Co  Co8  1  0.55601000  0.17825000  0.13282000  1
  Co  Co9  1  0.92319000  0.54543000  0.86718000  1
  Co  Co10  1  0.05601000  0.92319000  0.37776000  1
  Co  Co11  1  0.17825000  0.04543000  0.62224000  1
  H  H12  1  0.70970000  0.74850000  0.38700000  1
  H  H13  1  0.82270000  0.86150000  0.61300000  1
  H  H14  1  0.81280000  0.96070000  0.30850000  1
  H  H15  1  0.00430000  0.15220000  0.69150000  1
  H  H16  1  0.54750000  0.84560000  0.30490000  1
  H  H17  1  0.74260000  0.04070000  0.69510000  1
  H  H18  1  0.04070000  0.34560000  0.29810000  1
  H  H19  1  0.24260000  0.54750000  0.70190000  1
  H  H20  1  0.50430000  0.81280000  0.85210000  1
  H  H21  1  0.15220000  0.46070000  0.14790000  1
  H  H22  1  0.86150000  0.24850000  0.03880000  1
  H  H23  1  0.32270000  0.70970000  0.96120000  1
  H  H24  1  0.74850000  0.36150000  0.03880000  1
  H  H25  1  0.20970000  0.82270000  0.96120000  1
  H  H26  1  0.96070000  0.65220000  0.14790000  1
  H  H27  1  0.31280000  0.00430000  0.85210000  1
  H  H28  1  0.84560000  0.54070000  0.29810000  1
  H  H29  1  0.04750000  0.74260000  0.70190000  1
  H  H30  1  0.54070000  0.24260000  0.69510000  1
  H  H31  1  0.34560000  0.04750000  0.30490000  1
  H  H32  1  0.65220000  0.50430000  0.69150000  1
  H  H33  1  0.46070000  0.31280000  0.30850000  1
  H  H34  1  0.24850000  0.20970000  0.38700000  1
  H  H35  1  0.36150000  0.32270000  0.61300000  1
  C  C36  1  0.36110000  0.37020000  0.37410000  1
  C  C37  1  0.48700000  0.49610000  0.62590000  1
  C  C38  1  0.78130000  0.85850000  0.35540000  1
  C  C39  1  0.92590000  0.00310000  0.64460000  1
  C  C40  1  0.70340000  0.79130000  0.36690000  1
  C  C41  1  0.83650000  0.92440000  0.63310000  1
  C  C42  1  0.76500000  0.91740000  0.31960000  1
  C  C43  1  0.94540000  0.09780000  0.68040000  1
  C  C44  1  0.61920000  0.78820000  0.34920000  1
  C  C45  1  0.77000000  0.93900000  0.65080000  1
  C  C46  1  0.53020000  0.71520000  0.35920000  1
  C  C47  1  0.67100000  0.85600000  0.64080000  1
  C  C48  1  0.67870000  0.91130000  0.30100000  1
  C  C49  1  0.87770000  0.11030000  0.69900000  1
  C  C50  1  0.60460000  0.84770000  0.31630000  1
  C  C51  1  0.78830000  0.03140000  0.68370000  1
  C  C52  1  0.21401000  0.47187000  0.31468000  1
  C  C53  1  0.39933000  0.65719000  0.68532000  1
  C  C54  1  0.11030000  0.41130000  0.23260000  1
  C  C55  1  0.37770000  0.67870000  0.76740000  1
  C  C56  1  0.65719000  0.97187000  0.25786000  1
  C  C57  1  0.89933000  0.21401000  0.74214000  1
  C  C58  1  0.03140000  0.34770000  0.24310000  1
  C  C59  1  0.28830000  0.60460000  0.75690000  1
  C  C60  1  0.09780000  0.41740000  0.15240000  1
  C  C61  1  0.44540000  0.76500000  0.84760000  1
  C  C62  1  0.93900000  0.28820000  0.16900000  1
  C  C63  1  0.27000000  0.61920000  0.83100000  1
  C  C64  1  0.00310000  0.35850000  0.07720000  1
  C  C65  1  0.42590000  0.78130000  0.92280000  1
  C  C66  1  0.85600000  0.21520000  0.18500000  1
  C  C67  1  0.17100000  0.53020000  0.81500000  1
  C  C68  1  0.92440000  0.29130000  0.08790000  1
  C  C69  1  0.33650000  0.70340000  0.91210000  1
  C  C70  1  0.98700000  0.36110000  0.99090000  1
  C  C71  1  0.49610000  0.87020000  0.00910000  1
  C  C72  1  0.86110000  0.48700000  0.99090000  1
  C  C73  1  0.37020000  0.99610000  0.00910000  1
  C  C74  1  0.79130000  0.42440000  0.08790000  1
  C  C75  1  0.20340000  0.83650000  0.91210000  1
  C  C76  1  0.71520000  0.35600000  0.18500000  1
  C  C77  1  0.03020000  0.67100000  0.81500000  1
  C  C78  1  0.85850000  0.50310000  0.07720000  1
  C  C79  1  0.28130000  0.92590000  0.92280000  1
  C  C80  1  0.78820000  0.43900000  0.16900000  1
  C  C81  1  0.11920000  0.77000000  0.83100000  1
  C  C82  1  0.91740000  0.59780000  0.15240000  1
  C  C83  1  0.26500000  0.94540000  0.84760000  1
  C  C84  1  0.84770000  0.53140000  0.24310000  1
  C  C85  1  0.10460000  0.78830000  0.75690000  1
  C  C86  1  0.71401000  0.39933000  0.74214000  1
  C  C87  1  0.47187000  0.15719000  0.25786000  1
  C  C88  1  0.91130000  0.61030000  0.23260000  1
  C  C89  1  0.17870000  0.87770000  0.76740000  1
  C  C90  1  0.97187000  0.71401000  0.31468000  1
  C  C91  1  0.15719000  0.89933000  0.68532000  1
  C  C92  1  0.53140000  0.28830000  0.68370000  1
  C  C93  1  0.34770000  0.10460000  0.31630000  1
  C  C94  1  0.61030000  0.37770000  0.69900000  1
  C  C95  1  0.41130000  0.17870000  0.30100000  1
  C  C96  1  0.21520000  0.03020000  0.35920000  1
  C  C97  1  0.35600000  0.17100000  0.64080000  1
  C  C98  1  0.28820000  0.11920000  0.34920000  1
  C  C99  1  0.43900000  0.27000000  0.65080000  1
  C  C100  1  0.59780000  0.44540000  0.68040000  1
  C  C101  1  0.41740000  0.26500000  0.31960000  1
  C  C102  1  0.29130000  0.20340000  0.36690000  1
  C  C103  1  0.42440000  0.33650000  0.63310000  1
  C  C104  1  0.50310000  0.42590000  0.64460000  1
  C  C105  1  0.35850000  0.28130000  0.35540000  1
  C  C106  1  0.87020000  0.86110000  0.37410000  1
  C  C107  1  0.99610000  0.98700000  0.62590000  1
  O  O108  1  0.56385000  0.57532000  0.63669000  1
  O  O109  1  0.42716000  0.43863000  0.36331000  1
  O  O110  1  0.30230000  0.37880000  0.40330000  1
  O  O111  1  0.39900000  0.47550000  0.59670000  1
  O  O112  1  0.53500000  0.63914000  0.36254000  1
  O  O113  1  0.67246000  0.77660000  0.63746000  1
  O  O114  1  0.43451000  0.60929000  0.50000000  1
  O  O115  1  0.28746000  0.50022000  0.29492000  1
  O  O116  1  0.49254000  0.70530000  0.70508000  1
  O  O117  1  0.60550000  0.86279000  0.63629000  1
  O  O118  1  0.46921000  0.72650000  0.36371000  1
  O  O119  1  0.22264000  0.49330000  0.39140000  1
  O  O120  1  0.33124000  0.60190000  0.60860000  1
  O  O121  1  0.70530000  0.00022000  0.21276000  1
  O  O122  1  0.99254000  0.28746000  0.78724000  1
  O  O123  1  0.77660000  0.13914000  0.10414000  1
  O  O124  1  0.17246000  0.53500000  0.89586000  1
  O  O125  1  0.57532000  0.93863000  0.01147000  1
  O  O126  1  0.06385000  0.42716000  0.98853000  1
  O  O127  1  0.86279000  0.22650000  0.25729000  1
  O  O128  1  0.10550000  0.46921000  0.74271000  1
  O  O129  1  0.60190000  0.99330000  0.27066000  1
  O  O130  1  0.83124000  0.22264000  0.72934000  1
  O  O131  1  0.89900000  0.30230000  0.92350000  1
  O  O132  1  0.47550000  0.87880000  0.07650000  1
  O  O133  1  0.60929000  0.10929000  0.17478000  1
  O  O134  1  0.93451000  0.43451000  0.82522000  1
  O  O135  1  0.80230000  0.39900000  0.92350000  1
  O  O136  1  0.37880000  0.97550000  0.07650000  1
  O  O137  1  0.72264000  0.33124000  0.72934000  1
  O  O138  1  0.49330000  0.10190000  0.27066000  1
  O  O139  1  0.72650000  0.36279000  0.25729000  1
  O  O140  1  0.96921000  0.60550000  0.74271000  1
  O  O141  1  0.92716000  0.56385000  0.98853000  1
  O  O142  1  0.43863000  0.07532000  0.01147000  1
  O  O143  1  0.63914000  0.27660000  0.10414000  1
  O  O144  1  0.03500000  0.67246000  0.89586000  1
  O  O145  1  0.50022000  0.20530000  0.21276000  1
  O  O146  1  0.78746000  0.49254000  0.78724000  1
  O  O147  1  0.99330000  0.72264000  0.39140000  1
  O  O148  1  0.10190000  0.83124000  0.60860000  1
  O  O149  1  0.22650000  0.96921000  0.36371000  1
  O  O150  1  0.36279000  0.10550000  0.63629000  1
  O  O151  1  0.00022000  0.78746000  0.29492000  1
  O  O152  1  0.20530000  0.99254000  0.70508000  1
  O  O153  1  0.10929000  0.93451000  0.50000000  1
  O  O154  1  0.13914000  0.03500000  0.36254000  1
  O  O155  1  0.27660000  0.17246000  0.63746000  1
  O  O156  1  0.87880000  0.80230000  0.40330000  1
  O  O157  1  0.97550000  0.89900000  0.59670000  1
  O  O158  1  0.93863000  0.92716000  0.36331000  1
  O  O159  1  0.07532000  0.06385000  0.63669000  1
