# generated using pymatgen
data_Er2FeH2C4(S2O11)2
_symmetry_space_group_name_H-M   'P 1'
_cell_length_a   11.35386631
_cell_length_b   11.35386631
_cell_length_c   12.39640000
_cell_angle_alpha   91.30554119
_cell_angle_beta   91.30554119
_cell_angle_gamma   93.52391508
_symmetry_Int_Tables_number   1
_chemical_formula_structural   Er2FeH2C4(S2O11)2
_chemical_formula_sum   'Er4 Fe2 H4 C8 S8 O44'
_cell_volume   1594.11944913
_cell_formula_units_Z   2
loop_
 _symmetry_equiv_pos_site_id
 _symmetry_equiv_pos_as_xyz
  1  'x, y, z'
loop_
 _atom_site_type_symbol
 _atom_site_label
 _atom_site_symmetry_multiplicity
 _atom_site_fract_x
 _atom_site_fract_y
 _atom_site_fract_z
 _atom_site_occupancy
  C  C0  1  0.93770000  0.97470000  0.00380000  1
  C  C1  1  0.97470000  0.93770000  0.50380000  1
  C  C2  1  0.86050000  0.00750000  0.90880000  1
  C  C3  1  0.00750000  0.86050000  0.40880000  1
  C  C4  1  0.13950000  0.99250000  0.09120000  1
  C  C5  1  0.99250000  0.13950000  0.59120000  1
  C  C6  1  0.06230000  0.02530000  0.99620000  1
  C  C7  1  0.02530000  0.06230000  0.49620000  1
  Er  Er8  1  0.69591000  0.06807000  0.09359000  1
  Er  Er9  1  0.06807000  0.69591000  0.59359000  1
  Er  Er10  1  0.30409000  0.93193000  0.90641000  1
  Er  Er11  1  0.93193000  0.30409000  0.40641000  1
  Fe  Fe12  1  0.95272000  0.04728000  0.25000000  1
  Fe  Fe13  1  0.04728000  0.95272000  0.75000000  1
  H  H14  1  0.88860000  0.94020000  0.50180000  1
  H  H15  1  0.94020000  0.88860000  0.00180000  1
  H  H16  1  0.11140000  0.05980000  0.49820000  1
  H  H17  1  0.05980000  0.11140000  0.99820000  1
  O  O18  1  0.74520000  0.21080000  0.39330000  1
  O  O19  1  0.21080000  0.74520000  0.89330000  1
  O  O20  1  0.88080000  0.00620000  0.10070000  1
  O  O21  1  0.00620000  0.88080000  0.60070000  1
  O  O22  1  0.88260000  0.96840000  0.81660000  1
  O  O23  1  0.96840000  0.88260000  0.31660000  1
  O  O24  1  0.77090000  0.06370000  0.92650000  1
  O  O25  1  0.06370000  0.77090000  0.42650000  1
  O  O26  1  0.75900000  0.03960000  0.27570000  1
  O  O27  1  0.03960000  0.75900000  0.77570000  1
  O  O28  1  0.60030000  0.16130000  0.25130000  1
  O  O29  1  0.16130000  0.60030000  0.75130000  1
  O  O30  1  0.45920000  0.27120000  0.87720000  1
  O  O31  1  0.27120000  0.45920000  0.37720000  1
  O  O32  1  0.55730000  0.16750000  0.00660000  1
  O  O33  1  0.16750000  0.55730000  0.50660000  1
  O  O34  1  0.60800000  0.04400000  0.41150000  1
  O  O35  1  0.04400000  0.60800000  0.91150000  1
  O  O36  1  0.46800000  0.06060000  0.85460000  1
  O  O37  1  0.06060000  0.46800000  0.35460000  1
  O  O38  1  0.65100000  0.87420000  0.01890000  1
  O  O39  1  0.87420000  0.65100000  0.51890000  1
  O  O40  1  0.34900000  0.12580000  0.98110000  1
  O  O41  1  0.12580000  0.34900000  0.48110000  1
  O  O42  1  0.53200000  0.93940000  0.14540000  1
  O  O43  1  0.93940000  0.53200000  0.64540000  1
  O  O44  1  0.39200000  0.95600000  0.58850000  1
  O  O45  1  0.95600000  0.39200000  0.08850000  1
  O  O46  1  0.44270000  0.83250000  0.99340000  1
  O  O47  1  0.83250000  0.44270000  0.49340000  1
  O  O48  1  0.54080000  0.72880000  0.12280000  1
  O  O49  1  0.72880000  0.54080000  0.62280000  1
  O  O50  1  0.39970000  0.83870000  0.74870000  1
  O  O51  1  0.83870000  0.39970000  0.24870000  1
  O  O52  1  0.24100000  0.96040000  0.72430000  1
  O  O53  1  0.96040000  0.24100000  0.22430000  1
  O  O54  1  0.22910000  0.93630000  0.07350000  1
  O  O55  1  0.93630000  0.22910000  0.57350000  1
  O  O56  1  0.11740000  0.03160000  0.18340000  1
  O  O57  1  0.03160000  0.11740000  0.68340000  1
  O  O58  1  0.11920000  0.99380000  0.89930000  1
  O  O59  1  0.99380000  0.11920000  0.39930000  1
  O  O60  1  0.25480000  0.78920000  0.60670000  1
  O  O61  1  0.78920000  0.25480000  0.10670000  1
  S  S62  1  0.67664000  0.11372000  0.33693000  1
  S  S63  1  0.11372000  0.67664000  0.83693000  1
  S  S64  1  0.45955000  0.16139000  0.92910000  1
  S  S65  1  0.16139000  0.45955000  0.42910000  1
  S  S66  1  0.54045000  0.83861000  0.07090000  1
  S  S67  1  0.83861000  0.54045000  0.57090000  1
  S  S68  1  0.32336000  0.88628000  0.66307000  1
  S  S69  1  0.88628000  0.32336000  0.16307000  1
