# generated using pymatgen
data_ZnH4(C2O)6
_symmetry_space_group_name_H-M   'P 1'
_cell_length_a   9.51370000
_cell_length_b   16.11340000
_cell_length_c   27.58450000
_cell_angle_alpha   91.80200000
_cell_angle_beta   91.48900000
_cell_angle_gamma   94.44100000
_symmetry_Int_Tables_number   1
_chemical_formula_structural   ZnH4(C2O)6
_chemical_formula_sum   'Zn8 H32 C96 O48'
_cell_volume   4212.15504259
_cell_formula_units_Z   8
loop_
 _symmetry_equiv_pos_site_id
 _symmetry_equiv_pos_as_xyz
  1  'x, y, z'
loop_
 _atom_site_type_symbol
 _atom_site_label
 _atom_site_symmetry_multiplicity
 _atom_site_fract_x
 _atom_site_fract_y
 _atom_site_fract_z
 _atom_site_occupancy
  Zn  Zn0  1  0.02839000  0.98669000  0.84837000  1
  Zn  Zn1  1  0.12525000  0.04650000  0.47407000  1
  Zn  Zn2  1  0.37893000  0.46171000  0.03075000  1
  Zn  Zn3  1  0.47277000  0.46764000  0.65541000  1
  Zn  Zn4  1  0.52723000  0.53236000  0.34459000  1
  Zn  Zn5  1  0.62107000  0.53829000  0.96925000  1
  Zn  Zn6  1  0.87475000  0.95350000  0.52593000  1
  Zn  Zn7  1  0.97161000  0.01331000  0.15163000  1
  H  H8  1  0.02210000  0.34840000  0.70250000  1
  H  H9  1  0.03890000  0.29730000  0.16600000  1
  H  H10  1  0.05400000  0.57010000  0.95150000  1
  H  H11  1  0.08670000  0.85980000  0.25730000  1
  H  H12  1  0.13470000  0.83650000  0.63160000  1
  H  H13  1  0.16320000  0.86000000  0.36390000  1
  H  H14  1  0.19710000  0.25030000  0.58360000  1
  H  H15  1  0.20320000  0.86920000  0.72130000  1
  H  H16  1  0.28370000  0.60110000  0.76630000  1
  H  H17  1  0.31840000  0.23020000  0.94640000  1
  H  H18  1  0.34830000  0.67500000  0.12880000  1
  H  H19  1  0.36080000  0.64090000  0.85810000  1
  H  H20  1  0.44300000  0.91670000  0.54220000  1
  H  H21  1  0.44370000  0.10700000  0.82590000  1
  H  H22  1  0.45140000  0.69080000  0.22990000  1
  H  H23  1  0.46900000  0.23380000  0.34750000  1
  H  H24  1  0.53100000  0.76620000  0.65250000  1
  H  H25  1  0.54860000  0.30920000  0.77010000  1
  H  H26  1  0.55630000  0.89300000  0.17410000  1
  H  H27  1  0.55700000  0.08330000  0.45780000  1
  H  H28  1  0.63920000  0.35910000  0.14190000  1
  H  H29  1  0.65170000  0.32500000  0.87120000  1
  H  H30  1  0.68160000  0.76980000  0.05360000  1
  H  H31  1  0.71630000  0.39890000  0.23370000  1
  H  H32  1  0.79680000  0.13080000  0.27870000  1
  H  H33  1  0.80290000  0.74970000  0.41640000  1
  H  H34  1  0.83680000  0.14000000  0.63610000  1
  H  H35  1  0.86530000  0.16350000  0.36840000  1
  H  H36  1  0.91330000  0.14020000  0.74270000  1
  H  H37  1  0.94600000  0.42990000  0.04850000  1
  H  H38  1  0.96110000  0.70270000  0.83400000  1
  H  H39  1  0.97790000  0.65160000  0.29750000  1
  C  C40  1  0.00890000  0.11850000  0.56388000  1
  C  C41  1  0.01550000  0.18640000  0.60321000  1
  C  C42  1  0.01650000  0.36330000  0.10474000  1
  C  C43  1  0.02080000  0.30660000  0.67735000  1
  C  C44  1  0.02720000  0.67570000  0.85308000  1
  C  C45  1  0.08270000  0.59820000  0.92323000  1
  C  C46  1  0.08690000  0.75580000  0.32519000  1
  C  C47  1  0.08975000  0.81644000  0.36212000  1
  C  C48  1  0.12450000  0.24890000  0.60663000  1
  C  C49  1  0.12740000  0.30950000  0.64385000  1
  C  C50  1  0.12980000  0.85380000  0.81099000  1
  C  C51  1  0.16090000  0.82490000  0.25139000  1
  C  C52  1  0.16590000  0.67550000  0.83855000  1
  C  C53  1  0.16790000  0.92480000  0.55198000  1
  C  C54  1  0.16930000  0.36620000  0.09127000  1
  C  C55  1  0.18480000  0.79020000  0.77692000  1
  C  C56  1  0.18780000  0.76550000  0.28502000  1
  C  C57  1  0.19160000  0.89940000  0.17470000  1
  C  C58  1  0.20940000  0.70910000  0.79068000  1
  C  C59  1  0.22060000  0.81450000  0.73056000  1
  C  C60  1  0.22290000  0.60060000  0.91013000  1
  C  C61  1  0.23040000  0.83800000  0.62239000  1
  C  C62  1  0.23530000  0.09810000  0.88990000  1
  C  C63  1  0.23690000  0.83590000  0.20964000  1
  C  C64  1  0.25070000  0.37370000  0.65133000  1
  C  C65  1  0.26510000  0.63940000  0.86733000  1
  C  C66  1  0.26870000  0.65620000  0.75719000  1
  C  C67  1  0.27280000  0.88090000  0.58125000  1
  C  C68  1  0.28080000  0.76260000  0.69732000  1
  C  C69  1  0.30030000  0.71510000  0.27762000  1
  C  C70  1  0.30690000  0.68070000  0.71092000  1
  C  C71  1  0.32660000  0.79740000  0.64998000  1
  C  C72  1  0.32910000  0.56039000  0.94054000  1
  C  C73  1  0.33790000  0.15350000  0.41934000  1
  C  C74  1  0.34630000  0.78380000  0.20119000  1
  C  C75  1  0.34770000  0.65690000  0.31564000  1
  C  C76  1  0.35620000  0.61680000  0.67624000  1
  C  C77  1  0.36160000  0.15840000  0.88662000  1
  C  C78  1  0.37630000  0.72510000  0.23553000  1
  C  C79  1  0.37980000  0.22610000  0.91996000  1
  C  C80  1  0.41260000  0.88460000  0.56890000  1
  C  C81  1  0.42100000  0.71780000  0.12460000  1
  C  C82  1  0.43680000  0.78590000  0.15751000  1
  C  C83  1  0.45500000  0.15320000  0.84830000  1
  C  C84  1  0.46610000  0.79700000  0.63525000  1
  C  C85  1  0.48990000  0.15800000  0.40495000  1
  C  C86  1  0.49000000  0.28780000  0.91387000  1
  C  C87  1  0.49670000  0.63530000  0.05344000  1
  C  C88  1  0.50330000  0.36470000  0.94656000  1
  C  C89  1  0.51000000  0.71220000  0.08613000  1
  C  C90  1  0.51010000  0.84200000  0.59505000  1
  C  C91  1  0.53390000  0.20300000  0.36475000  1
  C  C92  1  0.54500000  0.84680000  0.15170000  1
  C  C93  1  0.56320000  0.21410000  0.84249000  1
  C  C94  1  0.57900000  0.28220000  0.87540000  1
  C  C95  1  0.58740000  0.11540000  0.43110000  1
  C  C96  1  0.62020000  0.77390000  0.08004000  1
  C  C97  1  0.62370000  0.27490000  0.76447000  1
  C  C98  1  0.63840000  0.84160000  0.11338000  1
  C  C99  1  0.64380000  0.38320000  0.32376000  1
  C  C100  1  0.65230000  0.34310000  0.68436000  1
  C  C101  1  0.65370000  0.21620000  0.79881000  1
  C  C102  1  0.66210000  0.84650000  0.58066000  1
  C  C103  1  0.67090000  0.43961000  0.05946000  1
  C  C104  1  0.67340000  0.20260000  0.35002000  1
  C  C105  1  0.69310000  0.31930000  0.28908000  1
  C  C106  1  0.69970000  0.28490000  0.72238000  1
  C  C107  1  0.71920000  0.23740000  0.30268000  1
  C  C108  1  0.72720000  0.11910000  0.41875000  1
  C  C109  1  0.73130000  0.34380000  0.24281000  1
  C  C110  1  0.73490000  0.36060000  0.13267000  1
  C  C111  1  0.74930000  0.62630000  0.34867000  1
  C  C112  1  0.76310000  0.16410000  0.79036000  1
  C  C113  1  0.76470000  0.90190000  0.11010000  1
  C  C114  1  0.76960000  0.16200000  0.37761000  1
  C  C115  1  0.77710000  0.39940000  0.08987000  1
  C  C116  1  0.77940000  0.18550000  0.26944000  1
  C  C117  1  0.79060000  0.29090000  0.20932000  1
  C  C118  1  0.80840000  0.10060000  0.82530000  1
  C  C119  1  0.81220000  0.23450000  0.71498000  1
  C  C120  1  0.81520000  0.20980000  0.22308000  1
  C  C121  1  0.83070000  0.63380000  0.90873000  1
  C  C122  1  0.83210000  0.07520000  0.44802000  1
  C  C123  1  0.83410000  0.32450000  0.16145000  1
  C  C124  1  0.83910000  0.17510000  0.74861000  1
  C  C125  1  0.87020000  0.14620000  0.18901000  1
  C  C126  1  0.87260000  0.69050000  0.35615000  1
  C  C127  1  0.87550000  0.75110000  0.39337000  1
  C  C128  1  0.91025000  0.18356000  0.63788000  1
  C  C129  1  0.91310000  0.24420000  0.67481000  1
  C  C130  1  0.91730000  0.40180000  0.07677000  1
  C  C131  1  0.97280000  0.32430000  0.14692000  1
  C  C132  1  0.97920000  0.69340000  0.32265000  1
  C  C133  1  0.98350000  0.63670000  0.89526000  1
  C  C134  1  0.98450000  0.81360000  0.39679000  1
  C  C135  1  0.99110000  0.88150000  0.43612000  1
  O  O136  1  0.04147000  0.90821000  0.56011000  1
  O  O137  1  0.05370000  0.90687000  0.79229000  1
  O  O138  1  0.07890000  0.94030000  0.43218000  1
  O  O139  1  0.09260000  0.12945000  0.53023000  1
  O  O140  1  0.10360000  0.94803000  0.19152000  1
  O  O141  1  0.15780000  0.85568000  0.85537000  1
  O  O142  1  0.16195000  0.09627000  0.92671000  1
  O  O143  1  0.20190000  0.41608000  0.05759000  1
  O  O144  1  0.20818000  0.05121000  0.85216000  1
  O  O145  1  0.21623000  0.97435000  0.52247000  1
  O  O146  1  0.23804000  0.90137000  0.13301000  1
  O  O147  1  0.24990000  0.32219000  0.11322000  1
  O  O148  1  0.26050000  0.20671000  0.40403000  1
  O  O149  1  0.26810000  0.41287000  0.69045000  1
  O  O150  1  0.28460000  0.51966000  0.97572000  1
  O  O151  1  0.30140000  0.09479000  0.44689000  1
  O  O152  1  0.30320000  0.60857000  0.63466000  1
  O  O153  1  0.33070000  0.67635000  0.35890000  1
  O  O154  1  0.33693000  0.38440000  0.61679000  1
  O  O155  1  0.40430000  0.59245000  0.30059000  1
  O  O156  1  0.40990000  0.57762000  0.06478000  1
  O  O157  1  0.42420000  0.36543000  0.98282000  1
  O  O158  1  0.45060000  0.57292000  0.69314000  1
  O  O159  1  0.45680000  0.57176000  0.92873000  1
  O  O160  1  0.54320000  0.42824000  0.07127000  1
  O  O161  1  0.54940000  0.42708000  0.30686000  1
  O  O162  1  0.57580000  0.63457000  0.01718000  1
  O  O163  1  0.59010000  0.42238000  0.93522000  1
  O  O164  1  0.59570000  0.40755000  0.69941000  1
  O  O165  1  0.66307000  0.61560000  0.38321000  1
  O  O166  1  0.66930000  0.32365000  0.64110000  1
  O  O167  1  0.69680000  0.39143000  0.36534000  1
  O  O168  1  0.69860000  0.90521000  0.55311000  1
  O  O169  1  0.71540000  0.48034000  0.02428000  1
  O  O170  1  0.73190000  0.58713000  0.30955000  1
  O  O171  1  0.73950000  0.79329000  0.59597000  1
  O  O172  1  0.75010000  0.67781000  0.88678000  1
  O  O173  1  0.76196000  0.09863000  0.86699000  1
  O  O174  1  0.78377000  0.02565000  0.47753000  1
  O  O175  1  0.79182000  0.94879000  0.14784000  1
  O  O176  1  0.79810000  0.58392000  0.94241000  1
  O  O177  1  0.83805000  0.90373000  0.07329000  1
  O  O178  1  0.84220000  0.14432000  0.14463000  1
  O  O179  1  0.89640000  0.05197000  0.80848000  1
  O  O180  1  0.90740000  0.87055000  0.46977000  1
  O  O181  1  0.92110000  0.05970000  0.56782000  1
  O  O182  1  0.94630000  0.09313000  0.20771000  1
  O  O183  1  0.95853000  0.09179000  0.43989000  1
