# generated using pymatgen
data_Zn2SiH21C34N2O9
_symmetry_space_group_name_H-M   'P 1'
_cell_length_a   14.85230000
_cell_length_b   16.54920000
_cell_length_c   17.73130000
_cell_angle_alpha   112.75800000
_cell_angle_beta   90.00000000
_cell_angle_gamma   90.00000000
_symmetry_Int_Tables_number   1
_chemical_formula_structural   Zn2SiH21C34N2O9
_chemical_formula_sum   'Zn8 Si4 H84 C136 N8 O36'
_cell_volume   4018.93921504
_cell_formula_units_Z   4
loop_
 _symmetry_equiv_pos_site_id
 _symmetry_equiv_pos_as_xyz
  1  'x, y, z'
loop_
 _atom_site_type_symbol
 _atom_site_label
 _atom_site_symmetry_multiplicity
 _atom_site_fract_x
 _atom_site_fract_y
 _atom_site_fract_z
 _atom_site_occupancy
  Zn  Zn0  1  0.30535000  0.95268000  0.14101000  1
  Zn  Zn1  1  0.19465000  0.95268000  0.64101000  1
  Zn  Zn2  1  0.35496000  0.78288000  0.99068000  1
  Zn  Zn3  1  0.14504000  0.78288000  0.49068000  1
  Zn  Zn4  1  0.85496000  0.21712000  0.50932000  1
  Zn  Zn5  1  0.64504000  0.21712000  0.00932000  1
  Zn  Zn6  1  0.80535000  0.04732000  0.35899000  1
  Zn  Zn7  1  0.69465000  0.04732000  0.85899000  1
  Si  Si8  1  0.91751000  0.63725000  0.84062000  1
  Si  Si9  1  0.58249000  0.63725000  0.34062000  1
  Si  Si10  1  0.41751000  0.36275000  0.65938000  1
  Si  Si11  1  0.08249000  0.36275000  0.15938000  1
  H  H12  1  0.84480000  0.99810000  0.98670000  1
  H  H13  1  0.65520000  0.99810000  0.48670000  1
  H  H14  1  0.93890000  0.99300000  0.20700000  1
  H  H15  1  0.56110000  0.99300000  0.70700000  1
  H  H16  1  0.93540000  0.94810000  0.87100000  1
  H  H17  1  0.56460000  0.94810000  0.37100000  1
  H  H18  1  0.29690000  0.86060000  0.37850000  1
  H  H19  1  0.20310000  0.86060000  0.87850000  1
  H  H20  1  0.46580000  0.85610000  0.65240000  1
  H  H21  1  0.03420000  0.85610000  0.15240000  1
  H  H22  1  0.26660000  0.84860000  0.74790000  1
  H  H23  1  0.23340000  0.84860000  0.24790000  1
  H  H24  1  0.88710000  0.80580000  0.13380000  1
  H  H25  1  0.61290000  0.80580000  0.63380000  1
  H  H26  1  0.83360000  0.80080000  0.84680000  1
  H  H27  1  0.66640000  0.80080000  0.34680000  1
  H  H28  1  0.91580000  0.74350000  0.26080000  1
  H  H29  1  0.58420000  0.74350000  0.76080000  1
  H  H30  1  0.41840000  0.72940000  0.41390000  1
  H  H31  1  0.08160000  0.72940000  0.91390000  1
  H  H32  1  0.83600000  0.72040000  0.00370000  1
  H  H33  1  0.66400000  0.72040000  0.50370000  1
  H  H34  1  0.95050000  0.71270000  0.71460000  1
  H  H35  1  0.54950000  0.71270000  0.21460000  1
  H  H36  1  0.40100000  0.70870000  0.67910000  1
  H  H37  1  0.09900000  0.70870000  0.17910000  1
  H  H38  1  0.29480000  0.65200000  0.14630000  1
  H  H39  1  0.20520000  0.65200000  0.64630000  1
  H  H40  1  0.89450000  0.60140000  0.24740000  1
  H  H41  1  0.60550000  0.60140000  0.74740000  1
  H  H42  1  0.41670000  0.59580000  0.55350000  1
  H  H43  1  0.08330000  0.59580000  0.05350000  1
  H  H44  1  0.28380000  0.57650000  0.23040000  1
  H  H45  1  0.21620000  0.57650000  0.73040000  1
  H  H46  1  0.40630000  0.56360000  0.30170000  1
  H  H47  1  0.09370000  0.56360000  0.80170000  1
  H  H48  1  0.75780000  0.55660000  0.27950000  1
  H  H49  1  0.74220000  0.55660000  0.77950000  1
  H  H50  1  0.92070000  0.54780000  0.95710000  1
  H  H51  1  0.57930000  0.54780000  0.45710000  1
  H  H52  1  0.40420000  0.53690000  0.78620000  1
  H  H53  1  0.09580000  0.53690000  0.28620000  1
  H  H54  1  0.90420000  0.46310000  0.71380000  1
  H  H55  1  0.59580000  0.46310000  0.21380000  1
  H  H56  1  0.42070000  0.45220000  0.54290000  1
  H  H57  1  0.07930000  0.45220000  0.04290000  1
  H  H58  1  0.25780000  0.44340000  0.22050000  1
  H  H59  1  0.24220000  0.44340000  0.72050000  1
  H  H60  1  0.90630000  0.43640000  0.19830000  1
  H  H61  1  0.59370000  0.43640000  0.69830000  1
  H  H62  1  0.78380000  0.42350000  0.26960000  1
  H  H63  1  0.71620000  0.42350000  0.76960000  1
  H  H64  1  0.91670000  0.40420000  0.94650000  1
  H  H65  1  0.58330000  0.40420000  0.44650000  1
  H  H66  1  0.39450000  0.39860000  0.25260000  1
  H  H67  1  0.10550000  0.39860000  0.75260000  1
  H  H68  1  0.79480000  0.34800000  0.35370000  1
  H  H69  1  0.70520000  0.34800000  0.85370000  1
  H  H70  1  0.90100000  0.29130000  0.82090000  1
  H  H71  1  0.59900000  0.29130000  0.32090000  1
  H  H72  1  0.45050000  0.28730000  0.78540000  1
  H  H73  1  0.04950000  0.28730000  0.28540000  1
  H  H74  1  0.33600000  0.27960000  0.49630000  1
  H  H75  1  0.16400000  0.27960000  0.99630000  1
  H  H76  1  0.91840000  0.27060000  0.08610000  1
  H  H77  1  0.58160000  0.27060000  0.58610000  1
  H  H78  1  0.41580000  0.25650000  0.23920000  1
  H  H79  1  0.08420000  0.25650000  0.73920000  1
  H  H80  1  0.33360000  0.19920000  0.65320000  1
  H  H81  1  0.16640000  0.19920000  0.15320000  1
  H  H82  1  0.38710000  0.19420000  0.36620000  1
  H  H83  1  0.11290000  0.19420000  0.86620000  1
  H  H84  1  0.76660000  0.15140000  0.75210000  1
  H  H85  1  0.73340000  0.15140000  0.25210000  1
  H  H86  1  0.96580000  0.14390000  0.84760000  1
  H  H87  1  0.53420000  0.14390000  0.34760000  1
  H  H88  1  0.79690000  0.13940000  0.12150000  1
  H  H89  1  0.70310000  0.13940000  0.62150000  1
  H  H90  1  0.43540000  0.05190000  0.62900000  1
  H  H91  1  0.06460000  0.05190000  0.12900000  1
  H  H92  1  0.43890000  0.00700000  0.29300000  1
  H  H93  1  0.06110000  0.00700000  0.79300000  1
  H  H94  1  0.34480000  0.00190000  0.51330000  1
  H  H95  1  0.15520000  0.00190000  0.01330000  1
  C  C96  1  0.90710000  0.99830000  0.99180000  1
  C  C97  1  0.59290000  0.99830000  0.49180000  1
  C  C98  1  0.44650000  0.97250000  0.43180000  1
  C  C99  1  0.05350000  0.97250000  0.93180000  1
  C  C100  1  0.96120000  0.96940000  0.92290000  1
  C  C101  1  0.53880000  0.96940000  0.42290000  1
  C  C102  1  0.39540000  0.96890000  0.29780000  1
  C  C103  1  0.10460000  0.96890000  0.79780000  1
  C  C104  1  0.31770000  0.88850000  0.34530000  1
  C  C105  1  0.18230000  0.88850000  0.84530000  1
  C  C106  1  0.28310000  0.88210000  0.27350000  1
  C  C107  1  0.21690000  0.88210000  0.77350000  1
  C  C108  1  0.81100000  0.87900000  0.31870000  1
  C  C109  1  0.68900000  0.87900000  0.81870000  1
  C  C110  1  0.32990000  0.82680000  0.54640000  1
  C  C111  1  0.17010000  0.82680000  0.04640000  1
  C  C112  1  0.48560000  0.82010000  0.60050000  1
  C  C113  1  0.01440000  0.82010000  0.10050000  1
  C  C114  1  0.42650000  0.79630000  0.53500000  1
  C  C115  1  0.07350000  0.79630000  0.03500000  1
  C  C116  1  0.92600000  0.79070000  0.08930000  1
  C  C117  1  0.57400000  0.79070000  0.58930000  1
  C  C118  1  0.79310000  0.78640000  0.30630000  1
  C  C119  1  0.70690000  0.78640000  0.80630000  1
  C  C120  1  0.78840000  0.75930000  0.82550000  1
  C  C121  1  0.71160000  0.75930000  0.32550000  1
  C  C122  1  0.45750000  0.74440000  0.45830000  1
  C  C123  1  0.04250000  0.74440000  0.95830000  1
  C  C124  1  0.89580000  0.73860000  0.01140000  1
  C  C125  1  0.60420000  0.73860000  0.51140000  1
  C  C126  1  0.42940000  0.73510000  0.11510000  1
  C  C127  1  0.07060000  0.73510000  0.61510000  1
  C  C128  1  0.86100000  0.72650000  0.27550000  1
  C  C129  1  0.63900000  0.72650000  0.77550000  1
  C  C130  1  0.95340000  0.71350000  0.94530000  1
  C  C131  1  0.54660000  0.71350000  0.44530000  1
  C  C132  1  0.39000000  0.70970000  0.82700000  1
  C  C133  1  0.11000000  0.70970000  0.32700000  1
  C  C134  1  0.42260000  0.68930000  0.17090000  1
  C  C135  1  0.07740000  0.68930000  0.67090000  1
  C  C136  1  0.49630000  0.68450000  0.21780000  1
  C  C137  1  0.00370000  0.68450000  0.71780000  1
  C  C138  1  0.80650000  0.67270000  0.81460000  1
  C  C139  1  0.69350000  0.67270000  0.31460000  1
  C  C140  1  0.40460000  0.65130000  0.67570000  1
  C  C141  1  0.09540000  0.65130000  0.17570000  1
  C  C142  1  0.34460000  0.64870000  0.17680000  1
  C  C143  1  0.15540000  0.64870000  0.67680000  1
  C  C144  1  0.84780000  0.64170000  0.26660000  1
  C  C145  1  0.65220000  0.64170000  0.76660000  1
  C  C146  1  0.49290000  0.63940000  0.26870000  1
  C  C147  1  0.00710000  0.63940000  0.76870000  1
  C  C148  1  0.40150000  0.63510000  0.74460000  1
  C  C149  1  0.09850000  0.63510000  0.24460000  1
  C  C150  1  0.76520000  0.61470000  0.28590000  1
  C  C151  1  0.73480000  0.61470000  0.78590000  1
  C  C152  1  0.33780000  0.60310000  0.22650000  1
  C  C153  1  0.16220000  0.60310000  0.72650000  1
  C  C154  1  0.41060000  0.59690000  0.27000000  1
  C  C155  1  0.08940000  0.59690000  0.77000000  1
  C  C156  1  0.41310000  0.58370000  0.60040000  1
  C  C157  1  0.08690000  0.58370000  0.10040000  1
  C  C158  1  0.40590000  0.54790000  0.73860000  1
  C  C159  1  0.09410000  0.54790000  0.23860000  1
  C  C160  1  0.91270000  0.52180000  0.83590000  1
  C  C161  1  0.58730000  0.52180000  0.33590000  1
  C  C162  1  0.91620000  0.50250000  0.90590000  1
  C  C163  1  0.58380000  0.50250000  0.40590000  1
  C  C164  1  0.41620000  0.49750000  0.59410000  1
  C  C165  1  0.08380000  0.49750000  0.09410000  1
  C  C166  1  0.41270000  0.47820000  0.66410000  1
  C  C167  1  0.08730000  0.47820000  0.16410000  1
  C  C168  1  0.90590000  0.45210000  0.76140000  1
  C  C169  1  0.59410000  0.45210000  0.26140000  1
  C  C170  1  0.91310000  0.41630000  0.89960000  1
  C  C171  1  0.58690000  0.41630000  0.39960000  1
  C  C172  1  0.91060000  0.40310000  0.23000000  1
  C  C173  1  0.58940000  0.40310000  0.73000000  1
  C  C174  1  0.83780000  0.39690000  0.27350000  1
  C  C175  1  0.66220000  0.39690000  0.77350000  1
  C  C176  1  0.26520000  0.38530000  0.21410000  1
  C  C177  1  0.23480000  0.38530000  0.71410000  1
  C  C178  1  0.90150000  0.36490000  0.75540000  1
  C  C179  1  0.59850000  0.36490000  0.25540000  1
  C  C180  1  0.99290000  0.36060000  0.23130000  1
  C  C181  1  0.50710000  0.36060000  0.73130000  1
  C  C182  1  0.34780000  0.35830000  0.23340000  1
  C  C183  1  0.15220000  0.35830000  0.73340000  1
  C  C184  1  0.84460000  0.35130000  0.32320000  1
  C  C185  1  0.65540000  0.35130000  0.82320000  1
  C  C186  1  0.90460000  0.34870000  0.82430000  1
  C  C187  1  0.59540000  0.34870000  0.32430000  1
  C  C188  1  0.30650000  0.32730000  0.68540000  1
  C  C189  1  0.19350000  0.32730000  0.18540000  1
  C  C190  1  0.99630000  0.31550000  0.28220000  1
  C  C191  1  0.50370000  0.31550000  0.78220000  1
  C  C192  1  0.92260000  0.31070000  0.32910000  1
  C  C193  1  0.57740000  0.31070000  0.82910000  1
  C  C194  1  0.89000000  0.29030000  0.67300000  1
  C  C195  1  0.61000000  0.29030000  0.17300000  1
  C  C196  1  0.45340000  0.28650000  0.55470000  1
  C  C197  1  0.04660000  0.28650000  0.05470000  1
  C  C198  1  0.36100000  0.27350000  0.22450000  1
  C  C199  1  0.13900000  0.27350000  0.72450000  1
  C  C200  1  0.92940000  0.26490000  0.38490000  1
  C  C201  1  0.57060000  0.26490000  0.88490000  1
  C  C202  1  0.39580000  0.26140000  0.48860000  1
  C  C203  1  0.10420000  0.26140000  0.98860000  1
  C  C204  1  0.95750000  0.25560000  0.04170000  1
  C  C205  1  0.54250000  0.25560000  0.54170000  1
  C  C206  1  0.28840000  0.24070000  0.67450000  1
  C  C207  1  0.21160000  0.24070000  0.17450000  1
  C  C208  1  0.29310000  0.21360000  0.19370000  1
  C  C209  1  0.20690000  0.21360000  0.69370000  1
  C  C210  1  0.42600000  0.20930000  0.41070000  1
  C  C211  1  0.07400000  0.20930000  0.91070000  1
  C  C212  1  0.92650000  0.20370000  0.96500000  1
  C  C213  1  0.57350000  0.20370000  0.46500000  1
  C  C214  1  0.98560000  0.17990000  0.89950000  1
  C  C215  1  0.51440000  0.17990000  0.39950000  1
  C  C216  1  0.82990000  0.17320000  0.95360000  1
  C  C217  1  0.67010000  0.17320000  0.45360000  1
  C  C218  1  0.31100000  0.12100000  0.18130000  1
  C  C219  1  0.18900000  0.12100000  0.68130000  1
  C  C220  1  0.78310000  0.11790000  0.22650000  1
  C  C221  1  0.71690000  0.11790000  0.72650000  1
  C  C222  1  0.81770000  0.11150000  0.15470000  1
  C  C223  1  0.68230000  0.11150000  0.65470000  1
  C  C224  1  0.89540000  0.03110000  0.20220000  1
  C  C225  1  0.60460000  0.03110000  0.70220000  1
  C  C226  1  0.46120000  0.03060000  0.57710000  1
  C  C227  1  0.03880000  0.03060000  0.07710000  1
  C  C228  1  0.94650000  0.02750000  0.06820000  1
  C  C229  1  0.55350000  0.02750000  0.56820000  1
  C  C230  1  0.40710000  0.00170000  0.50820000  1
  C  C231  1  0.09290000  0.00170000  0.00820000  1
  N  N232  1  0.38950000  0.94410000  0.36030000  1
  N  N233  1  0.11050000  0.94410000  0.86030000  1
  N  N234  1  0.33280000  0.93320000  0.24390000  1
  N  N235  1  0.16720000  0.93320000  0.74390000  1
  N  N236  1  0.83280000  0.06680000  0.25610000  1
  N  N237  1  0.66720000  0.06680000  0.75610000  1
  N  N238  1  0.88950000  0.05590000  0.13970000  1
  N  N239  1  0.61050000  0.05590000  0.63970000  1
  O  O240  1  0.75240000  0.93430000  0.84830000  1
  O  O241  1  0.74760000  0.93430000  0.34830000  1
  O  O242  1  0.38910000  0.90370000  0.04960000  1
  O  O243  1  0.11090000  0.90370000  0.54960000  1
  O  O244  1  0.88430000  0.90210000  0.30050000  1
  O  O245  1  0.61570000  0.90210000  0.80050000  1
  O  O246  1  0.30750000  0.88040000  0.61340000  1
  O  O247  1  0.19250000  0.88040000  0.11340000  1
  O  O248  1  0.27900000  0.79270000  0.48410000  1
  O  O249  1  0.22100000  0.79270000  0.98410000  1
  O  O250  1  0.37420000  0.78290000  0.83020000  1
  O  O251  1  0.12580000  0.78290000  0.33020000  1
  O  O252  1  0.49660000  0.77430000  0.11340000  1
  O  O253  1  0.00340000  0.77430000  0.61340000  1
  O  O254  1  0.36000000  0.73060000  0.07180000  1
  O  O255  1  0.14000000  0.73060000  0.57180000  1
  O  O256  1  0.39260000  0.69000000  0.88970000  1
  O  O257  1  0.10740000  0.69000000  0.38970000  1
  O  O258  1  0.89260000  0.31000000  0.61030000  1
  O  O259  1  0.60740000  0.31000000  0.11030000  1
  O  O260  1  0.86000000  0.26940000  0.42820000  1
  O  O261  1  0.64000000  0.26940000  0.92820000  1
  O  O262  1  0.99660000  0.22570000  0.38660000  1
  O  O263  1  0.50340000  0.22570000  0.88660000  1
  O  O264  1  0.87420000  0.21710000  0.66980000  1
  O  O265  1  0.62580000  0.21710000  0.16980000  1
  O  O266  1  0.77900000  0.20730000  0.01590000  1
  O  O267  1  0.72100000  0.20730000  0.51590000  1
  O  O268  1  0.80750000  0.11960000  0.88660000  1
  O  O269  1  0.69250000  0.11960000  0.38660000  1
  O  O270  1  0.38430000  0.09790000  0.19950000  1
  O  O271  1  0.11570000  0.09790000  0.69950000  1
  O  O272  1  0.88910000  0.09630000  0.45040000  1
  O  O273  1  0.61090000  0.09630000  0.95040000  1
  O  O274  1  0.25240000  0.06570000  0.65170000  1
  O  O275  1  0.24760000  0.06570000  0.15170000  1
