# generated using pymatgen
data_Cu6H18C51O28
_symmetry_space_group_name_H-M   'P 1'
_cell_length_a   22.96140000
_cell_length_b   24.52029725
_cell_length_c   24.52029725
_cell_angle_alpha   77.33662476
_cell_angle_beta   62.08169711
_cell_angle_gamma   62.08169711
_symmetry_Int_Tables_number   1
_chemical_formula_structural   Cu6H18C51O28
_chemical_formula_sum   'Cu24 H72 C204 O112'
_cell_volume   10778.96527964
_cell_formula_units_Z   4
loop_
 _symmetry_equiv_pos_site_id
 _symmetry_equiv_pos_as_xyz
  1  'x, y, z'
loop_
 _atom_site_type_symbol
 _atom_site_label
 _atom_site_symmetry_multiplicity
 _atom_site_fract_x
 _atom_site_fract_y
 _atom_site_fract_z
 _atom_site_occupancy
  C  C0  1  0.64960000  0.83450000  0.16550000  1
  C  C1  1  0.35040000  0.83450000  0.16550000  1
  C  C2  1  0.55340000  0.77820000  0.22180000  1
  C  C3  1  0.44660000  0.77820000  0.22180000  1
  C  C4  1  0.50000000  0.74760000  0.25240000  1
  C  C5  1  0.50000000  0.25240000  0.74760000  1
  C  C6  1  0.55340000  0.22180000  0.77820000  1
  C  C7  1  0.44660000  0.22180000  0.77820000  1
  C  C8  1  0.64960000  0.16550000  0.83450000  1
  C  C9  1  0.35040000  0.16550000  0.83450000  1
  C  C10  1  0.61666000  0.75276000  0.16872000  1
  C  C11  1  0.46186000  0.75276000  0.16872000  1
  C  C12  1  0.61666000  0.16872000  0.75276000  1
  C  C13  1  0.46186000  0.16872000  0.75276000  1
  C  C14  1  0.66503000  0.78106000  0.14028000  1
  C  C15  1  0.41363000  0.78106000  0.14028000  1
  C  C16  1  0.66503000  0.14028000  0.78106000  1
  C  C17  1  0.41363000  0.14028000  0.78106000  1
  C  C18  1  0.97252000  0.64502000  0.24788000  1
  C  C19  1  0.13458000  0.64502000  0.24788000  1
  C  C20  1  0.97252000  0.24788000  0.64502000  1
  C  C21  1  0.13458000  0.24788000  0.64502000  1
  C  C22  1  0.73551000  0.75169167  0.08508833  1
  C  C23  1  0.42771000  0.75169167  0.08508833  1
  C  C24  1  0.73551000  0.08512000  0.75166000  1
  C  C25  1  0.42771000  0.08512000  0.75166000  1
  C  C26  1  0.94593000  0.61700000  0.21914000  1
  C  C27  1  0.21793000  0.61700000  0.21914000  1
  C  C28  1  0.94593000  0.21914000  0.61700000  1
  C  C29  1  0.21793000  0.21914000  0.61700000  1
  C  C30  1  0.92358000  0.57102000  0.25182000  1
  C  C31  1  0.25358000  0.57102000  0.25182000  1
  C  C32  1  0.92358000  0.25182000  0.57102000  1
  C  C33  1  0.25358000  0.25182000  0.57102000  1
  C  C34  1  0.93788000  0.64155000  0.16529000  1
  C  C35  1  0.25528000  0.64155000  0.16529000  1
  C  C36  1  0.93788000  0.16529000  0.64155000  1
  C  C37  1  0.25528000  0.16529000  0.64155000  1
  C  C38  1  0.89614000  0.54700000  0.22732000  1
  C  C39  1  0.32954000  0.54700000  0.22732000  1
  C  C40  1  0.89614000  0.22732000  0.54700000  1
  C  C41  1  0.32954000  0.22732000  0.54700000  1
  C  C42  1  0.86810000  0.50000000  0.26380000  1
  C  C43  1  0.36810000  0.50000000  0.26380000  1
  C  C44  1  0.86810000  0.26380000  0.50000000  1
  C  C45  1  0.36810000  0.26380000  0.50000000  1
  C  C46  1  0.91077000  0.61766000  0.14120000  1
  C  C47  1  0.33037000  0.61766000  0.14120000  1
  C  C48  1  0.91077000  0.14120000  0.61766000  1
  C  C49  1  0.33037000  0.14120000  0.61766000  1
  C  C50  1  0.89063000  0.56939000  0.17235000  1
  C  C51  1  0.36763000  0.56939000  0.17235000  1
  C  C52  1  0.89063000  0.17235000  0.56939000  1
  C  C53  1  0.36763000  0.17235000  0.56939000  1
  C  C54  1  0.89580000  0.64566000  0.08594000  1
  C  C55  1  0.37260000  0.64566000  0.08594000  1
  C  C56  1  0.89580000  0.08594000  0.64566000  1
  C  C57  1  0.37260000  0.08594000  0.64566000  1
  C  C58  1  0.82460000  0.42898000  0.25182000  1
  C  C59  1  0.49460000  0.42898000  0.25182000  1
  C  C60  1  0.82460000  0.25182000  0.42898000  1
  C  C61  1  0.49460000  0.25182000  0.42898000  1
  C  C62  1  0.87654000  0.45300000  0.22732000  1
  C  C63  1  0.44314000  0.45300000  0.22732000  1
  C  C64  1  0.87654000  0.22732000  0.45300000  1
  C  C65  1  0.44314000  0.22732000  0.45300000  1
  C  C66  1  0.81510000  0.83450000  0.83450000  1
  C  C67  1  0.51590000  0.83450000  0.83450000  1
  C  C68  1  0.82059833  0.75169167  0.91491167  1
  C  C69  1  0.51279833  0.75169167  0.91491167  1
  C  C70  1  0.82059833  0.91491167  0.75169167  1
  C  C71  1  0.51279833  0.91491167  0.75169167  1
  C  C72  1  0.80531000  0.78106000  0.85972000  1
  C  C73  1  0.55391000  0.78106000  0.85972000  1
  C  C74  1  0.80531000  0.85972000  0.78106000  1
  C  C75  1  0.55391000  0.85972000  0.78106000  1
  C  C76  1  0.93702000  0.43061000  0.17235000  1
  C  C77  1  0.46002000  0.43061000  0.17235000  1
  C  C78  1  0.93702000  0.17235000  0.43061000  1
  C  C79  1  0.46002000  0.17235000  0.43061000  1
  C  C80  1  0.77960000  0.35498000  0.24788000  1
  C  C81  1  0.61754000  0.35498000  0.24788000  1
  C  C82  1  0.77960000  0.24788000  0.35498000  1
  C  C83  1  0.61754000  0.24788000  0.35498000  1
  C  C84  1  0.83493000  0.38300000  0.21914000  1
  C  C85  1  0.56293000  0.38300000  0.21914000  1
  C  C86  1  0.83493000  0.21914000  0.38300000  1
  C  C87  1  0.56293000  0.21914000  0.38300000  1
  C  C88  1  0.78538000  0.75276000  0.83128000  1
  C  C89  1  0.63058000  0.75276000  0.83128000  1
  C  C90  1  0.78538000  0.83128000  0.75276000  1
  C  C91  1  0.63058000  0.83128000  0.75276000  1
  C  C92  1  0.98174000  0.64566000  0.91406000  1
  C  C93  1  0.45854000  0.64566000  0.91406000  1
  C  C94  1  0.98174000  0.91406000  0.64566000  1
  C  C95  1  0.45854000  0.91406000  0.64566000  1
  C  C96  1  0.77520000  0.77820000  0.77820000  1
  C  C97  1  0.66840000  0.77820000  0.77820000  1
  C  C98  1  0.89683000  0.35845000  0.16529000  1
  C  C99  1  0.57943000  0.35845000  0.16529000  1
  C  C100  1  0.89683000  0.16529000  0.35845000  1
  C  C101  1  0.57943000  0.16529000  0.35845000  1
  C  C102  1  0.94803000  0.38234000  0.14120000  1
  C  C103  1  0.52843000  0.38234000  0.14120000  1
  C  C104  1  0.94803000  0.14120000  0.38234000  1
  C  C105  1  0.52843000  0.14120000  0.38234000  1
  C  C106  1  0.24760000  0.25240000  0.25240000  1
  C  C107  1  0.75240000  0.74760000  0.74760000  1
  C  C108  1  0.05197000  0.61766000  0.85880000  1
  C  C109  1  0.47157000  0.61766000  0.85880000  1
  C  C110  1  0.05197000  0.85880000  0.61766000  1
  C  C111  1  0.47157000  0.85880000  0.61766000  1
  C  C112  1  0.10317000  0.64155000  0.83471000  1
  C  C113  1  0.42057000  0.64155000  0.83471000  1
  C  C114  1  0.10317000  0.83471000  0.64155000  1
  C  C115  1  0.42057000  0.83471000  0.64155000  1
  C  C116  1  0.22480000  0.22180000  0.22180000  1
  C  C117  1  0.33160000  0.22180000  0.22180000  1
  C  C118  1  0.01826000  0.35434000  0.08594000  1
  C  C119  1  0.54146000  0.35434000  0.08594000  1
  C  C120  1  0.01826000  0.08594000  0.35434000  1
  C  C121  1  0.54146000  0.08594000  0.35434000  1
  C  C122  1  0.21462000  0.24724000  0.16872000  1
  C  C123  1  0.36942000  0.24724000  0.16872000  1
  C  C124  1  0.21462000  0.16872000  0.24724000  1
  C  C125  1  0.36942000  0.16872000  0.24724000  1
  C  C126  1  0.16507000  0.61700000  0.78086000  1
  C  C127  1  0.43707000  0.61700000  0.78086000  1
  C  C128  1  0.16507000  0.78086000  0.61700000  1
  C  C129  1  0.43707000  0.78086000  0.61700000  1
  C  C130  1  0.22040000  0.64502000  0.75212000  1
  C  C131  1  0.38246000  0.64502000  0.75212000  1
  C  C132  1  0.22040000  0.75212000  0.64502000  1
  C  C133  1  0.38246000  0.75212000  0.64502000  1
  C  C134  1  0.06298000  0.56939000  0.82765000  1
  C  C135  1  0.53998000  0.56939000  0.82765000  1
  C  C136  1  0.06298000  0.82765000  0.56939000  1
  C  C137  1  0.53998000  0.82765000  0.56939000  1
  C  C138  1  0.19469000  0.21894000  0.14028000  1
  C  C139  1  0.44609000  0.21894000  0.14028000  1
  C  C140  1  0.19469000  0.14028000  0.21894000  1
  C  C141  1  0.44609000  0.14028000  0.21894000  1
  C  C142  1  0.17937000  0.24834000  0.08512000  1
  C  C143  1  0.48717000  0.24834000  0.08512000  1
  C  C144  1  0.17937000  0.08512000  0.24834000  1
  C  C145  1  0.48717000  0.08512000  0.24834000  1
  C  C146  1  0.18490000  0.16550000  0.16550000  1
  C  C147  1  0.48410000  0.16550000  0.16550000  1
  C  C148  1  0.12346000  0.54700000  0.77268000  1
  C  C149  1  0.55686000  0.54700000  0.77268000  1
  C  C150  1  0.12346000  0.77268000  0.54700000  1
  C  C151  1  0.55686000  0.77268000  0.54700000  1
  C  C152  1  0.17540000  0.57102000  0.74818000  1
  C  C153  1  0.50540000  0.57102000  0.74818000  1
  C  C154  1  0.17540000  0.74818000  0.57102000  1
  C  C155  1  0.50540000  0.74818000  0.57102000  1
  C  C156  1  0.10420000  0.35434000  0.91406000  1
  C  C157  1  0.62740000  0.35434000  0.91406000  1
  C  C158  1  0.10420000  0.91406000  0.35434000  1
  C  C159  1  0.62740000  0.91406000  0.35434000  1
  C  C160  1  0.10937000  0.43061000  0.82765000  1
  C  C161  1  0.63237000  0.43061000  0.82765000  1
  C  C162  1  0.10937000  0.82765000  0.43061000  1
  C  C163  1  0.63237000  0.82765000  0.43061000  1
  C  C164  1  0.08923000  0.38234000  0.85880000  1
  C  C165  1  0.66963000  0.38234000  0.85880000  1
  C  C166  1  0.08923000  0.85880000  0.38234000  1
  C  C167  1  0.66963000  0.85880000  0.38234000  1
  C  C168  1  0.13190000  0.50000000  0.73620000  1
  C  C169  1  0.63190000  0.50000000  0.73620000  1
  C  C170  1  0.13190000  0.73620000  0.50000000  1
  C  C171  1  0.63190000  0.73620000  0.50000000  1
  C  C172  1  0.10386000  0.45300000  0.77268000  1
  C  C173  1  0.67046000  0.45300000  0.77268000  1
  C  C174  1  0.10386000  0.77268000  0.45300000  1
  C  C175  1  0.67046000  0.77268000  0.45300000  1
  C  C176  1  0.06212000  0.35845000  0.83471000  1
  C  C177  1  0.74472000  0.35845000  0.83471000  1
  C  C178  1  0.06212000  0.83471000  0.35845000  1
  C  C179  1  0.74472000  0.83471000  0.35845000  1
  C  C180  1  0.07642000  0.42898000  0.74818000  1
  C  C181  1  0.74642000  0.42898000  0.74818000  1
  C  C182  1  0.07642000  0.74818000  0.42898000  1
  C  C183  1  0.74642000  0.74818000  0.42898000  1
  C  C184  1  0.05407000  0.38300000  0.78086000  1
  C  C185  1  0.78207000  0.38300000  0.78086000  1
  C  C186  1  0.05407000  0.78086000  0.38300000  1
  C  C187  1  0.78207000  0.78086000  0.38300000  1
  C  C188  1  0.26449000  0.24834000  0.91488000  1
  C  C189  1  0.57229000  0.24834000  0.91488000  1
  C  C190  1  0.26449000  0.91491167  0.24830833  1
  C  C191  1  0.57229000  0.91491167  0.24830833  1
  C  C192  1  0.02748000  0.35498000  0.75212000  1
  C  C193  1  0.86542000  0.35498000  0.75212000  1
  C  C194  1  0.02748000  0.75212000  0.35498000  1
  C  C195  1  0.86542000  0.75212000  0.35498000  1
  C  C196  1  0.33497000  0.21894000  0.85972000  1
  C  C197  1  0.58637000  0.21894000  0.85972000  1
  C  C198  1  0.33497000  0.85972000  0.21894000  1
  C  C199  1  0.58637000  0.85972000  0.21894000  1
  C  C200  1  0.38334000  0.24724000  0.83128000  1
  C  C201  1  0.53814000  0.24724000  0.83128000  1
  C  C202  1  0.38334000  0.83128000  0.24724000  1
  C  C203  1  0.53814000  0.83128000  0.24724000  1
  Cu  Cu204  1  0.00000000  0.74174000  0.25826000  1
  Cu  Cu205  1  0.00000000  0.65486000  0.34514000  1
  Cu  Cu206  1  0.00000000  0.34514000  0.65486000  1
  Cu  Cu207  1  0.00000000  0.25826000  0.74174000  1
  Cu  Cu208  1  0.87639000  0.74314000  1.00000000  1
  Cu  Cu209  1  0.38047000  0.74314000  1.00000000  1
  Cu  Cu210  1  0.87639000  0.00000000  0.74314000  1
  Cu  Cu211  1  0.38047000  0.00000000  0.74314000  1
  Cu  Cu212  1  0.65486000  0.34514000  0.34514000  1
  Cu  Cu213  1  0.84078000  0.65452000  1.00000000  1
  Cu  Cu214  1  0.50470000  0.65452000  1.00000000  1
  Cu  Cu215  1  0.84078000  0.00000000  0.65452000  1
  Cu  Cu216  1  0.50470000  0.00000000  0.65452000  1
  Cu  Cu217  1  0.74174000  0.25826000  0.25826000  1
  Cu  Cu218  1  0.25826000  0.74174000  0.74174000  1
  Cu  Cu219  1  0.15922000  0.34548000  1.00000000  1
  Cu  Cu220  1  0.49530000  0.34548000  1.00000000  1
  Cu  Cu221  1  0.15922000  0.00000000  0.34548000  1
  Cu  Cu222  1  0.49530000  0.00000000  0.34548000  1
  Cu  Cu223  1  0.34514000  0.65486000  0.65486000  1
  Cu  Cu224  1  0.12361000  0.25686000  1.00000000  1
  Cu  Cu225  1  0.61953000  0.25686000  1.00000000  1
  Cu  Cu226  1  0.12361000  0.00000000  0.25686000  1
  Cu  Cu227  1  0.61953000  0.00000000  0.25686000  1
  H  H228  1  0.68210000  0.85360000  0.14640000  1
  H  H229  1  0.31790000  0.85360000  0.14640000  1
  H  H230  1  0.68210000  0.14640000  0.85360000  1
  H  H231  1  0.31790000  0.14640000  0.85360000  1
  H  H232  1  0.62730000  0.71620000  0.15160000  1
  H  H233  1  0.50490000  0.71620000  0.15160000  1
  H  H234  1  0.62730000  0.15160000  0.71620000  1
  H  H235  1  0.50490000  0.15160000  0.71620000  1
  H  H236  1  0.92690000  0.55630000  0.28990000  1
  H  H237  1  0.22690000  0.55630000  0.28990000  1
  H  H238  1  0.92690000  0.28990000  0.55630000  1
  H  H239  1  0.22690000  0.28990000  0.55630000  1
  H  H240  1  0.95080000  0.67460000  0.14500000  1
  H  H241  1  0.22960000  0.67460000  0.14500000  1
  H  H242  1  0.95080000  0.14500000  0.67460000  1
  H  H243  1  0.22960000  0.14500000  0.67460000  1
  H  H244  1  0.78320000  0.44370000  0.28990000  1
  H  H245  1  0.48320000  0.44370000  0.28990000  1
  H  H246  1  0.78320000  0.28990000  0.44370000  1
  H  H247  1  0.48320000  0.28990000  0.44370000  1
  H  H248  1  0.87310000  0.55220000  0.15540000  1
  H  H249  1  0.41930000  0.55220000  0.15540000  1
  H  H250  1  0.87310000  0.15540000  0.55220000  1
  H  H251  1  0.41930000  0.15540000  0.55220000  1
  H  H252  1  0.82850000  0.85360000  0.85360000  1
  H  H253  1  0.46430000  0.85360000  0.85360000  1
  H  H254  1  0.97150000  0.44780000  0.15540000  1
  H  H255  1  0.42530000  0.44780000  0.15540000  1
  H  H256  1  0.97150000  0.15540000  0.44780000  1
  H  H257  1  0.42530000  0.15540000  0.44780000  1
  H  H258  1  0.77890000  0.71620000  0.84840000  1
  H  H259  1  0.65650000  0.71620000  0.84840000  1
  H  H260  1  0.77890000  0.84840000  0.71620000  1
  H  H261  1  0.65650000  0.84840000  0.71620000  1
  H  H262  1  0.09580000  0.67460000  0.85500000  1
  H  H263  1  0.37460000  0.67460000  0.85500000  1
  H  H264  1  0.09580000  0.85500000  0.67460000  1
  H  H265  1  0.37460000  0.85500000  0.67460000  1
  H  H266  1  0.90420000  0.32540000  0.14500000  1
  H  H267  1  0.62540000  0.32540000  0.14500000  1
  H  H268  1  0.90420000  0.14500000  0.32540000  1
  H  H269  1  0.62540000  0.14500000  0.32540000  1
  H  H270  1  0.22110000  0.28380000  0.15160000  1
  H  H271  1  0.34350000  0.28380000  0.15160000  1
  H  H272  1  0.22110000  0.15160000  0.28380000  1
  H  H273  1  0.34350000  0.15160000  0.28380000  1
  H  H274  1  0.02850000  0.55220000  0.84460000  1
  H  H275  1  0.57470000  0.55220000  0.84460000  1
  H  H276  1  0.02850000  0.84460000  0.55220000  1
  H  H277  1  0.57470000  0.84460000  0.55220000  1
  H  H278  1  0.17150000  0.14640000  0.14640000  1
  H  H279  1  0.53570000  0.14640000  0.14640000  1
  H  H280  1  0.12690000  0.44780000  0.84460000  1
  H  H281  1  0.58070000  0.44780000  0.84460000  1
  H  H282  1  0.12690000  0.84460000  0.44780000  1
  H  H283  1  0.58070000  0.84460000  0.44780000  1
  H  H284  1  0.21680000  0.55630000  0.71010000  1
  H  H285  1  0.51680000  0.55630000  0.71010000  1
  H  H286  1  0.21680000  0.71010000  0.55630000  1
  H  H287  1  0.51680000  0.71010000  0.55630000  1
  H  H288  1  0.04920000  0.32540000  0.85500000  1
  H  H289  1  0.77040000  0.32540000  0.85500000  1
  H  H290  1  0.04920000  0.85500000  0.32540000  1
  H  H291  1  0.77040000  0.85500000  0.32540000  1
  H  H292  1  0.07310000  0.44370000  0.71010000  1
  H  H293  1  0.77310000  0.44370000  0.71010000  1
  H  H294  1  0.07310000  0.71010000  0.44370000  1
  H  H295  1  0.77310000  0.71010000  0.44370000  1
  H  H296  1  0.37270000  0.28380000  0.84840000  1
  H  H297  1  0.49510000  0.28380000  0.84840000  1
  H  H298  1  0.37270000  0.84840000  0.28380000  1
  H  H299  1  0.49510000  0.84840000  0.28380000  1
  O  O300  1  0.53760000  0.68500000  0.23980000  1
  O  O301  1  0.53760000  0.23980000  0.68500000  1
  O  O302  1  0.98329000  0.61808000  0.29396000  1
  O  O303  1  0.10467000  0.61808000  0.29396000  1
  O  O304  1  0.98329000  0.29396000  0.61808000  1
  O  O305  1  0.10467000  0.29396000  0.61808000  1
  O  O306  1  0.98325000  0.69072000  0.22124000  1
  O  O307  1  0.10479000  0.69072000  0.22124000  1
  O  O308  1  0.98325000  0.22124000  0.69072000  1
  O  O309  1  0.10479000  0.22124000  0.69072000  1
  O  O310  1  0.77670000  0.77823000  0.06397000  1
  O  O311  1  0.38110000  0.77823000  0.06397000  1
  O  O312  1  0.77670000  0.06397000  0.77823000  1
  O  O313  1  0.38110000  0.06397000  0.77823000  1
  O  O314  1  0.84007000  0.50000000  0.31986000  1
  O  O315  1  0.34007000  0.50000000  0.31986000  1
  O  O316  1  0.84007000  0.31986000  0.50000000  1
  O  O317  1  0.34007000  0.31986000  0.50000000  1
  O  O318  1  0.74661000  0.70385000  0.06445000  1
  O  O319  1  0.48509000  0.70385000  0.06445000  1
  O  O320  1  0.74661000  0.06445000  0.70385000  1
  O  O321  1  0.48509000  0.06445000  0.70385000  1
  O  O322  1  0.90784000  0.69330000  0.06398000  1
  O  O323  1  0.33488000  0.69330000  0.06398000  1
  O  O324  1  0.90784000  0.06398000  0.69330000  1
  O  O325  1  0.33488000  0.06398000  0.69330000  1
  O  O326  1  0.84067000  0.77823000  0.93603000  1
  O  O327  1  0.44507000  0.77823000  0.93603000  1
  O  O328  1  0.84067000  0.93603000  0.77823000  1
  O  O329  1  0.44507000  0.93603000  0.77823000  1
  O  O330  1  0.87546000  0.61962000  0.06460000  1
  O  O331  1  0.44032000  0.61962000  0.06460000  1
  O  O332  1  0.87546000  0.06460000  0.61962000  1
  O  O333  1  0.44032000  0.06460000  0.61962000  1
  O  O334  1  0.72275000  0.38192000  0.29396000  1
  O  O335  1  0.60137000  0.38192000  0.29396000  1
  O  O336  1  0.72275000  0.29396000  0.38192000  1
  O  O337  1  0.60137000  0.29396000  0.38192000  1
  O  O338  1  0.81106000  0.70385000  0.93555000  1
  O  O339  1  0.54954000  0.70385000  0.93555000  1
  O  O340  1  0.81106000  0.93555000  0.70385000  1
  O  O341  1  0.54954000  0.93555000  0.70385000  1
  O  O342  1  0.97182000  0.69330000  0.93602000  1
  O  O343  1  0.39886000  0.69330000  0.93602000  1
  O  O344  1  0.97182000  0.93602000  0.69330000  1
  O  O345  1  0.39886000  0.93602000  0.69330000  1
  O  O346  1  0.94006000  0.61962000  0.93540000  1
  O  O347  1  0.50492000  0.61962000  0.93540000  1
  O  O348  1  0.94006000  0.93540000  0.61962000  1
  O  O349  1  0.50492000  0.93540000  0.61962000  1
  O  O350  1  0.22260000  0.31500000  0.23980000  1
  O  O351  1  0.22260000  0.23980000  0.31500000  1
  O  O352  1  0.79551000  0.30928000  0.22124000  1
  O  O353  1  0.67397000  0.30928000  0.22124000  1
  O  O354  1  0.79551000  0.22124000  0.30928000  1
  O  O355  1  0.67397000  0.22124000  0.30928000  1
  O  O356  1  0.20449000  0.69072000  0.77876000  1
  O  O357  1  0.32603000  0.69072000  0.77876000  1
  O  O358  1  0.20449000  0.77876000  0.69072000  1
  O  O359  1  0.32603000  0.77876000  0.69072000  1
  O  O360  1  0.77740000  0.68500000  0.76020000  1
  O  O361  1  0.77740000  0.76020000  0.68500000  1
  O  O362  1  0.05994000  0.38038000  0.06460000  1
  O  O363  1  0.49508000  0.38038000  0.06460000  1
  O  O364  1  0.05994000  0.06460000  0.38038000  1
  O  O365  1  0.49508000  0.06460000  0.38038000  1
  O  O366  1  0.02818000  0.30670000  0.06398000  1
  O  O367  1  0.60114000  0.30670000  0.06398000  1
  O  O368  1  0.02818000  0.06398000  0.30670000  1
  O  O369  1  0.60114000  0.06398000  0.30670000  1
  O  O370  1  0.18894000  0.29615000  0.06445000  1
  O  O371  1  0.45046000  0.29615000  0.06445000  1
  O  O372  1  0.18894000  0.06445000  0.29615000  1
  O  O373  1  0.45046000  0.06445000  0.29615000  1
  O  O374  1  0.27725000  0.61808000  0.70604000  1
  O  O375  1  0.39863000  0.61808000  0.70604000  1
  O  O376  1  0.27725000  0.70604000  0.61808000  1
  O  O377  1  0.39863000  0.70604000  0.61808000  1
  O  O378  1  0.12454000  0.38038000  0.93540000  1
  O  O379  1  0.55968000  0.38038000  0.93540000  1
  O  O380  1  0.12454000  0.93540000  0.38038000  1
  O  O381  1  0.55968000  0.93540000  0.38038000  1
  O  O382  1  0.15933000  0.22177000  0.06397000  1
  O  O383  1  0.55493000  0.22177000  0.06397000  1
  O  O384  1  0.15933000  0.06397000  0.22177000  1
  O  O385  1  0.55493000  0.06397000  0.22177000  1
  O  O386  1  0.09216000  0.30670000  0.93602000  1
  O  O387  1  0.66512000  0.30670000  0.93602000  1
  O  O388  1  0.09216000  0.93602000  0.30670000  1
  O  O389  1  0.66512000  0.93602000  0.30670000  1
  O  O390  1  0.25339000  0.29615000  0.93555000  1
  O  O391  1  0.51491000  0.29615000  0.93555000  1
  O  O392  1  0.25339000  0.93555000  0.29615000  1
  O  O393  1  0.51491000  0.93555000  0.29615000  1
  O  O394  1  0.15993000  0.50000000  0.68014000  1
  O  O395  1  0.65993000  0.50000000  0.68014000  1
  O  O396  1  0.15993000  0.68014000  0.50000000  1
  O  O397  1  0.65993000  0.68014000  0.50000000  1
  O  O398  1  0.22330000  0.22177000  0.93603000  1
  O  O399  1  0.61890000  0.22177000  0.93603000  1
  O  O400  1  0.22330000  0.93603000  0.22177000  1
  O  O401  1  0.61890000  0.93603000  0.22177000  1
  O  O402  1  0.01675000  0.30928000  0.77876000  1
  O  O403  1  0.89521000  0.30928000  0.77876000  1
  O  O404  1  0.01675000  0.77876000  0.30928000  1
  O  O405  1  0.89521000  0.77876000  0.30928000  1
  O  O406  1  0.01671000  0.38192000  0.70604000  1
  O  O407  1  0.89533000  0.38192000  0.70604000  1
  O  O408  1  0.01671000  0.70604000  0.38192000  1
  O  O409  1  0.89533000  0.70604000  0.38192000  1
  O  O410  1  0.46240000  0.31500000  0.76020000  1
  O  O411  1  0.46240000  0.76020000  0.31500000  1
