# generated using pymatgen
data_Cu3H22C24N9O
_symmetry_space_group_name_H-M   'P 1'
_cell_length_a   18.85300000
_cell_length_b   18.85300000
_cell_length_c   20.63900000
_cell_angle_alpha   90.00000000
_cell_angle_beta   90.00000000
_cell_angle_gamma   90.00000000
_symmetry_Int_Tables_number   1
_chemical_formula_structural   Cu3H22C24N9O
_chemical_formula_sum   'Cu24 H176 C192 N72 O8'
_cell_volume   7335.83553415
_cell_formula_units_Z   8
loop_
 _symmetry_equiv_pos_site_id
 _symmetry_equiv_pos_as_xyz
  1  'x, y, z'
loop_
 _atom_site_type_symbol
 _atom_site_label
 _atom_site_symmetry_multiplicity
 _atom_site_fract_x
 _atom_site_fract_y
 _atom_site_fract_z
 _atom_site_occupancy
  Cu  Cu0  1  0.06622000  0.35375000  0.59561000  1
  Cu  Cu1  1  0.07189000  0.28151000  0.14776000  1
  Cu  Cu2  1  0.13781000  0.30166000  0.73151000  1
  Cu  Cu3  1  0.14625000  0.43378000  0.09561000  1
  Cu  Cu4  1  0.19834000  0.36219000  0.23151000  1
  Cu  Cu5  1  0.21849000  0.42811000  0.64776000  1
  Cu  Cu6  1  0.28151000  0.92811000  0.64776000  1
  Cu  Cu7  1  0.30166000  0.86219000  0.23151000  1
  Cu  Cu8  1  0.35375000  0.93378000  0.09561000  1
  Cu  Cu9  1  0.36219000  0.80166000  0.73151000  1
  Cu  Cu10  1  0.42811000  0.78151000  0.14776000  1
  Cu  Cu11  1  0.43378000  0.85375000  0.59561000  1
  Cu  Cu12  1  0.56622000  0.14625000  0.59561000  1
  Cu  Cu13  1  0.57189000  0.21849000  0.14776000  1
  Cu  Cu14  1  0.63781000  0.19834000  0.73151000  1
  Cu  Cu15  1  0.64625000  0.06622000  0.09561000  1
  Cu  Cu16  1  0.69834000  0.13781000  0.23151000  1
  Cu  Cu17  1  0.71849000  0.07189000  0.64776000  1
  Cu  Cu18  1  0.78151000  0.57189000  0.64776000  1
  Cu  Cu19  1  0.80166000  0.63781000  0.23151000  1
  Cu  Cu20  1  0.85375000  0.56622000  0.09561000  1
  Cu  Cu21  1  0.86219000  0.69834000  0.73151000  1
  Cu  Cu22  1  0.92811000  0.71849000  0.14776000  1
  Cu  Cu23  1  0.93378000  0.64625000  0.59561000  1
  H  H24  1  0.00020000  0.78850000  0.78120000  1
  H  H25  1  0.00550000  0.75520000  0.01360000  1
  H  H26  1  0.00880000  0.31860000  0.91650000  1
  H  H27  1  0.02640000  0.17450000  0.27030000  1
  H  H28  1  0.03130000  0.88760000  0.59460000  1
  H  H29  1  0.03310000  0.83250000  0.45510000  1
  H  H30  1  0.03890000  0.21710000  0.53420000  1
  H  H31  1  0.04530000  0.59120000  0.49790000  1
  H  H32  1  0.06380000  0.80900000  0.15240000  1
  H  H33  1  0.07070000  0.08900000  0.64710000  1
  H  H34  1  0.08150000  0.40070000  0.19400000  1
  H  H35  1  0.08210000  0.40630000  0.44930000  1
  H  H36  1  0.08680000  0.71420000  0.62520000  1
  H  H37  1  0.08900000  0.92930000  0.14710000  1
  H  H38  1  0.09010000  0.17360000  0.37080000  1
  H  H39  1  0.09050000  0.23160000  0.85810000  1
  H  H40  1  0.09120000  0.54530000  0.99790000  1
  H  H41  1  0.09370000  0.41790000  0.94930000  1
  H  H42  1  0.09930000  0.41850000  0.69400000  1
  H  H43  1  0.11110000  0.70170000  0.30900000  1
  H  H44  1  0.11240000  0.03130000  0.09460000  1
  H  H45  1  0.11450000  0.78310000  0.72610000  1
  H  H46  1  0.11730000  0.64080000  0.41880000  1
  H  H47  1  0.13760000  0.15160000  0.09990000  1
  H  H48  1  0.13970000  0.15420000  0.93300000  1
  H  H49  1  0.14080000  0.61730000  0.91880000  1
  H  H50  1  0.15160000  0.86240000  0.59990000  1
  H  H51  1  0.15420000  0.86030000  0.43300000  1
  H  H52  1  0.16750000  0.03310000  0.95510000  1
  H  H53  1  0.17360000  0.90990000  0.87080000  1
  H  H54  1  0.17450000  0.97360000  0.77030000  1
  H  H55  1  0.18140000  0.49120000  0.41650000  1
  H  H56  1  0.18760000  0.26240000  0.35620000  1
  H  H57  1  0.18850000  0.75090000  0.23410000  1
  H  H58  1  0.19100000  0.06380000  0.65240000  1
  H  H59  1  0.20170000  0.61110000  0.80900000  1
  H  H60  1  0.21150000  0.00020000  0.28120000  1
  H  H61  1  0.21420000  0.58680000  0.12520000  1
  H  H62  1  0.21690000  0.11450000  0.22610000  1
  H  H63  1  0.21710000  0.96110000  0.03420000  1
  H  H64  1  0.23160000  0.90950000  0.35810000  1
  H  H65  1  0.23760000  0.31240000  0.85620000  1
  H  H66  1  0.24480000  0.00550000  0.51360000  1
  H  H67  1  0.24910000  0.18850000  0.73410000  1
  H  H68  1  0.25090000  0.68850000  0.73410000  1
  H  H69  1  0.25520000  0.50550000  0.51360000  1
  H  H70  1  0.26240000  0.81240000  0.85620000  1
  H  H71  1  0.26840000  0.40950000  0.35810000  1
  H  H72  1  0.28290000  0.46110000  0.03420000  1
  H  H73  1  0.28310000  0.61450000  0.22610000  1
  H  H74  1  0.28580000  0.08680000  0.12520000  1
  H  H75  1  0.28850000  0.50020000  0.28120000  1
  H  H76  1  0.29830000  0.11110000  0.80900000  1
  H  H77  1  0.30900000  0.56380000  0.65240000  1
  H  H78  1  0.31150000  0.25090000  0.23410000  1
  H  H79  1  0.31240000  0.76240000  0.35620000  1
  H  H80  1  0.31860000  0.99120000  0.41650000  1
  H  H81  1  0.32550000  0.47360000  0.77030000  1
  H  H82  1  0.32640000  0.40990000  0.87080000  1
  H  H83  1  0.33250000  0.53310000  0.95510000  1
  H  H84  1  0.34580000  0.36030000  0.43300000  1
  H  H85  1  0.34840000  0.36240000  0.59990000  1
  H  H86  1  0.35920000  0.11730000  0.91880000  1
  H  H87  1  0.36030000  0.65420000  0.93300000  1
  H  H88  1  0.36240000  0.65160000  0.09990000  1
  H  H89  1  0.38270000  0.14080000  0.41880000  1
  H  H90  1  0.38550000  0.28310000  0.72610000  1
  H  H91  1  0.38760000  0.53130000  0.09460000  1
  H  H92  1  0.38890000  0.20170000  0.30900000  1
  H  H93  1  0.40070000  0.91850000  0.69400000  1
  H  H94  1  0.40630000  0.91790000  0.94930000  1
  H  H95  1  0.40880000  0.04530000  0.99790000  1
  H  H96  1  0.40950000  0.73160000  0.85810000  1
  H  H97  1  0.40990000  0.67360000  0.37080000  1
  H  H98  1  0.41100000  0.42930000  0.14710000  1
  H  H99  1  0.41320000  0.21420000  0.62520000  1
  H  H100  1  0.41790000  0.90630000  0.44930000  1
  H  H101  1  0.41850000  0.90070000  0.19400000  1
  H  H102  1  0.42930000  0.58900000  0.64710000  1
  H  H103  1  0.43620000  0.30900000  0.15240000  1
  H  H104  1  0.45470000  0.09120000  0.49790000  1
  H  H105  1  0.46110000  0.71710000  0.53420000  1
  H  H106  1  0.46690000  0.33250000  0.45510000  1
  H  H107  1  0.46870000  0.38760000  0.59460000  1
  H  H108  1  0.47360000  0.67450000  0.27030000  1
  H  H109  1  0.49120000  0.81860000  0.91650000  1
  H  H110  1  0.49450000  0.25520000  0.01360000  1
  H  H111  1  0.49980000  0.28850000  0.78120000  1
  H  H112  1  0.50020000  0.71150000  0.78120000  1
  H  H113  1  0.50550000  0.74480000  0.01360000  1
  H  H114  1  0.50880000  0.18140000  0.91650000  1
  H  H115  1  0.52640000  0.32550000  0.27030000  1
  H  H116  1  0.53130000  0.61240000  0.59460000  1
  H  H117  1  0.53310000  0.66750000  0.45510000  1
  H  H118  1  0.53890000  0.28290000  0.53420000  1
  H  H119  1  0.54530000  0.90880000  0.49790000  1
  H  H120  1  0.56380000  0.69100000  0.15240000  1
  H  H121  1  0.57070000  0.41100000  0.64710000  1
  H  H122  1  0.58150000  0.09930000  0.19400000  1
  H  H123  1  0.58210000  0.09370000  0.44930000  1
  H  H124  1  0.58680000  0.78580000  0.62520000  1
  H  H125  1  0.58900000  0.57070000  0.14710000  1
  H  H126  1  0.59010000  0.32640000  0.37080000  1
  H  H127  1  0.59050000  0.26840000  0.85810000  1
  H  H128  1  0.59120000  0.95470000  0.99790000  1
  H  H129  1  0.59370000  0.08210000  0.94930000  1
  H  H130  1  0.59930000  0.08150000  0.69400000  1
  H  H131  1  0.61110000  0.79830000  0.30900000  1
  H  H132  1  0.61240000  0.46870000  0.09460000  1
  H  H133  1  0.61450000  0.71690000  0.72610000  1
  H  H134  1  0.61730000  0.85920000  0.41880000  1
  H  H135  1  0.63760000  0.34840000  0.09990000  1
  H  H136  1  0.63970000  0.34580000  0.93300000  1
  H  H137  1  0.64080000  0.88270000  0.91880000  1
  H  H138  1  0.65160000  0.63760000  0.59990000  1
  H  H139  1  0.65420000  0.63970000  0.43300000  1
  H  H140  1  0.66750000  0.46690000  0.95510000  1
  H  H141  1  0.67360000  0.59010000  0.87080000  1
  H  H142  1  0.67450000  0.52640000  0.77030000  1
  H  H143  1  0.68140000  0.00880000  0.41650000  1
  H  H144  1  0.68760000  0.23760000  0.35620000  1
  H  H145  1  0.68850000  0.74910000  0.23410000  1
  H  H146  1  0.69100000  0.43620000  0.65240000  1
  H  H147  1  0.70170000  0.88890000  0.80900000  1
  H  H148  1  0.71150000  0.49980000  0.28120000  1
  H  H149  1  0.71420000  0.91320000  0.12520000  1
  H  H150  1  0.71690000  0.38550000  0.22610000  1
  H  H151  1  0.71710000  0.53890000  0.03420000  1
  H  H152  1  0.73160000  0.59050000  0.35810000  1
  H  H153  1  0.73760000  0.18760000  0.85620000  1
  H  H154  1  0.74480000  0.49450000  0.51360000  1
  H  H155  1  0.74910000  0.31150000  0.73410000  1
  H  H156  1  0.75090000  0.81150000  0.73410000  1
  H  H157  1  0.75520000  0.99450000  0.51360000  1
  H  H158  1  0.76240000  0.68760000  0.85620000  1
  H  H159  1  0.76840000  0.09050000  0.35810000  1
  H  H160  1  0.78290000  0.03890000  0.03420000  1
  H  H161  1  0.78310000  0.88550000  0.22610000  1
  H  H162  1  0.78580000  0.41320000  0.12520000  1
  H  H163  1  0.78850000  0.99980000  0.28120000  1
  H  H164  1  0.79830000  0.38890000  0.80900000  1
  H  H165  1  0.80900000  0.93620000  0.65240000  1
  H  H166  1  0.81150000  0.24910000  0.23410000  1
  H  H167  1  0.81240000  0.73760000  0.35620000  1
  H  H168  1  0.81860000  0.50880000  0.41650000  1
  H  H169  1  0.82550000  0.02640000  0.77030000  1
  H  H170  1  0.82640000  0.09010000  0.87080000  1
  H  H171  1  0.83250000  0.96690000  0.95510000  1
  H  H172  1  0.84580000  0.13970000  0.43300000  1
  H  H173  1  0.84840000  0.13760000  0.59990000  1
  H  H174  1  0.85920000  0.38270000  0.91880000  1
  H  H175  1  0.86030000  0.84580000  0.93300000  1
  H  H176  1  0.86240000  0.84840000  0.09990000  1
  H  H177  1  0.88270000  0.35920000  0.41880000  1
  H  H178  1  0.88550000  0.21690000  0.72610000  1
  H  H179  1  0.88760000  0.96870000  0.09460000  1
  H  H180  1  0.88890000  0.29830000  0.30900000  1
  H  H181  1  0.90070000  0.58150000  0.69400000  1
  H  H182  1  0.90630000  0.58210000  0.94930000  1
  H  H183  1  0.90880000  0.45470000  0.99790000  1
  H  H184  1  0.90950000  0.76840000  0.85810000  1
  H  H185  1  0.90990000  0.82640000  0.37080000  1
  H  H186  1  0.91100000  0.07070000  0.14710000  1
  H  H187  1  0.91320000  0.28580000  0.62520000  1
  H  H188  1  0.91790000  0.59370000  0.44930000  1
  H  H189  1  0.91850000  0.59930000  0.19400000  1
  H  H190  1  0.92930000  0.91100000  0.64710000  1
  H  H191  1  0.93620000  0.19100000  0.15240000  1
  H  H192  1  0.95470000  0.40880000  0.49790000  1
  H  H193  1  0.96110000  0.78290000  0.53420000  1
  H  H194  1  0.96690000  0.16750000  0.45510000  1
  H  H195  1  0.96870000  0.11240000  0.59460000  1
  H  H196  1  0.97360000  0.82550000  0.27030000  1
  H  H197  1  0.99120000  0.68140000  0.91650000  1
  H  H198  1  0.99450000  0.24480000  0.01360000  1
  H  H199  1  0.99980000  0.21150000  0.78120000  1
  C  C200  1  0.00760000  0.24560000  0.51110000  1
  C  C201  1  0.00840000  0.76470000  0.74250000  1
  C  C202  1  0.00920000  0.03910000  0.12030000  1
  C  C203  1  0.02200000  0.28560000  0.01030000  1
  C  C204  1  0.02850000  0.84100000  0.14080000  1
  C  C205  1  0.02950000  0.32580000  0.95680000  1
  C  C206  1  0.03550000  0.78410000  0.46370000  1
  C  C207  1  0.03910000  0.99080000  0.62030000  1
  C  C208  1  0.04290000  0.63960000  0.48930000  1
  C  C209  1  0.04360000  0.91310000  0.13760000  1
  C  C210  1  0.05490000  0.72300000  0.65860000  1
  C  C211  1  0.06330000  0.92290000  0.60620000  1
  C  C212  1  0.06590000  0.20250000  0.27900000  1
  C  C213  1  0.07160000  0.76310000  0.71340000  1
  C  C214  1  0.07630000  0.38190000  0.97560000  1
  C  C215  1  0.07710000  0.06330000  0.10620000  1
  C  C216  1  0.08240000  0.74160000  0.42910000  1
  C  C217  1  0.08600000  0.66930000  0.44200000  1
  C  C218  1  0.08690000  0.04360000  0.63760000  1
  C  C219  1  0.09220000  0.13540000  0.10940000  1
  C  C220  1  0.09960000  0.20120000  0.33440000  1
  C  C221  1  0.11810000  0.42370000  0.47560000  1
  C  C222  1  0.12500000  0.77610000  0.37850000  1
  C  C223  1  0.13210000  0.20740000  0.84820000  1
  C  C224  1  0.13530000  0.74340000  0.31890000  1
  C  C225  1  0.13540000  0.90780000  0.60940000  1
  C  C226  1  0.13960000  0.54290000  0.98930000  1
  C  C227  1  0.15320000  0.25100000  0.32570000  1
  C  C228  1  0.15900000  0.02850000  0.64080000  1
  C  C229  1  0.16110000  0.83840000  0.39320000  1
  C  C230  1  0.16160000  0.16110000  0.89320000  1
  C  C231  1  0.16930000  0.58600000  0.94200000  1
  C  C232  1  0.17420000  0.47050000  0.45680000  1
  C  C233  1  0.18160000  0.77290000  0.27400000  1
  C  C234  1  0.20120000  0.90040000  0.83440000  1
  C  C235  1  0.20250000  0.93410000  0.77900000  1
  C  C236  1  0.20740000  0.86790000  0.34820000  1
  C  C237  1  0.21440000  0.47800000  0.51030000  1
  C  C238  1  0.21590000  0.03550000  0.96370000  1
  C  C239  1  0.22300000  0.55490000  0.15860000  1
  C  C240  1  0.22390000  0.12500000  0.87850000  1
  C  C241  1  0.22710000  0.18160000  0.77400000  1
  C  C242  1  0.23530000  0.00840000  0.24250000  1
  C  C243  1  0.23690000  0.07160000  0.21340000  1
  C  C244  1  0.24160000  0.58240000  0.92910000  1
  C  C245  1  0.24340000  0.63530000  0.81890000  1
  C  C246  1  0.24560000  0.99240000  0.01110000  1
  C  C247  1  0.24900000  0.34680000  0.82570000  1
  C  C248  1  0.25100000  0.84680000  0.82570000  1
  C  C249  1  0.25440000  0.49240000  0.01110000  1
  C  C250  1  0.25660000  0.13530000  0.81890000  1
  C  C251  1  0.25840000  0.08240000  0.92910000  1
  C  C252  1  0.26310000  0.57160000  0.21340000  1
  C  C253  1  0.26470000  0.50840000  0.24250000  1
  C  C254  1  0.27290000  0.68160000  0.77400000  1
  C  C255  1  0.27610000  0.62500000  0.87850000  1
  C  C256  1  0.27700000  0.05490000  0.15860000  1
  C  C257  1  0.28410000  0.53550000  0.96370000  1
  C  C258  1  0.28560000  0.97800000  0.51030000  1
  C  C259  1  0.29260000  0.36790000  0.34820000  1
  C  C260  1  0.29750000  0.43410000  0.77900000  1
  C  C261  1  0.29880000  0.40040000  0.83440000  1
  C  C262  1  0.31840000  0.27290000  0.27400000  1
  C  C263  1  0.32580000  0.97050000  0.45680000  1
  C  C264  1  0.33070000  0.08600000  0.94200000  1
  C  C265  1  0.33840000  0.66110000  0.89320000  1
  C  C266  1  0.33890000  0.33840000  0.39320000  1
  C  C267  1  0.34100000  0.52850000  0.64080000  1
  C  C268  1  0.34680000  0.75100000  0.32570000  1
  C  C269  1  0.36040000  0.04290000  0.98930000  1
  C  C270  1  0.36460000  0.40780000  0.60940000  1
  C  C271  1  0.36470000  0.24340000  0.31890000  1
  C  C272  1  0.36790000  0.70740000  0.84820000  1
  C  C273  1  0.37500000  0.27610000  0.37850000  1
  C  C274  1  0.38190000  0.92370000  0.47560000  1
  C  C275  1  0.40040000  0.70120000  0.33440000  1
  C  C276  1  0.40780000  0.63540000  0.10940000  1
  C  C277  1  0.41310000  0.54360000  0.63760000  1
  C  C278  1  0.41400000  0.16930000  0.44200000  1
  C  C279  1  0.41760000  0.24160000  0.42910000  1
  C  C280  1  0.42290000  0.56330000  0.10620000  1
  C  C281  1  0.42370000  0.88190000  0.97560000  1
  C  C282  1  0.42840000  0.26310000  0.71340000  1
  C  C283  1  0.43410000  0.70250000  0.27900000  1
  C  C284  1  0.43670000  0.42290000  0.60620000  1
  C  C285  1  0.44510000  0.22300000  0.65860000  1
  C  C286  1  0.45640000  0.41310000  0.13760000  1
  C  C287  1  0.45710000  0.13960000  0.48930000  1
  C  C288  1  0.46090000  0.49080000  0.62030000  1
  C  C289  1  0.46450000  0.28410000  0.46370000  1
  C  C290  1  0.47050000  0.82580000  0.95680000  1
  C  C291  1  0.47150000  0.34100000  0.14080000  1
  C  C292  1  0.47800000  0.78560000  0.01030000  1
  C  C293  1  0.49080000  0.53910000  0.12030000  1
  C  C294  1  0.49160000  0.26470000  0.74250000  1
  C  C295  1  0.49240000  0.74560000  0.51110000  1
  C  C296  1  0.50760000  0.25440000  0.51110000  1
  C  C297  1  0.50840000  0.73530000  0.74250000  1
  C  C298  1  0.50920000  0.46090000  0.12030000  1
  C  C299  1  0.52200000  0.21440000  0.01030000  1
  C  C300  1  0.52850000  0.65900000  0.14080000  1
  C  C301  1  0.52950000  0.17420000  0.95680000  1
  C  C302  1  0.53550000  0.71590000  0.46370000  1
  C  C303  1  0.53910000  0.50920000  0.62030000  1
  C  C304  1  0.54290000  0.86040000  0.48930000  1
  C  C305  1  0.54360000  0.58690000  0.13760000  1
  C  C306  1  0.55490000  0.77700000  0.65860000  1
  C  C307  1  0.56330000  0.57710000  0.60620000  1
  C  C308  1  0.56590000  0.29750000  0.27900000  1
  C  C309  1  0.57160000  0.73690000  0.71340000  1
  C  C310  1  0.57630000  0.11810000  0.97560000  1
  C  C311  1  0.57710000  0.43670000  0.10620000  1
  C  C312  1  0.58240000  0.75840000  0.42910000  1
  C  C313  1  0.58600000  0.83070000  0.44200000  1
  C  C314  1  0.58690000  0.45640000  0.63760000  1
  C  C315  1  0.59220000  0.36460000  0.10940000  1
  C  C316  1  0.59960000  0.29880000  0.33440000  1
  C  C317  1  0.61810000  0.07630000  0.47560000  1
  C  C318  1  0.62500000  0.72390000  0.37850000  1
  C  C319  1  0.63210000  0.29260000  0.84820000  1
  C  C320  1  0.63530000  0.75660000  0.31890000  1
  C  C321  1  0.63540000  0.59220000  0.60940000  1
  C  C322  1  0.63960000  0.95710000  0.98930000  1
  C  C323  1  0.65320000  0.24900000  0.32570000  1
  C  C324  1  0.65900000  0.47150000  0.64080000  1
  C  C325  1  0.66110000  0.66160000  0.39320000  1
  C  C326  1  0.66160000  0.33890000  0.89320000  1
  C  C327  1  0.66930000  0.91400000  0.94200000  1
  C  C328  1  0.67420000  0.02950000  0.45680000  1
  C  C329  1  0.68160000  0.72710000  0.27400000  1
  C  C330  1  0.70120000  0.59960000  0.83440000  1
  C  C331  1  0.70250000  0.56590000  0.77900000  1
  C  C332  1  0.70740000  0.63210000  0.34820000  1
  C  C333  1  0.71440000  0.02200000  0.51030000  1
  C  C334  1  0.71590000  0.46450000  0.96370000  1
  C  C335  1  0.72300000  0.94510000  0.15860000  1
  C  C336  1  0.72390000  0.37500000  0.87850000  1
  C  C337  1  0.72710000  0.31840000  0.77400000  1
  C  C338  1  0.73530000  0.49160000  0.24250000  1
  C  C339  1  0.73690000  0.42840000  0.21340000  1
  C  C340  1  0.74160000  0.91760000  0.92910000  1
  C  C341  1  0.74340000  0.86470000  0.81890000  1
  C  C342  1  0.74560000  0.50760000  0.01110000  1
  C  C343  1  0.74900000  0.15320000  0.82570000  1
  C  C344  1  0.75100000  0.65320000  0.82570000  1
  C  C345  1  0.75440000  0.00760000  0.01110000  1
  C  C346  1  0.75660000  0.36470000  0.81890000  1
  C  C347  1  0.75840000  0.41760000  0.92910000  1
  C  C348  1  0.76310000  0.92840000  0.21340000  1
  C  C349  1  0.76470000  0.99160000  0.24250000  1
  C  C350  1  0.77290000  0.81840000  0.77400000  1
  C  C351  1  0.77610000  0.87500000  0.87850000  1
  C  C352  1  0.77700000  0.44510000  0.15860000  1
  C  C353  1  0.78410000  0.96450000  0.96370000  1
  C  C354  1  0.78560000  0.52200000  0.51030000  1
  C  C355  1  0.79260000  0.13210000  0.34820000  1
  C  C356  1  0.79750000  0.06590000  0.77900000  1
  C  C357  1  0.79880000  0.09960000  0.83440000  1
  C  C358  1  0.81840000  0.22710000  0.27400000  1
  C  C359  1  0.82580000  0.52950000  0.45680000  1
  C  C360  1  0.83070000  0.41400000  0.94200000  1
  C  C361  1  0.83840000  0.83890000  0.89320000  1
  C  C362  1  0.83890000  0.16160000  0.39320000  1
  C  C363  1  0.84100000  0.97150000  0.64080000  1
  C  C364  1  0.84680000  0.74900000  0.32570000  1
  C  C365  1  0.86040000  0.45710000  0.98930000  1
  C  C366  1  0.86460000  0.09220000  0.60940000  1
  C  C367  1  0.86470000  0.25660000  0.31890000  1
  C  C368  1  0.86790000  0.79260000  0.84820000  1
  C  C369  1  0.87500000  0.22390000  0.37850000  1
  C  C370  1  0.88190000  0.57630000  0.47560000  1
  C  C371  1  0.90040000  0.79880000  0.33440000  1
  C  C372  1  0.90780000  0.86460000  0.10940000  1
  C  C373  1  0.91310000  0.95640000  0.63760000  1
  C  C374  1  0.91400000  0.33070000  0.44200000  1
  C  C375  1  0.91760000  0.25840000  0.42910000  1
  C  C376  1  0.92290000  0.93670000  0.10620000  1
  C  C377  1  0.92370000  0.61810000  0.97560000  1
  C  C378  1  0.92840000  0.23690000  0.71340000  1
  C  C379  1  0.93410000  0.79750000  0.27900000  1
  C  C380  1  0.93670000  0.07710000  0.60620000  1
  C  C381  1  0.94510000  0.27700000  0.65860000  1
  C  C382  1  0.95640000  0.08690000  0.13760000  1
  C  C383  1  0.95710000  0.36040000  0.48930000  1
  C  C384  1  0.96090000  0.00920000  0.62030000  1
  C  C385  1  0.96450000  0.21590000  0.46370000  1
  C  C386  1  0.97050000  0.67420000  0.95680000  1
  C  C387  1  0.97150000  0.15900000  0.14080000  1
  C  C388  1  0.97800000  0.71440000  0.01030000  1
  C  C389  1  0.99080000  0.96090000  0.12030000  1
  C  C390  1  0.99160000  0.23530000  0.74250000  1
  C  C391  1  0.99240000  0.75440000  0.51110000  1
  N  N392  1  0.00390000  0.31780000  0.52390000  1
  N  N393  1  0.00780000  0.30010000  0.65900000  1
  N  N394  1  0.03940000  0.18320000  0.12670000  1
  N  N395  1  0.04190000  0.27100000  0.71110000  1
  N  N396  1  0.06100000  0.31460000  0.05870000  1
  N  N397  1  0.08990000  0.37210000  0.03830000  1
  N  N398  1  0.09500000  0.25050000  0.23370000  1
  N  N399  1  0.12790000  0.41010000  0.53830000  1
  N  N400  1  0.14760000  0.28000000  0.26660000  1
  N  N401  1  0.16490000  0.21770000  0.78860000  1
  N  N402  1  0.18220000  0.49610000  0.02390000  1
  N  N403  1  0.18320000  0.96060000  0.62670000  1
  N  N404  1  0.18540000  0.43900000  0.55870000  1
  N  N405  1  0.19990000  0.49220000  0.15900000  1
  N  N406  1  0.21770000  0.83510000  0.28860000  1
  N  N407  1  0.22000000  0.35240000  0.76660000  1
  N  N408  1  0.22900000  0.45810000  0.21110000  1
  N  N409  1  0.24950000  0.40500000  0.73370000  1
  N  N410  1  0.25050000  0.90500000  0.73370000  1
  N  N411  1  0.27100000  0.95810000  0.21110000  1
  N  N412  1  0.28000000  0.85240000  0.76660000  1
  N  N413  1  0.28230000  0.33510000  0.28860000  1
  N  N414  1  0.30010000  0.99220000  0.15900000  1
  N  N415  1  0.31460000  0.93900000  0.55870000  1
  N  N416  1  0.31680000  0.46060000  0.62670000  1
  N  N417  1  0.31780000  0.99610000  0.02390000  1
  N  N418  1  0.33510000  0.71770000  0.78860000  1
  N  N419  1  0.35240000  0.78000000  0.26660000  1
  N  N420  1  0.37210000  0.91010000  0.53830000  1
  N  N421  1  0.40500000  0.75050000  0.23370000  1
  N  N422  1  0.41010000  0.87210000  0.03830000  1
  N  N423  1  0.43900000  0.81460000  0.05870000  1
  N  N424  1  0.45810000  0.77100000  0.71110000  1
  N  N425  1  0.46060000  0.68320000  0.12670000  1
  N  N426  1  0.49220000  0.80010000  0.65900000  1
  N  N427  1  0.49610000  0.81780000  0.52390000  1
  N  N428  1  0.50390000  0.18220000  0.52390000  1
  N  N429  1  0.50780000  0.19990000  0.65900000  1
  N  N430  1  0.53940000  0.31680000  0.12670000  1
  N  N431  1  0.54190000  0.22900000  0.71110000  1
  N  N432  1  0.56100000  0.18540000  0.05870000  1
  N  N433  1  0.58990000  0.12790000  0.03830000  1
  N  N434  1  0.59500000  0.24950000  0.23370000  1
  N  N435  1  0.62790000  0.08990000  0.53830000  1
  N  N436  1  0.64760000  0.22000000  0.26660000  1
  N  N437  1  0.66490000  0.28230000  0.78860000  1
  N  N438  1  0.68220000  0.00390000  0.02390000  1
  N  N439  1  0.68320000  0.53940000  0.62670000  1
  N  N440  1  0.68540000  0.06100000  0.55870000  1
  N  N441  1  0.69990000  0.00780000  0.15900000  1
  N  N442  1  0.71770000  0.66490000  0.28860000  1
  N  N443  1  0.72000000  0.14760000  0.76660000  1
  N  N444  1  0.72900000  0.04190000  0.21110000  1
  N  N445  1  0.74950000  0.09500000  0.73370000  1
  N  N446  1  0.75050000  0.59500000  0.73370000  1
  N  N447  1  0.77100000  0.54190000  0.21110000  1
  N  N448  1  0.78000000  0.64760000  0.76660000  1
  N  N449  1  0.78230000  0.16490000  0.28860000  1
  N  N450  1  0.80010000  0.50780000  0.15900000  1
  N  N451  1  0.81460000  0.56100000  0.55870000  1
  N  N452  1  0.81680000  0.03940000  0.62670000  1
  N  N453  1  0.81780000  0.50390000  0.02390000  1
  N  N454  1  0.83510000  0.78230000  0.78860000  1
  N  N455  1  0.85240000  0.72000000  0.26660000  1
  N  N456  1  0.87210000  0.58990000  0.53830000  1
  N  N457  1  0.90500000  0.74950000  0.23370000  1
  N  N458  1  0.91010000  0.62790000  0.03830000  1
  N  N459  1  0.93900000  0.68540000  0.05870000  1
  N  N460  1  0.95810000  0.72900000  0.71110000  1
  N  N461  1  0.96060000  0.81680000  0.12670000  1
  N  N462  1  0.99220000  0.69990000  0.65900000  1
  N  N463  1  0.99610000  0.68220000  0.52390000  1
  O  O464  1  0.11750000  0.37340000  0.17050000  1
  O  O465  1  0.12660000  0.38250000  0.67050000  1
  O  O466  1  0.37340000  0.88250000  0.67050000  1
  O  O467  1  0.38250000  0.87340000  0.17050000  1
  O  O468  1  0.61750000  0.12660000  0.17050000  1
  O  O469  1  0.62660000  0.11750000  0.67050000  1
  O  O470  1  0.87340000  0.61750000  0.67050000  1
  O  O471  1  0.88250000  0.62660000  0.17050000  1
