# generated using pymatgen
data_CoHC5O4
_symmetry_space_group_name_H-M   'P 1'
_cell_length_a   13.66900000
_cell_length_b   14.63300000
_cell_length_c   15.92500000
_cell_angle_alpha   90.00000000
_cell_angle_beta   90.00000000
_cell_angle_gamma   90.00000000
_symmetry_Int_Tables_number   1
_chemical_formula_structural   CoHC5O4
_chemical_formula_sum   'Co16 H16 C80 O64'
_cell_volume   3185.29424622
_cell_formula_units_Z   16
loop_
 _symmetry_equiv_pos_site_id
 _symmetry_equiv_pos_as_xyz
  1  'x, y, z'
loop_
 _atom_site_type_symbol
 _atom_site_label
 _atom_site_symmetry_multiplicity
 _atom_site_fract_x
 _atom_site_fract_y
 _atom_site_fract_z
 _atom_site_occupancy
  Co  Co0  1  0.93600000  0.96985000  0.58331000  1
  Co  Co1  1  0.93600000  0.46985000  0.41669000  1
  Co  Co2  1  0.79391000  0.76684000  0.50290000  1
  Co  Co3  1  0.79391000  0.26684000  0.49710000  1
  Co  Co4  1  0.70609000  0.26684000  0.99710000  1
  Co  Co5  1  0.70609000  0.76684000  0.00290000  1
  Co  Co6  1  0.56400000  0.46985000  0.91669000  1
  Co  Co7  1  0.56400000  0.96985000  0.08331000  1
  Co  Co8  1  0.43600000  0.03015000  0.91669000  1
  Co  Co9  1  0.43600000  0.53015000  0.08331000  1
  Co  Co10  1  0.29391000  0.23316000  0.99710000  1
  Co  Co11  1  0.29391000  0.73316000  0.00290000  1
  Co  Co12  1  0.20609000  0.73316000  0.50290000  1
  Co  Co13  1  0.20609000  0.23316000  0.49710000  1
  Co  Co14  1  0.06400000  0.53015000  0.58331000  1
  Co  Co15  1  0.06400000  0.03015000  0.41669000  1
  H  H16  1  0.83140000  0.35390000  0.74980000  1
  H  H17  1  0.83140000  0.85390000  0.25020000  1
  H  H18  1  0.81630000  0.66750000  0.77190000  1
  H  H19  1  0.81630000  0.16750000  0.22810000  1
  H  H20  1  0.68370000  0.16750000  0.72810000  1
  H  H21  1  0.68370000  0.66750000  0.27190000  1
  H  H22  1  0.66860000  0.85390000  0.75020000  1
  H  H23  1  0.66860000  0.35390000  0.24980000  1
  H  H24  1  0.33140000  0.64610000  0.75020000  1
  H  H25  1  0.33140000  0.14610000  0.24980000  1
  H  H26  1  0.31630000  0.33250000  0.72810000  1
  H  H27  1  0.31630000  0.83250000  0.27190000  1
  H  H28  1  0.18370000  0.83250000  0.77190000  1
  H  H29  1  0.18370000  0.33250000  0.22810000  1
  H  H30  1  0.16860000  0.14610000  0.74980000  1
  H  H31  1  0.16860000  0.64610000  0.25020000  1
  C  C32  1  0.87700000  0.63150000  0.62270000  1
  C  C33  1  0.87700000  0.13150000  0.37730000  1
  C  C34  1  0.87420000  0.42140000  0.60350000  1
  C  C35  1  0.87420000  0.92140000  0.39650000  1
  C  C36  1  0.85430000  0.47080000  0.68520000  1
  C  C37  1  0.85430000  0.97080000  0.31480000  1
  C  C38  1  0.85110000  0.56560000  0.69250000  1
  C  C39  1  0.85110000  0.06560000  0.30750000  1
  C  C40  1  0.82730000  0.41720000  0.75400000  1
  C  C41  1  0.82730000  0.91720000  0.24600000  1
  C  C42  1  0.81790000  0.60420000  0.76720000  1
  C  C43  1  0.81790000  0.10420000  0.23280000  1
  C  C44  1  0.79440000  0.45580000  0.82840000  1
  C  C45  1  0.79440000  0.95580000  0.17160000  1
  C  C46  1  0.78700000  0.55150000  0.83490000  1
  C  C47  1  0.78700000  0.05150000  0.16510000  1
  C  C48  1  0.76440000  0.38880000  0.89540000  1
  C  C49  1  0.76440000  0.88880000  0.10460000  1
  C  C50  1  0.75990000  0.10040000  0.59220000  1
  C  C51  1  0.75990000  0.60040000  0.40780000  1
  C  C52  1  0.74010000  0.60040000  0.90780000  1
  C  C53  1  0.74010000  0.10040000  0.09220000  1
  C  C54  1  0.73560000  0.88880000  0.60460000  1
  C  C55  1  0.73560000  0.38880000  0.39540000  1
  C  C56  1  0.71300000  0.05150000  0.66510000  1
  C  C57  1  0.71300000  0.55150000  0.33490000  1
  C  C58  1  0.70560000  0.95580000  0.67160000  1
  C  C59  1  0.70560000  0.45580000  0.32840000  1
  C  C60  1  0.68210000  0.10420000  0.73280000  1
  C  C61  1  0.68210000  0.60420000  0.26720000  1
  C  C62  1  0.67270000  0.91720000  0.74600000  1
  C  C63  1  0.67270000  0.41720000  0.25400000  1
  C  C64  1  0.64890000  0.06560000  0.80750000  1
  C  C65  1  0.64890000  0.56560000  0.19250000  1
  C  C66  1  0.64570000  0.97080000  0.81480000  1
  C  C67  1  0.64570000  0.47080000  0.18520000  1
  C  C68  1  0.62580000  0.92140000  0.89650000  1
  C  C69  1  0.62580000  0.42140000  0.10350000  1
  C  C70  1  0.62300000  0.13150000  0.87730000  1
  C  C71  1  0.62300000  0.63150000  0.12270000  1
  C  C72  1  0.37700000  0.36850000  0.87730000  1
  C  C73  1  0.37700000  0.86850000  0.12270000  1
  C  C74  1  0.37420000  0.57860000  0.89650000  1
  C  C75  1  0.37420000  0.07860000  0.10350000  1
  C  C76  1  0.35430000  0.52920000  0.81480000  1
  C  C77  1  0.35430000  0.02920000  0.18520000  1
  C  C78  1  0.35110000  0.43440000  0.80750000  1
  C  C79  1  0.35110000  0.93440000  0.19250000  1
  C  C80  1  0.32730000  0.58280000  0.74600000  1
  C  C81  1  0.32730000  0.08280000  0.25400000  1
  C  C82  1  0.31790000  0.39580000  0.73280000  1
  C  C83  1  0.31790000  0.89580000  0.26720000  1
  C  C84  1  0.29440000  0.54420000  0.67160000  1
  C  C85  1  0.29440000  0.04420000  0.32840000  1
  C  C86  1  0.28700000  0.44850000  0.66510000  1
  C  C87  1  0.28700000  0.94850000  0.33490000  1
  C  C88  1  0.26440000  0.61120000  0.60460000  1
  C  C89  1  0.26440000  0.11120000  0.39540000  1
  C  C90  1  0.25990000  0.89960000  0.90780000  1
  C  C91  1  0.25990000  0.39960000  0.09220000  1
  C  C92  1  0.24010000  0.39960000  0.59220000  1
  C  C93  1  0.24010000  0.89960000  0.40780000  1
  C  C94  1  0.23560000  0.11120000  0.89540000  1
  C  C95  1  0.23560000  0.61120000  0.10460000  1
  C  C96  1  0.21300000  0.94850000  0.83490000  1
  C  C97  1  0.21300000  0.44850000  0.16510000  1
  C  C98  1  0.20560000  0.04420000  0.82840000  1
  C  C99  1  0.20560000  0.54420000  0.17160000  1
  C  C100  1  0.18210000  0.89580000  0.76720000  1
  C  C101  1  0.18210000  0.39580000  0.23280000  1
  C  C102  1  0.17270000  0.08280000  0.75400000  1
  C  C103  1  0.17270000  0.58280000  0.24600000  1
  C  C104  1  0.14890000  0.93440000  0.69250000  1
  C  C105  1  0.14890000  0.43440000  0.30750000  1
  C  C106  1  0.14570000  0.02920000  0.68520000  1
  C  C107  1  0.14570000  0.52920000  0.31480000  1
  C  C108  1  0.12580000  0.07860000  0.60350000  1
  C  C109  1  0.12580000  0.57860000  0.39650000  1
  C  C110  1  0.12300000  0.86850000  0.62270000  1
  C  C111  1  0.12300000  0.36850000  0.37730000  1
  O  O112  1  0.96170000  0.63270000  0.59290000  1
  O  O113  1  0.96170000  0.13270000  0.40710000  1
  O  O114  1  0.94280000  0.44680000  0.55450000  1
  O  O115  1  0.94280000  0.94680000  0.44550000  1
  O  O116  1  0.82980000  0.06460000  0.55340000  1
  O  O117  1  0.82980000  0.56460000  0.44660000  1
  O  O118  1  0.82670000  0.87500000  0.59070000  1
  O  O119  1  0.82670000  0.37500000  0.40930000  1
  O  O120  1  0.82650000  0.34240000  0.93330000  1
  O  O121  1  0.82650000  0.84240000  0.06670000  1
  O  O122  1  0.81690000  0.35760000  0.58890000  1
  O  O123  1  0.81690000  0.85760000  0.41110000  1
  O  O124  1  0.80900000  0.68340000  0.60160000  1
  O  O125  1  0.80900000  0.18340000  0.39840000  1
  O  O126  1  0.77290000  0.67920000  0.92420000  1
  O  O127  1  0.77290000  0.17920000  0.07580000  1
  O  O128  1  0.72710000  0.17920000  0.57580000  1
  O  O129  1  0.72710000  0.67920000  0.42420000  1
  O  O130  1  0.69100000  0.18340000  0.89840000  1
  O  O131  1  0.69100000  0.68340000  0.10160000  1
  O  O132  1  0.68310000  0.85760000  0.91110000  1
  O  O133  1  0.68310000  0.35760000  0.08890000  1
  O  O134  1  0.67350000  0.84240000  0.56670000  1
  O  O135  1  0.67350000  0.34240000  0.43330000  1
  O  O136  1  0.67330000  0.37500000  0.90930000  1
  O  O137  1  0.67330000  0.87500000  0.09070000  1
  O  O138  1  0.67020000  0.56460000  0.94660000  1
  O  O139  1  0.67020000  0.06460000  0.05340000  1
  O  O140  1  0.55720000  0.94680000  0.94550000  1
  O  O141  1  0.55720000  0.44680000  0.05450000  1
  O  O142  1  0.53830000  0.13270000  0.90710000  1
  O  O143  1  0.53830000  0.63270000  0.09290000  1
  O  O144  1  0.46170000  0.36730000  0.90710000  1
  O  O145  1  0.46170000  0.86730000  0.09290000  1
  O  O146  1  0.44280000  0.55320000  0.94550000  1
  O  O147  1  0.44280000  0.05320000  0.05450000  1
  O  O148  1  0.32980000  0.93540000  0.94660000  1
  O  O149  1  0.32980000  0.43540000  0.05340000  1
  O  O150  1  0.32670000  0.12500000  0.90930000  1
  O  O151  1  0.32670000  0.62500000  0.09070000  1
  O  O152  1  0.32650000  0.65760000  0.56670000  1
  O  O153  1  0.32650000  0.15760000  0.43330000  1
  O  O154  1  0.31690000  0.64240000  0.91110000  1
  O  O155  1  0.31690000  0.14240000  0.08890000  1
  O  O156  1  0.30900000  0.31660000  0.89840000  1
  O  O157  1  0.30900000  0.81660000  0.10160000  1
  O  O158  1  0.27290000  0.32080000  0.57580000  1
  O  O159  1  0.27290000  0.82080000  0.42420000  1
  O  O160  1  0.22710000  0.82080000  0.92420000  1
  O  O161  1  0.22710000  0.32080000  0.07580000  1
  O  O162  1  0.19100000  0.81660000  0.60160000  1
  O  O163  1  0.19100000  0.31660000  0.39840000  1
  O  O164  1  0.18310000  0.14240000  0.58890000  1
  O  O165  1  0.18310000  0.64240000  0.41110000  1
  O  O166  1  0.17350000  0.15760000  0.93330000  1
  O  O167  1  0.17350000  0.65760000  0.06670000  1
  O  O168  1  0.17330000  0.62500000  0.59070000  1
  O  O169  1  0.17330000  0.12500000  0.40930000  1
  O  O170  1  0.17020000  0.43540000  0.55340000  1
  O  O171  1  0.17020000  0.93540000  0.44660000  1
  O  O172  1  0.05720000  0.05320000  0.55450000  1
  O  O173  1  0.05720000  0.55320000  0.44550000  1
  O  O174  1  0.03830000  0.86730000  0.59290000  1
  O  O175  1  0.03830000  0.36730000  0.40710000  1
