# generated using pymatgen
data_Cd2H11C21(NO2)3
_symmetry_space_group_name_H-M   'P 1'
_cell_length_a   10.26940000
_cell_length_b   14.76259709
_cell_length_c   18.18341524
_cell_angle_alpha   76.78373180
_cell_angle_beta   73.59747722
_cell_angle_gamma   69.64607537
_symmetry_Int_Tables_number   1
_chemical_formula_structural   Cd2H11C21(NO2)3
_chemical_formula_sum   'Cd8 H44 C84 N12 O24'
_cell_volume   2453.15256900
_cell_formula_units_Z   4
loop_
 _symmetry_equiv_pos_site_id
 _symmetry_equiv_pos_as_xyz
  1  'x, y, z'
loop_
 _atom_site_type_symbol
 _atom_site_label
 _atom_site_symmetry_multiplicity
 _atom_site_fract_x
 _atom_site_fract_y
 _atom_site_fract_z
 _atom_site_occupancy
  C  C0  1  0.83863000  0.98124000  0.87350000  1
  C  C1  1  0.30663000  0.48124000  0.37350000  1
  C  C2  1  0.88140000  0.03972000  0.80328000  1
  C  C3  1  0.27560000  0.53972000  0.30328000  1
  C  C4  1  0.94197000  0.33312000  0.49614000  1
  C  C5  1  0.22877000  0.83312000  0.99614000  1
  C  C6  1  0.00072000  0.42639000  0.36477000  1
  C  C7  1  0.20812000  0.92639000  0.86477000  1
  C  C8  1  0.80678000  0.90144000  0.86740000  1
  C  C9  1  0.42438000  0.40144000  0.36740000  1
  C  C10  1  0.94054000  0.35603000  0.41169000  1
  C  C11  1  0.29174000  0.85603000  0.91169000  1
  C  C12  1  0.89159000  0.01469000  0.73193000  1
  C  C13  1  0.36179000  0.51469000  0.23193000  1
  C  C14  1  0.02051000  0.43882000  0.28516000  1
  C  C15  1  0.25551000  0.93882000  0.78516000  1
  C  C16  1  0.89214000  0.30272000  0.37720000  1
  C  C17  1  0.42794000  0.80272000  0.87720000  1
  C  C18  1  0.81414000  0.87902000  0.79470000  1
  C  C19  1  0.51214000  0.37902000  0.29470000  1
  C  C20  1  0.85541000  0.93358000  0.72680000  1
  C  C21  1  0.48421000  0.43358000  0.22680000  1
  C  C22  1  0.10516000  0.64444000  0.00324000  1
  C  C23  1  0.24716000  0.14444000  0.50324000  1
  C  C24  1  0.98237000  0.38019000  0.25007000  1
  C  C25  1  0.38737000  0.88019000  0.75007000  1
  C  C26  1  0.88043000  0.61949000  0.99605000  1
  C  C27  1  0.50403000  0.11949000  0.49605000  1
  C  C28  1  0.91375000  0.31510000  0.29720000  1
  C  C29  1  0.47395000  0.81510000  0.79720000  1
  C  C30  1  0.01145000  0.63193000  0.95797000  1
  C  C31  1  0.39865000  0.13193000  0.45797000  1
  C  C32  1  0.75969000  0.09121000  0.49441000  1
  C  C33  1  0.65469000  0.59121000  0.99441000  1
  C  C34  1  0.79826000  0.60277000  0.95471000  1
  C  C35  1  0.64426000  0.10277000  0.45471000  1
  C  C36  1  0.02383000  0.38480000  0.16434000  1
  C  C37  1  0.42703000  0.88480000  0.66434000  1
  C  C38  1  0.15371000  0.39903000  0.12435000  1
  C  C39  1  0.32291000  0.89903000  0.62435000  1
  C  C40  1  0.05889000  0.62984000  0.87838000  1
  C  C41  1  0.43289000  0.12984000  0.37838000  1
  C  C42  1  0.94111000  0.37016000  0.12162000  1
  C  C43  1  0.56711000  0.87016000  0.62162000  1
  C  C44  1  0.84629000  0.60097000  0.87565000  1
  C  C45  1  0.67709000  0.10097000  0.37565000  1
  C  C46  1  0.97617000  0.61520000  0.83566000  1
  C  C47  1  0.57297000  0.11520000  0.33566000  1
  C  C48  1  0.20174000  0.39723000  0.04529000  1
  C  C49  1  0.35574000  0.89723000  0.54529000  1
  C  C50  1  0.24031000  0.90879000  0.50559000  1
  C  C51  1  0.34531000  0.40879000  0.00559000  1
  C  C52  1  0.98855000  0.36807000  0.04203000  1
  C  C53  1  0.60135000  0.86807000  0.54203000  1
  C  C54  1  0.08625000  0.68490000  0.70280000  1
  C  C55  1  0.52605000  0.18490000  0.20280000  1
  C  C56  1  0.11957000  0.38051000  0.00395000  1
  C  C57  1  0.49597000  0.88051000  0.50395000  1
  C  C58  1  0.01763000  0.61981000  0.74993000  1
  C  C59  1  0.61263000  0.11981000  0.24993000  1
  C  C60  1  0.89484000  0.35556000  0.99676000  1
  C  C61  1  0.75284000  0.85556000  0.49676000  1
  C  C62  1  0.14459000  0.06642000  0.27320000  1
  C  C63  1  0.51579000  0.56642000  0.77320000  1
  C  C64  1  0.18586000  0.12098000  0.20530000  1
  C  C65  1  0.48786000  0.62098000  0.70530000  1
  C  C66  1  0.10786000  0.69728000  0.62280000  1
  C  C67  1  0.57206000  0.19728000  0.12280000  1
  C  C68  1  0.97949000  0.56118000  0.71484000  1
  C  C69  1  0.74449000  0.06118000  0.21484000  1
  C  C70  1  0.10841000  0.98531000  0.26807000  1
  C  C71  1  0.63821000  0.48531000  0.76807000  1
  C  C72  1  0.05946000  0.64397000  0.58831000  1
  C  C73  1  0.70826000  0.14397000  0.08831000  1
  C  C74  1  0.19322000  0.09856000  0.13260000  1
  C  C75  1  0.57562000  0.59856000  0.63260000  1
  C  C76  1  0.99928000  0.57361000  0.63523000  1
  C  C77  1  0.79188000  0.07361000  0.13523000  1
  C  C78  1  0.05803000  0.66688000  0.50386000  1
  C  C79  1  0.77123000  0.16688000  0.00386000  1
  C  C80  1  0.11860000  0.96028000  0.19672000  1
  C  C81  1  0.72440000  0.46028000  0.69672000  1
  C  C82  1  0.16137000  0.01876000  0.12650000  1
  C  C83  1  0.69337000  0.51876000  0.62650000  1
  Cd  Cd84  1  0.02123000  0.27875000  0.63539000  1
  Cd  Cd85  1  0.06463000  0.77875000  0.13539000  1
  Cd  Cd86  1  0.97256000  0.10153000  0.54825000  1
  Cd  Cd87  1  0.37766000  0.60153000  0.04825000  1
  Cd  Cd88  1  0.02744000  0.89847000  0.45175000  1
  Cd  Cd89  1  0.62234000  0.39847000  0.95175000  1
  Cd  Cd90  1  0.97877000  0.72125000  0.36461000  1
  Cd  Cd91  1  0.93537000  0.22125000  0.86461000  1
  H  H92  1  0.83270000  0.99650000  0.92150000  1
  H  H93  1  0.24930000  0.49650000  0.42150000  1
  H  H94  1  0.02800000  0.46560000  0.38720000  1
  H  H95  1  0.11920000  0.96560000  0.88720000  1
  H  H96  1  0.77960000  0.86090000  0.91210000  1
  H  H97  1  0.44740000  0.36090000  0.41210000  1
  H  H98  1  0.05970000  0.48690000  0.25470000  1
  H  H99  1  0.19870000  0.98690000  0.75470000  1
  H  H100  1  0.84760000  0.62230000  0.04890000  1
  H  H101  1  0.48120000  0.12230000  0.54890000  1
  H  H102  1  0.84518333  0.25883333  0.40780000  1
  H  H103  1  0.48818333  0.75883333  0.90780000  1
  H  H104  1  0.78960000  0.82460000  0.79320000  1
  H  H105  1  0.59260000  0.32460000  0.29320000  1
  H  H106  1  0.85940000  0.91790000  0.67930000  1
  H  H107  1  0.54340000  0.41790000  0.17930000  1
  H  H108  1  0.21000000  0.41000000  0.15140000  1
  H  H109  1  0.22860000  0.91000000  0.65140000  1
  H  H110  1  0.88140000  0.27880000  0.27480000  1
  H  H111  1  0.56500000  0.77880000  0.77480000  1
  H  H112  1  0.85270000  0.36170000  0.14670000  1
  H  H113  1  0.63890000  0.86170000  0.64670000  1
  H  H114  1  0.14730000  0.63830000  0.85330000  1
  H  H115  1  0.36110000  0.13830000  0.35330000  1
  H  H116  1  0.11860000  0.72120000  0.72520000  1
  H  H117  1  0.43500000  0.22120000  0.22520000  1
  H  H118  1  0.79000000  0.59000000  0.84860000  1
  H  H119  1  0.77140000  0.09000000  0.34860000  1
  H  H120  1  0.14060000  0.08210000  0.32070000  1
  H  H121  1  0.45660000  0.58210000  0.82070000  1
  H  H122  1  0.21040000  0.17540000  0.20680000  1
  H  H123  1  0.40740000  0.67540000  0.70680000  1
  H  H124  1  0.15481667  0.74116667  0.59220000  1
  H  H125  1  0.51181667  0.24116667  0.09220000  1
  H  H126  1  0.15240000  0.37770000  0.95110000  1
  H  H127  1  0.51880000  0.87770000  0.45110000  1
  H  H128  1  0.94030000  0.51310000  0.74530000  1
  H  H129  1  0.80130000  0.01310000  0.24530000  1
  H  H130  1  0.22040000  0.13910000  0.08790000  1
  H  H131  1  0.55260000  0.63910000  0.58790000  1
  H  H132  1  0.97200000  0.53440000  0.61280000  1
  H  H133  1  0.88080000  0.03440000  0.11280000  1
  H  H134  1  0.16730000  0.00350000  0.07850000  1
  H  H135  1  0.75070000  0.50350000  0.57850000  1
  N  N136  1  0.92296000  0.12125000  0.78883000  1
  N  N137  1  0.16696000  0.62125000  0.28883000  1
  N  N138  1  0.95626000  0.14485000  0.71203000  1
  N  N139  1  0.18686000  0.64485000  0.21203000  1
  N  N140  1  0.93850000  0.08206000  0.67614000  1
  N  N141  1  0.30330000  0.58206000  0.17614000  1
  N  N142  1  0.06150000  0.91794000  0.32386000  1
  N  N143  1  0.69670000  0.41794000  0.82386000  1
  N  N144  1  0.04374000  0.85515000  0.28797000  1
  N  N145  1  0.81314000  0.35515000  0.78797000  1
  N  N146  1  0.07704000  0.87875000  0.21117000  1
  N  N147  1  0.83304000  0.37875000  0.71117000  1
  O  O148  1  0.00602000  0.37540000  0.52036000  1
  O  O149  1  0.09822000  0.87540000  0.02036000  1
  O  O150  1  0.88542000  0.27076000  0.54060000  1
  O  O151  1  0.30322000  0.77076000  0.04060000  1
  O  O152  1  0.05051000  0.66643000  0.07015000  1
  O  O153  1  0.21291000  0.16643000  0.57015000  1
  O  O154  1  0.72870000  0.10886000  0.56214000  1
  O  O155  1  0.60030000  0.60886000  0.06214000  1
  O  O156  1  0.16616000  0.12826000  0.47022000  1
  O  O157  1  0.23536000  0.62826000  0.97022000  1
  O  O158  1  0.88938000  0.06760000  0.45564000  1
  O  O159  1  0.58738000  0.56760000  0.95564000  1
  O  O160  1  0.11062000  0.93240000  0.54436000  1
  O  O161  1  0.41262000  0.43240000  0.04436000  1
  O  O162  1  0.83384000  0.87174000  0.52978000  1
  O  O163  1  0.76464000  0.37174000  0.02978000  1
  O  O164  1  0.27130000  0.89114000  0.43786000  1
  O  O165  1  0.39970000  0.39114000  0.93786000  1
  O  O166  1  0.94949000  0.33357000  0.92985000  1
  O  O167  1  0.78709000  0.83357000  0.42985000  1
  O  O168  1  0.11458000  0.72924000  0.45940000  1
  O  O169  1  0.69678000  0.22924000  0.95940000  1
  O  O170  1  0.99398000  0.62460000  0.47964000  1
  O  O171  1  0.90178000  0.12460000  0.97964000  1
