# generated using pymatgen
data_Zn2H25C36N3O7
_symmetry_space_group_name_H-M   'P 1'
_cell_length_a   6.78020000
_cell_length_b   22.02780000
_cell_length_c   24.39920000
_cell_angle_alpha   105.09600000
_cell_angle_beta   90.00000000
_cell_angle_gamma   90.00000000
_symmetry_Int_Tables_number   1
_chemical_formula_structural   Zn2H25C36N3O7
_chemical_formula_sum   'Zn8 H100 C144 N12 O28'
_cell_volume   3518.33641231
_cell_formula_units_Z   4
loop_
 _symmetry_equiv_pos_site_id
 _symmetry_equiv_pos_as_xyz
  1  'x, y, z'
loop_
 _atom_site_type_symbol
 _atom_site_label
 _atom_site_symmetry_multiplicity
 _atom_site_fract_x
 _atom_site_fract_y
 _atom_site_fract_z
 _atom_site_occupancy
  Zn  Zn0  1  0.02504000  0.26492000  0.08171000  1
  Zn  Zn1  1  0.02972000  0.23876000  0.93670000  1
  Zn  Zn2  1  0.47028000  0.23876000  0.43670000  1
  Zn  Zn3  1  0.47496000  0.26492000  0.58171000  1
  Zn  Zn4  1  0.52504000  0.73508000  0.41829000  1
  Zn  Zn5  1  0.52972000  0.76124000  0.56330000  1
  Zn  Zn6  1  0.97028000  0.76124000  0.06330000  1
  Zn  Zn7  1  0.97496000  0.73508000  0.91829000  1
  H  H8  1  0.01190000  0.51510000  0.93160000  1
  H  H9  1  0.03420000  0.41790000  0.60660000  1
  H  H10  1  0.03670000  0.00060000  0.94290000  1
  H  H11  1  0.04000000  0.21900000  0.00500000  1
  H  H12  1  0.04510000  0.83350000  0.86050000  1
  H  H13  1  0.06030000  0.62470000  0.27530000  1
  H  H14  1  0.08010000  0.13270000  0.51870000  1
  H  H15  1  0.08490000  0.90480000  0.60100000  1
  H  H16  1  0.08690000  0.17660000  0.39350000  1
  H  H17  1  0.09150000  0.19180000  0.69610000  1
  H  H18  1  0.11490000  0.30880000  0.84740000  1
  H  H19  1  0.12120000  0.67410000  0.39190000  1
  H  H20  1  0.12310000  0.01130000  0.39580000  1
  H  H21  1  0.12870000  0.38880000  0.06990000  1
  H  H22  1  0.13130000  0.32220000  0.28980000  1
  H  H23  1  0.14060000  0.51240000  0.62430000  1
  H  H24  1  0.14140000  0.78810000  0.47920000  1
  H  H25  1  0.15410000  0.36700000  0.48380000  1
  H  H26  1  0.17030000  0.82350000  0.24830000  1
  H  H27  1  0.17260000  0.81280000  0.66240000  1
  H  H28  1  0.17370000  0.63920000  0.72060000  1
  H  H29  1  0.17420000  0.08140000  0.05410000  1
  H  H30  1  0.17970000  0.45190000  0.96750000  1
  H  H31  1  0.19090000  0.59690000  0.10750000  1
  H  H32  1  0.24740000  0.91720000  0.36100000  1
  H  H33  1  0.25260000  0.91720000  0.86100000  1
  H  H34  1  0.30910000  0.59690000  0.60750000  1
  H  H35  1  0.32030000  0.45190000  0.46750000  1
  H  H36  1  0.32580000  0.08140000  0.55410000  1
  H  H37  1  0.32630000  0.63920000  0.22060000  1
  H  H38  1  0.32740000  0.81280000  0.16240000  1
  H  H39  1  0.32970000  0.82350000  0.74830000  1
  H  H40  1  0.34590000  0.36700000  0.98380000  1
  H  H41  1  0.35860000  0.78810000  0.97920000  1
  H  H42  1  0.35940000  0.51240000  0.12430000  1
  H  H43  1  0.36870000  0.32220000  0.78980000  1
  H  H44  1  0.37130000  0.38880000  0.56990000  1
  H  H45  1  0.37690000  0.01130000  0.89580000  1
  H  H46  1  0.37880000  0.67410000  0.89190000  1
  H  H47  1  0.38510000  0.30880000  0.34740000  1
  H  H48  1  0.40850000  0.19180000  0.19610000  1
  H  H49  1  0.41310000  0.17660000  0.89350000  1
  H  H50  1  0.41510000  0.90480000  0.10100000  1
  H  H51  1  0.41990000  0.13270000  0.01870000  1
  H  H52  1  0.43970000  0.62470000  0.77530000  1
  H  H53  1  0.45490000  0.83350000  0.36050000  1
  H  H54  1  0.46000000  0.21900000  0.50500000  1
  H  H55  1  0.46330000  0.00060000  0.44290000  1
  H  H56  1  0.46580000  0.41790000  0.10660000  1
  H  H57  1  0.48810000  0.51510000  0.43160000  1
  H  H58  1  0.51190000  0.48490000  0.56840000  1
  H  H59  1  0.53420000  0.58210000  0.89340000  1
  H  H60  1  0.53670000  0.99940000  0.55710000  1
  H  H61  1  0.54000000  0.78100000  0.49500000  1
  H  H62  1  0.54510000  0.16650000  0.63950000  1
  H  H63  1  0.56030000  0.37530000  0.22470000  1
  H  H64  1  0.58010000  0.86730000  0.98130000  1
  H  H65  1  0.58490000  0.09520000  0.89900000  1
  H  H66  1  0.58690000  0.82340000  0.10650000  1
  H  H67  1  0.59150000  0.80820000  0.80390000  1
  H  H68  1  0.61490000  0.69120000  0.65260000  1
  H  H69  1  0.62120000  0.32590000  0.10810000  1
  H  H70  1  0.62310000  0.98870000  0.10420000  1
  H  H71  1  0.62870000  0.61120000  0.43010000  1
  H  H72  1  0.63130000  0.67780000  0.21020000  1
  H  H73  1  0.64060000  0.48760000  0.87570000  1
  H  H74  1  0.64140000  0.21190000  0.02080000  1
  H  H75  1  0.65410000  0.63300000  0.01620000  1
  H  H76  1  0.67030000  0.17650000  0.25170000  1
  H  H77  1  0.67260000  0.18720000  0.83760000  1
  H  H78  1  0.67370000  0.36080000  0.77940000  1
  H  H79  1  0.67420000  0.91860000  0.44590000  1
  H  H80  1  0.67970000  0.54810000  0.53250000  1
  H  H81  1  0.69090000  0.40310000  0.39250000  1
  H  H82  1  0.74740000  0.08280000  0.13900000  1
  H  H83  1  0.75260000  0.08280000  0.63900000  1
  H  H84  1  0.80910000  0.40310000  0.89250000  1
  H  H85  1  0.82030000  0.54810000  0.03250000  1
  H  H86  1  0.82580000  0.91860000  0.94590000  1
  H  H87  1  0.82630000  0.36080000  0.27940000  1
  H  H88  1  0.82740000  0.18720000  0.33760000  1
  H  H89  1  0.82970000  0.17650000  0.75170000  1
  H  H90  1  0.84590000  0.63300000  0.51620000  1
  H  H91  1  0.85860000  0.21190000  0.52080000  1
  H  H92  1  0.85940000  0.48760000  0.37570000  1
  H  H93  1  0.86870000  0.67780000  0.71020000  1
  H  H94  1  0.87130000  0.61120000  0.93010000  1
  H  H95  1  0.87690000  0.98870000  0.60420000  1
  H  H96  1  0.87880000  0.32590000  0.60810000  1
  H  H97  1  0.88510000  0.69120000  0.15260000  1
  H  H98  1  0.90850000  0.80820000  0.30390000  1
  H  H99  1  0.91310000  0.82340000  0.60650000  1
  H  H100  1  0.91510000  0.09520000  0.39900000  1
  H  H101  1  0.91990000  0.86730000  0.48130000  1
  H  H102  1  0.93970000  0.37530000  0.72470000  1
  H  H103  1  0.95490000  0.16650000  0.13950000  1
  H  H104  1  0.96000000  0.78100000  0.99500000  1
  H  H105  1  0.96330000  0.99940000  0.05710000  1
  H  H106  1  0.96580000  0.58210000  0.39340000  1
  H  H107  1  0.98810000  0.48490000  0.06840000  1
  C  C108  1  0.00650000  0.22590000  0.71290000  1
  C  C109  1  0.00800000  0.60480000  0.92220000  1
  C  C110  1  0.01060000  0.99090000  0.59330000  1
  C  C111  1  0.02980000  0.86200000  0.45640000  1
  C  C112  1  0.03370000  0.88790000  0.07510000  1
  C  C113  1  0.03870000  0.28480000  0.70400000  1
  C  C114  1  0.05220000  0.74300000  0.69250000  1
  C  C115  1  0.05640000  0.90290000  0.42120000  1
  C  C116  1  0.05930000  0.78700000  0.66080000  1
  C  C117  1  0.07880000  0.04420000  0.57860000  1
  C  C118  1  0.08050000  0.53650000  0.60170000  1
  C  C119  1  0.08520000  0.66530000  0.27000000  1
  C  C120  1  0.09210000  0.54730000  0.92380000  1
  C  C121  1  0.09320000  0.39190000  0.46200000  1
  C  C122  1  0.09480000  0.20710000  0.37240000  1
  C  C123  1  0.09630000  0.62340000  0.55990000  1
  C  C124  1  0.09920000  0.99630000  0.06550000  1
  C  C125  1  0.10300000  0.58660000  0.40130000  1
  C  C126  1  0.10710000  0.48020000  0.42060000  1
  C  C127  1  0.11880000  0.29220000  0.31130000  1
  C  C128  1  0.13550000  0.94130000  0.59200000  1
  C  C129  1  0.14880000  0.78300000  0.25390000  1
  C  C130  1  0.15410000  0.84110000  0.88580000  1
  C  C131  1  0.16230000  0.81450000  0.45460000  1
  C  C132  1  0.16770000  0.94310000  0.07810000  1
  C  C133  1  0.18090000  0.58700000  0.59210000  1
  C  C134  1  0.19160000  0.44230000  0.45230000  1
  C  C135  1  0.19690000  0.64130000  0.40010000  1
  C  C136  1  0.20080000  0.29460000  0.66540000  1
  C  C137  1  0.20340000  0.67860000  0.54830000  1
  C  C138  1  0.20750000  0.53720000  0.41420000  1
  C  C139  1  0.22090000  0.89110000  0.38550000  1
  C  C140  1  0.22180000  0.73310000  0.72770000  1
  C  C141  1  0.22470000  0.04580000  0.06460000  1
  C  C142  1  0.23070000  0.28400000  0.84570000  1
  C  C143  1  0.24220000  0.67350000  0.23710000  1
  C  C144  1  0.25780000  0.67350000  0.73710000  1
  C  C145  1  0.26930000  0.28400000  0.34570000  1
  C  C146  1  0.27530000  0.04580000  0.56460000  1
  C  C147  1  0.27820000  0.73310000  0.22770000  1
  C  C148  1  0.27910000  0.89110000  0.88550000  1
  C  C149  1  0.29250000  0.53720000  0.91420000  1
  C  C150  1  0.29660000  0.67860000  0.04830000  1
  C  C151  1  0.29920000  0.29460000  0.16540000  1
  C  C152  1  0.30310000  0.64130000  0.90010000  1
  C  C153  1  0.30840000  0.44230000  0.95230000  1
  C  C154  1  0.31910000  0.58700000  0.09210000  1
  C  C155  1  0.33230000  0.94310000  0.57810000  1
  C  C156  1  0.33770000  0.81450000  0.95460000  1
  C  C157  1  0.34590000  0.84110000  0.38580000  1
  C  C158  1  0.35120000  0.78300000  0.75390000  1
  C  C159  1  0.36450000  0.94130000  0.09200000  1
  C  C160  1  0.38120000  0.29220000  0.81130000  1
  C  C161  1  0.39290000  0.48020000  0.92060000  1
  C  C162  1  0.39700000  0.58660000  0.90130000  1
  C  C163  1  0.40080000  0.99630000  0.56550000  1
  C  C164  1  0.40370000  0.62340000  0.05990000  1
  C  C165  1  0.40520000  0.20710000  0.87240000  1
  C  C166  1  0.40680000  0.39190000  0.96200000  1
  C  C167  1  0.40790000  0.54730000  0.42380000  1
  C  C168  1  0.41480000  0.66530000  0.77000000  1
  C  C169  1  0.41950000  0.53650000  0.10170000  1
  C  C170  1  0.42120000  0.04420000  0.07860000  1
  C  C171  1  0.44070000  0.78700000  0.16080000  1
  C  C172  1  0.44360000  0.90290000  0.92120000  1
  C  C173  1  0.44780000  0.74300000  0.19250000  1
  C  C174  1  0.46130000  0.28480000  0.20400000  1
  C  C175  1  0.46630000  0.88790000  0.57510000  1
  C  C176  1  0.47020000  0.86200000  0.95640000  1
  C  C177  1  0.48940000  0.99090000  0.09330000  1
  C  C178  1  0.49200000  0.60480000  0.42220000  1
  C  C179  1  0.49350000  0.22590000  0.21290000  1
  C  C180  1  0.50650000  0.77410000  0.78710000  1
  C  C181  1  0.50800000  0.39520000  0.57780000  1
  C  C182  1  0.51060000  0.00910000  0.90670000  1
  C  C183  1  0.52980000  0.13800000  0.04360000  1
  C  C184  1  0.53370000  0.11210000  0.42490000  1
  C  C185  1  0.53870000  0.71520000  0.79600000  1
  C  C186  1  0.55220000  0.25700000  0.80750000  1
  C  C187  1  0.55640000  0.09710000  0.07880000  1
  C  C188  1  0.55930000  0.21300000  0.83920000  1
  C  C189  1  0.57880000  0.95580000  0.92140000  1
  C  C190  1  0.58050000  0.46350000  0.89830000  1
  C  C191  1  0.58520000  0.33470000  0.23000000  1
  C  C192  1  0.59210000  0.45270000  0.57620000  1
  C  C193  1  0.59320000  0.60810000  0.03800000  1
  C  C194  1  0.59480000  0.79290000  0.12760000  1
  C  C195  1  0.59630000  0.37660000  0.94010000  1
  C  C196  1  0.59920000  0.00370000  0.43450000  1
  C  C197  1  0.60300000  0.41340000  0.09870000  1
  C  C198  1  0.60710000  0.51980000  0.07940000  1
  C  C199  1  0.61880000  0.70780000  0.18870000  1
  C  C200  1  0.63550000  0.05870000  0.90800000  1
  C  C201  1  0.64880000  0.21700000  0.24610000  1
  C  C202  1  0.65410000  0.15890000  0.61420000  1
  C  C203  1  0.66230000  0.18550000  0.04540000  1
  C  C204  1  0.66770000  0.05690000  0.42190000  1
  C  C205  1  0.68090000  0.41300000  0.90790000  1
  C  C206  1  0.69160000  0.55770000  0.04770000  1
  C  C207  1  0.69690000  0.35870000  0.09990000  1
  C  C208  1  0.70080000  0.70540000  0.83460000  1
  C  C209  1  0.70340000  0.32140000  0.95170000  1
  C  C210  1  0.70750000  0.46280000  0.08580000  1
  C  C211  1  0.72090000  0.10890000  0.11450000  1
  C  C212  1  0.72180000  0.26690000  0.77230000  1
  C  C213  1  0.72470000  0.95420000  0.43540000  1
  C  C214  1  0.73070000  0.71600000  0.65430000  1
  C  C215  1  0.74220000  0.32650000  0.26290000  1
  C  C216  1  0.75780000  0.32650000  0.76290000  1
  C  C217  1  0.76930000  0.71600000  0.15430000  1
  C  C218  1  0.77530000  0.95420000  0.93540000  1
  C  C219  1  0.77820000  0.26690000  0.27230000  1
  C  C220  1  0.77910000  0.10890000  0.61450000  1
  C  C221  1  0.79250000  0.46280000  0.58580000  1
  C  C222  1  0.79660000  0.32140000  0.45170000  1
  C  C223  1  0.79920000  0.70540000  0.33460000  1
  C  C224  1  0.80310000  0.35870000  0.59990000  1
  C  C225  1  0.80840000  0.55770000  0.54770000  1
  C  C226  1  0.81910000  0.41300000  0.40790000  1
  C  C227  1  0.83230000  0.05690000  0.92190000  1
  C  C228  1  0.83770000  0.18550000  0.54540000  1
  C  C229  1  0.84590000  0.15890000  0.11420000  1
  C  C230  1  0.85120000  0.21700000  0.74610000  1
  C  C231  1  0.86450000  0.05870000  0.40800000  1
  C  C232  1  0.88120000  0.70780000  0.68870000  1
  C  C233  1  0.89290000  0.51980000  0.57940000  1
  C  C234  1  0.89700000  0.41340000  0.59870000  1
  C  C235  1  0.90080000  0.00370000  0.93450000  1
  C  C236  1  0.90370000  0.37660000  0.44010000  1
  C  C237  1  0.90520000  0.79290000  0.62760000  1
  C  C238  1  0.90680000  0.60810000  0.53800000  1
  C  C239  1  0.90790000  0.45270000  0.07620000  1
  C  C240  1  0.91480000  0.33470000  0.73000000  1
  C  C241  1  0.91950000  0.46350000  0.39830000  1
  C  C242  1  0.92120000  0.95580000  0.42140000  1
  C  C243  1  0.94070000  0.21300000  0.33920000  1
  C  C244  1  0.94360000  0.09710000  0.57880000  1
  C  C245  1  0.94780000  0.25700000  0.30750000  1
  C  C246  1  0.96130000  0.71520000  0.29600000  1
  C  C247  1  0.96630000  0.11210000  0.92490000  1
  C  C248  1  0.97020000  0.13800000  0.54360000  1
  C  C249  1  0.98940000  0.00910000  0.40670000  1
  C  C250  1  0.99200000  0.39520000  0.07780000  1
  C  C251  1  0.99350000  0.77410000  0.28710000  1
  N  N252  1  0.11080000  0.65070000  0.90998000  1
  N  N253  1  0.18060000  0.80330000  0.92022000  1
  N  N254  1  0.23990000  0.24250000  0.87708000  1
  N  N255  1  0.26010000  0.24250000  0.37708000  1
  N  N256  1  0.31940000  0.80330000  0.42022000  1
  N  N257  1  0.38920000  0.65070000  0.40998000  1
  N  N258  1  0.61080000  0.34930000  0.59002000  1
  N  N259  1  0.68060000  0.19670000  0.57978000  1
  N  N260  1  0.73990000  0.75750000  0.62292000  1
  N  N261  1  0.76010000  0.75750000  0.12292000  1
  N  N262  1  0.81940000  0.19670000  0.07978000  1
  N  N263  1  0.88920000  0.34930000  0.09002000  1
  O  O264  1  0.11900000  0.83893000  0.08191000  1
  O  O265  1  0.12330000  0.71036000  0.51939000  1
  O  O266  1  0.12660000  0.68927000  0.07129000  1
  O  O267  1  0.14380000  0.10890000  0.93460000  1
  O  O268  1  0.15850000  0.25575000  0.01037000  1
  O  O269  1  0.19910000  0.24720000  0.13962000  1
  O  O270  1  0.22800000  0.34850000  0.65910000  1
  O  O271  1  0.27200000  0.34850000  0.15910000  1
  O  O272  1  0.30090000  0.24720000  0.63962000  1
  O  O273  1  0.34150000  0.25575000  0.51037000  1
  O  O274  1  0.35620000  0.10890000  0.43460000  1
  O  O275  1  0.37340000  0.68927000  0.57129000  1
  O  O276  1  0.37670000  0.71036000  0.01939000  1
  O  O277  1  0.38100000  0.83893000  0.58191000  1
  O  O278  1  0.61900000  0.16107000  0.41809000  1
  O  O279  1  0.62330000  0.28964000  0.98061000  1
  O  O280  1  0.62660000  0.31073000  0.42871000  1
  O  O281  1  0.64380000  0.89110000  0.56540000  1
  O  O282  1  0.65850000  0.74425000  0.48963000  1
  O  O283  1  0.69910000  0.75280000  0.36038000  1
  O  O284  1  0.72800000  0.65150000  0.84090000  1
  O  O285  1  0.77200000  0.65150000  0.34090000  1
  O  O286  1  0.80090000  0.75280000  0.86038000  1
  O  O287  1  0.84150000  0.74425000  0.98963000  1
  O  O288  1  0.85620000  0.89110000  0.06540000  1
  O  O289  1  0.87340000  0.31073000  0.92871000  1
  O  O290  1  0.87670000  0.28964000  0.48061000  1
  O  O291  1  0.88100000  0.16107000  0.91809000  1
