# generated using pymatgen
data_Zn3P4H15C14(NO7)2
_symmetry_space_group_name_H-M   'P 1'
_cell_length_a   9.41000000
_cell_length_b   9.64600000
_cell_length_c   30.92900000
_cell_angle_alpha   93.33800000
_cell_angle_beta   90.00000000
_cell_angle_gamma   90.00000000
_symmetry_Int_Tables_number   1
_chemical_formula_structural   Zn3P4H15C14(NO7)2
_chemical_formula_sum   'Zn12 P16 H60 C56 N8 O56'
_cell_volume   2802.62710668
_cell_formula_units_Z   4
loop_
 _symmetry_equiv_pos_site_id
 _symmetry_equiv_pos_as_xyz
  1  'x, y, z'
loop_
 _atom_site_type_symbol
 _atom_site_label
 _atom_site_symmetry_multiplicity
 _atom_site_fract_x
 _atom_site_fract_y
 _atom_site_fract_z
 _atom_site_occupancy
  Zn  Zn0  1  0.77106000  0.96443000  0.35973000  1
  Zn  Zn1  1  0.72894000  0.96443000  0.85973000  1
  Zn  Zn2  1  0.30211000  0.93833000  0.30655000  1
  Zn  Zn3  1  0.19789000  0.93833000  0.80655000  1
  Zn  Zn4  1  0.44396000  0.78537000  0.96031000  1
  Zn  Zn5  1  0.05604000  0.78537000  0.46031000  1
  Zn  Zn6  1  0.94396000  0.21463000  0.53969000  1
  Zn  Zn7  1  0.55604000  0.21463000  0.03969000  1
  Zn  Zn8  1  0.80211000  0.06167000  0.19345000  1
  Zn  Zn9  1  0.69789000  0.06167000  0.69345000  1
  Zn  Zn10  1  0.27106000  0.03557000  0.14027000  1
  Zn  Zn11  1  0.22894000  0.03557000  0.64027000  1
  P  P12  1  0.40073000  0.97522000  0.88550000  1
  P  P13  1  0.09927000  0.97522000  0.38550000  1
  P  P14  1  0.38987000  0.96249000  0.72080000  1
  P  P15  1  0.11013000  0.96249000  0.22080000  1
  P  P16  1  0.37431000  0.92741000  0.05042000  1
  P  P17  1  0.12569000  0.92741000  0.55042000  1
  P  P18  1  0.93922000  0.75108000  0.81730000  1
  P  P19  1  0.56078000  0.75108000  0.31730000  1
  P  P20  1  0.43922000  0.24892000  0.68270000  1
  P  P21  1  0.06078000  0.24892000  0.18270000  1
  P  P22  1  0.87431000  0.07259000  0.44958000  1
  P  P23  1  0.62569000  0.07259000  0.94958000  1
  P  P24  1  0.88987000  0.03751000  0.77920000  1
  P  P25  1  0.61013000  0.03751000  0.27920000  1
  P  P26  1  0.90073000  0.02478000  0.61450000  1
  P  P27  1  0.59927000  0.02478000  0.11450000  1
  H  H28  1  0.87280000  0.86540000  0.52450000  1
  H  H29  1  0.62720000  0.86540000  0.02450000  1
  H  H30  1  0.81820000  0.85150000  0.25320000  1
  H  H31  1  0.68180000  0.85150000  0.75320000  1
  H  H32  1  0.46220000  0.85150000  0.22800000  1
  H  H33  1  0.03780000  0.85150000  0.72800000  1
  H  H34  1  0.89020000  0.84560000  0.70490000  1
  H  H35  1  0.60980000  0.84560000  0.20490000  1
  H  H36  1  0.46070000  0.78890000  0.13330000  1
  H  H37  1  0.03930000  0.78890000  0.63330000  1
  H  H38  1  0.89390000  0.72600000  0.61800000  1
  H  H39  1  0.60610000  0.72600000  0.11800000  1
  H  H40  1  0.96550000  0.70990000  0.31960000  1
  H  H41  1  0.53450000  0.70990000  0.81960000  1
  H  H42  1  0.77190000  0.70850000  0.44230000  1
  H  H43  1  0.72810000  0.70850000  0.94230000  1
  H  H44  1  0.25660000  0.67610000  0.61110000  1
  H  H45  1  0.24340000  0.67610000  0.11110000  1
  H  H46  1  0.31930000  0.65540000  0.22180000  1
  H  H47  1  0.18070000  0.65540000  0.72180000  1
  H  H48  1  0.30460000  0.62910000  0.81800000  1
  H  H49  1  0.19540000  0.62910000  0.31800000  1
  H  H50  1  0.76380000  0.60150000  0.70390000  1
  H  H51  1  0.73620000  0.60150000  0.20390000  1
  H  H52  1  0.79330000  0.56540000  0.30000000  1
  H  H53  1  0.70670000  0.56540000  0.80000000  1
  H  H54  1  0.85830000  0.53460000  0.90740000  1
  H  H55  1  0.64170000  0.53460000  0.40740000  1
  H  H56  1  0.89080000  0.52300000  0.56590000  1
  H  H57  1  0.60920000  0.52300000  0.06590000  1
  H  H58  1  0.39080000  0.47700000  0.93410000  1
  H  H59  1  0.10920000  0.47700000  0.43410000  1
  H  H60  1  0.35830000  0.46540000  0.59260000  1
  H  H61  1  0.14170000  0.46540000  0.09260000  1
  H  H62  1  0.29330000  0.43460000  0.20000000  1
  H  H63  1  0.20670000  0.43460000  0.70000000  1
  H  H64  1  0.26380000  0.39850000  0.79610000  1
  H  H65  1  0.23620000  0.39850000  0.29610000  1
  H  H66  1  0.80460000  0.37090000  0.68200000  1
  H  H67  1  0.69540000  0.37090000  0.18200000  1
  H  H68  1  0.81930000  0.34460000  0.27820000  1
  H  H69  1  0.68070000  0.34460000  0.77820000  1
  H  H70  1  0.75660000  0.32390000  0.88890000  1
  H  H71  1  0.74340000  0.32390000  0.38890000  1
  H  H72  1  0.27190000  0.29150000  0.05770000  1
  H  H73  1  0.22810000  0.29150000  0.55770000  1
  H  H74  1  0.46550000  0.29010000  0.18040000  1
  H  H75  1  0.03450000  0.29010000  0.68040000  1
  H  H76  1  0.39390000  0.27400000  0.88200000  1
  H  H77  1  0.10610000  0.27400000  0.38200000  1
  H  H78  1  0.96070000  0.21110000  0.36670000  1
  H  H79  1  0.53930000  0.21110000  0.86670000  1
  H  H80  1  0.39020000  0.15440000  0.79510000  1
  H  H81  1  0.10980000  0.15440000  0.29510000  1
  H  H82  1  0.96220000  0.14850000  0.27200000  1
  H  H83  1  0.53780000  0.14850000  0.77200000  1
  H  H84  1  0.31820000  0.14850000  0.24680000  1
  H  H85  1  0.18180000  0.14850000  0.74680000  1
  H  H86  1  0.37280000  0.13460000  0.97550000  1
  H  H87  1  0.12720000  0.13460000  0.47550000  1
  C  C88  1  0.96410000  0.87690000  0.57880000  1
  C  C89  1  0.53590000  0.87690000  0.07880000  1
  C  C90  1  0.87160000  0.84670000  0.77150000  1
  C  C91  1  0.62840000  0.84670000  0.27150000  1
  C  C92  1  0.94560000  0.80650000  0.72770000  1
  C  C93  1  0.55440000  0.80650000  0.22770000  1
  C  C94  1  0.98670000  0.75390000  0.60800000  1
  C  C95  1  0.51330000  0.75390000  0.10800000  1
  C  C96  1  0.96780000  0.65570000  0.71550000  1
  C  C97  1  0.53220000  0.65570000  0.21550000  1
  C  C98  1  0.81570000  0.62460000  0.43420000  1
  C  C99  1  0.68430000  0.62460000  0.93420000  1
  C  C100  1  0.43780000  0.62350000  0.09000000  1
  C  C101  1  0.06220000  0.62350000  0.59000000  1
  C  C102  1  0.98440000  0.61790000  0.31080000  1
  C  C103  1  0.51560000  0.61790000  0.81080000  1
  C  C104  1  0.29740000  0.60470000  0.09790000  1
  C  C105  1  0.20260000  0.60470000  0.59790000  1
  C  C106  1  0.39710000  0.60030000  0.21390000  1
  C  C107  1  0.10290000  0.60030000  0.71390000  1
  C  C108  1  0.37980000  0.57060000  0.81000000  1
  C  C109  1  0.12020000  0.57060000  0.31000000  1
  C  C110  1  0.85630000  0.56730000  0.70320000  1
  C  C111  1  0.64370000  0.56730000  0.20320000  1
  C  C112  1  0.76300000  0.51980000  0.91350000  1
  C  C113  1  0.73700000  0.51980000  0.41350000  1
  C  C114  1  0.98780000  0.51250000  0.57030000  1
  C  C115  1  0.51220000  0.51250000  0.07030000  1
  C  C116  1  0.48780000  0.48750000  0.92970000  1
  C  C117  1  0.01220000  0.48750000  0.42970000  1
  C  C118  1  0.26300000  0.48020000  0.58650000  1
  C  C119  1  0.23700000  0.48020000  0.08650000  1
  C  C120  1  0.35630000  0.43270000  0.79680000  1
  C  C121  1  0.14370000  0.43270000  0.29680000  1
  C  C122  1  0.87980000  0.42940000  0.69000000  1
  C  C123  1  0.62020000  0.42940000  0.19000000  1
  C  C124  1  0.89710000  0.39970000  0.28610000  1
  C  C125  1  0.60290000  0.39970000  0.78610000  1
  C  C126  1  0.79740000  0.39530000  0.40210000  1
  C  C127  1  0.70260000  0.39530000  0.90210000  1
  C  C128  1  0.48440000  0.38210000  0.18920000  1
  C  C129  1  0.01560000  0.38210000  0.68920000  1
  C  C130  1  0.93780000  0.37650000  0.41000000  1
  C  C131  1  0.56220000  0.37650000  0.91000000  1
  C  C132  1  0.31570000  0.37540000  0.06580000  1
  C  C133  1  0.18430000  0.37540000  0.56580000  1
  C  C134  1  0.46780000  0.34430000  0.78450000  1
  C  C135  1  0.03220000  0.34430000  0.28450000  1
  C  C136  1  0.48670000  0.24610000  0.89200000  1
  C  C137  1  0.01330000  0.24610000  0.39200000  1
  C  C138  1  0.44560000  0.19350000  0.77230000  1
  C  C139  1  0.05440000  0.19350000  0.27230000  1
  C  C140  1  0.37160000  0.15330000  0.72850000  1
  C  C141  1  0.12840000  0.15330000  0.22850000  1
  C  C142  1  0.46410000  0.12310000  0.92120000  1
  C  C143  1  0.03590000  0.12310000  0.42120000  1
  N  N144  1  0.95210000  0.60820000  0.44270000  1
  N  N145  1  0.54790000  0.60820000  0.94270000  1
  N  N146  1  0.87840000  0.53300000  0.29910000  1
  N  N147  1  0.62160000  0.53300000  0.79910000  1
  N  N148  1  0.37840000  0.46700000  0.20090000  1
  N  N149  1  0.12160000  0.46700000  0.70090000  1
  N  N150  1  0.45210000  0.39180000  0.05730000  1
  N  N151  1  0.04790000  0.39180000  0.55730000  1
  O  O152  1  0.78410000  0.96960000  0.64241000  1
  O  O153  1  0.71590000  0.96960000  0.14241000  1
  O  O154  1  0.95110000  0.93420000  0.21381000  1
  O  O155  1  0.54890000  0.93420000  0.71381000  1
  O  O156  1  0.25430000  0.93160000  0.08325000  1
  O  O157  1  0.24570000  0.93160000  0.58325000  1
  O  O158  1  0.89960000  0.93040000  0.46688000  1
  O  O159  1  0.60040000  0.93040000  0.96688000  1
  O  O160  1  0.97240000  0.92210000  0.35933000  1
  O  O161  1  0.52760000  0.92210000  0.85933000  1
  O  O162  1  0.30160000  0.91100000  0.68205000  1
  O  O163  1  0.19840000  0.91100000  0.18205000  1
  O  O164  1  0.33800000  0.90020000  0.76185000  1
  O  O165  1  0.16200000  0.90020000  0.26185000  1
  O  O166  1  0.34090000  0.86610000  0.91420000  1
  O  O167  1  0.15910000  0.86610000  0.41420000  1
  O  O168  1  0.85470000  0.83450000  0.54797000  1
  O  O169  1  0.64530000  0.83450000  0.04797000  1
  O  O170  1  0.86990000  0.81940000  0.85820000  1
  O  O171  1  0.63010000  0.81940000  0.35820000  1
  O  O172  1  0.34330000  0.81740000  0.01447000  1
  O  O173  1  0.15670000  0.81740000  0.51447000  1
  O  O174  1  0.77570000  0.80860000  0.27136000  1
  O  O175  1  0.72430000  0.80860000  0.77136000  1
  O  O176  1  0.39940000  0.76960000  0.31843000  1
  O  O177  1  0.10060000  0.76960000  0.81843000  1
  O  O178  1  0.89640000  0.60170000  0.80950000  1
  O  O179  1  0.60360000  0.60170000  0.30950000  1
  O  O180  1  0.39640000  0.39830000  0.69050000  1
  O  O181  1  0.10360000  0.39830000  0.19050000  1
  O  O182  1  0.89940000  0.23040000  0.18157000  1
  O  O183  1  0.60060000  0.23040000  0.68157000  1
  O  O184  1  0.27570000  0.19140000  0.22864000  1
  O  O185  1  0.22430000  0.19140000  0.72864000  1
  O  O186  1  0.84330000  0.18260000  0.48553000  1
  O  O187  1  0.65670000  0.18260000  0.98553000  1
  O  O188  1  0.36990000  0.18060000  0.64180000  1
  O  O189  1  0.13010000  0.18060000  0.14180000  1
  O  O190  1  0.35470000  0.16550000  0.95203000  1
  O  O191  1  0.14530000  0.16550000  0.45203000  1
  O  O192  1  0.84090000  0.13390000  0.58580000  1
  O  O193  1  0.65910000  0.13390000  0.08580000  1
  O  O194  1  0.83800000  0.09980000  0.73815000  1
  O  O195  1  0.66200000  0.09980000  0.23815000  1
  O  O196  1  0.80160000  0.08900000  0.81795000  1
  O  O197  1  0.69840000  0.08900000  0.31795000  1
  O  O198  1  0.47240000  0.07790000  0.14067000  1
  O  O199  1  0.02760000  0.07790000  0.64067000  1
  O  O200  1  0.39960000  0.06960000  0.03312000  1
  O  O201  1  0.10040000  0.06960000  0.53312000  1
  O  O202  1  0.75430000  0.06840000  0.41675000  1
  O  O203  1  0.74570000  0.06840000  0.91675000  1
  O  O204  1  0.45110000  0.06580000  0.28619000  1
  O  O205  1  0.04890000  0.06580000  0.78619000  1
  O  O206  1  0.28410000  0.03040000  0.85759000  1
  O  O207  1  0.21590000  0.03040000  0.35759000  1
