# generated using pymatgen
data_EuH4C12(SO4)2
_symmetry_space_group_name_H-M   'P 1'
_cell_length_a   11.58900000
_cell_length_b   11.76360000
_cell_length_c   16.36090000
_cell_angle_alpha   90.00000000
_cell_angle_beta   90.00000000
_cell_angle_gamma   113.31400000
_symmetry_Int_Tables_number   1
_chemical_formula_structural   EuH4C12(SO4)2
_chemical_formula_sum   'Eu4 H16 C48 S8 O32'
_cell_volume   2048.33738735
_cell_formula_units_Z   4
loop_
 _symmetry_equiv_pos_site_id
 _symmetry_equiv_pos_as_xyz
  1  'x, y, z'
loop_
 _atom_site_type_symbol
 _atom_site_label
 _atom_site_symmetry_multiplicity
 _atom_site_fract_x
 _atom_site_fract_y
 _atom_site_fract_z
 _atom_site_occupancy
  Eu  Eu0  1  0.57594000  0.19022000  0.53446000  1
  Eu  Eu1  1  0.07594000  0.19022000  0.96554000  1
  Eu  Eu2  1  0.92406000  0.80978000  0.03446000  1
  Eu  Eu3  1  0.42406000  0.80978000  0.46554000  1
  H  H4  1  0.31950000  0.24140000  0.13890000  1
  H  H5  1  0.81950000  0.24140000  0.36110000  1
  H  H6  1  0.93780000  0.26990000  0.23370000  1
  H  H7  1  0.43780000  0.26990000  0.26630000  1
  H  H8  1  0.41280000  0.33230000  0.73580000  1
  H  H9  1  0.91280000  0.33230000  0.76420000  1
  H  H10  1  0.46720000  0.44690000  0.60820000  1
  H  H11  1  0.96720000  0.44690000  0.89180000  1
  H  H12  1  0.03280000  0.55310000  0.10820000  1
  H  H13  1  0.53280000  0.55310000  0.39180000  1
  H  H14  1  0.08720000  0.66770000  0.23580000  1
  H  H15  1  0.58720000  0.66770000  0.26420000  1
  H  H16  1  0.56220000  0.73010000  0.73370000  1
  H  H17  1  0.06220000  0.73010000  0.76630000  1
  H  H18  1  0.18050000  0.75860000  0.63890000  1
  H  H19  1  0.68050000  0.75860000  0.86110000  1
  C  C20  1  0.30980000  0.00250000  0.57540000  1
  C  C21  1  0.80980000  0.00250000  0.92460000  1
  C  C22  1  0.27260000  0.05450000  0.14580000  1
  C  C23  1  0.77260000  0.05450000  0.35420000  1
  C  C24  1  0.94640000  0.06490000  0.14820000  1
  C  C25  1  0.44640000  0.06490000  0.35180000  1
  C  C26  1  0.89080000  0.08400000  0.22560000  1
  C  C27  1  0.39080000  0.08400000  0.27440000  1
  C  C28  1  0.32680000  0.17710000  0.16850000  1
  C  C29  1  0.82680000  0.17710000  0.33150000  1
  C  C30  1  0.39470000  0.19310000  0.24210000  1
  C  C31  1  0.89470000  0.19310000  0.25790000  1
  C  C32  1  0.70410000  0.32370000  0.67260000  1
  C  C33  1  0.20410000  0.32370000  0.82740000  1
  C  C34  1  0.36970000  0.37790000  0.71510000  1
  C  C35  1  0.86970000  0.37790000  0.78490000  1
  C  C36  1  0.76790000  0.38630000  0.74740000  1
  C  C37  1  0.26790000  0.38630000  0.75260000  1
  C  C38  1  0.15780000  0.40470000  0.05860000  1
  C  C39  1  0.65780000  0.40470000  0.44140000  1
  C  C40  1  0.40200000  0.44510000  0.64200000  1
  C  C41  1  0.90200000  0.44510000  0.85800000  1
  C  C42  1  0.17210000  0.49260000  0.12600000  1
  C  C43  1  0.67210000  0.49260000  0.37400000  1
  C  C44  1  0.32790000  0.50740000  0.62600000  1
  C  C45  1  0.82790000  0.50740000  0.87400000  1
  C  C46  1  0.09800000  0.55490000  0.14200000  1
  C  C47  1  0.59800000  0.55490000  0.35800000  1
  C  C48  1  0.34220000  0.59530000  0.55860000  1
  C  C49  1  0.84220000  0.59530000  0.94140000  1
  C  C50  1  0.73210000  0.61370000  0.24740000  1
  C  C51  1  0.23210000  0.61370000  0.25260000  1
  C  C52  1  0.13030000  0.62210000  0.21510000  1
  C  C53  1  0.63030000  0.62210000  0.28490000  1
  C  C54  1  0.79590000  0.67630000  0.17260000  1
  C  C55  1  0.29590000  0.67630000  0.32740000  1
  C  C56  1  0.10530000  0.80690000  0.74210000  1
  C  C57  1  0.60530000  0.80690000  0.75790000  1
  C  C58  1  0.17320000  0.82290000  0.66850000  1
  C  C59  1  0.67320000  0.82290000  0.83150000  1
  C  C60  1  0.60920000  0.91600000  0.72560000  1
  C  C61  1  0.10920000  0.91600000  0.77440000  1
  C  C62  1  0.55360000  0.93510000  0.64820000  1
  C  C63  1  0.05360000  0.93510000  0.85180000  1
  C  C64  1  0.22740000  0.94550000  0.64580000  1
  C  C65  1  0.72740000  0.94550000  0.85420000  1
  C  C66  1  0.19020000  0.99750000  0.07540000  1
  C  C67  1  0.69020000  0.99750000  0.42460000  1
  S  S68  1  0.19768000  0.03995000  0.71565000  1
  S  S69  1  0.69768000  0.03995000  0.78435000  1
  S  S70  1  0.21257000  0.47984000  0.69871000  1
  S  S71  1  0.71257000  0.47984000  0.80129000  1
  S  S72  1  0.28743000  0.52016000  0.19871000  1
  S  S73  1  0.78743000  0.52016000  0.30129000  1
  S  S74  1  0.30232000  0.96005000  0.21565000  1
  S  S75  1  0.80232000  0.96005000  0.28435000  1
  O  O76  1  0.55240000  0.04140000  0.63797000  1
  O  O77  1  0.05240000  0.04140000  0.86203000  1
  O  O78  1  0.17090000  0.06850000  0.02401000  1
  O  O79  1  0.67090000  0.06850000  0.47599000  1
  O  O80  1  0.35670000  0.11860000  0.57079000  1
  O  O81  1  0.85670000  0.11860000  0.92921000  1
  O  O82  1  0.98610000  0.15230000  0.09870000  1
  O  O83  1  0.48610000  0.15230000  0.40130000  1
  O  O84  1  0.76290000  0.28200000  0.62291000  1
  O  O85  1  0.26290000  0.28200000  0.87709000  1
  O  O86  1  0.59350000  0.31140000  0.65920000  1
  O  O87  1  0.09350000  0.31140000  0.84080000  1
  O  O88  1  0.23170000  0.35050000  0.05280000  1
  O  O89  1  0.73170000  0.35050000  0.44720000  1
  O  O90  1  0.06820000  0.38410000  0.00920000  1
  O  O91  1  0.56820000  0.38410000  0.49080000  1
  O  O92  1  0.43180000  0.61590000  0.50920000  1
  O  O93  1  0.93180000  0.61590000  0.99080000  1
  O  O94  1  0.26830000  0.64950000  0.55280000  1
  O  O95  1  0.76830000  0.64950000  0.94720000  1
  O  O96  1  0.90650000  0.68860000  0.15920000  1
  O  O97  1  0.40650000  0.68860000  0.34080000  1
  O  O98  1  0.73710000  0.71800000  0.12291000  1
  O  O99  1  0.23710000  0.71800000  0.37709000  1
  O  O100  1  0.51390000  0.84770000  0.59870000  1
  O  O101  1  0.01390000  0.84770000  0.90130000  1
  O  O102  1  0.14330000  0.88140000  0.07079000  1
  O  O103  1  0.64330000  0.88140000  0.42921000  1
  O  O104  1  0.32910000  0.93150000  0.52401000  1
  O  O105  1  0.82910000  0.93150000  0.97599000  1
  O  O106  1  0.94760000  0.95860000  0.13797000  1
  O  O107  1  0.44760000  0.95860000  0.36203000  1
