# generated using pymatgen
data_Eu2H6(C3O4)3
_symmetry_space_group_name_H-M   'P 1'
_cell_length_a   10.54410000
_cell_length_b   10.54410000
_cell_length_c   10.77740880
_cell_angle_alpha   101.66903916
_cell_angle_beta   117.57802951
_cell_angle_gamma   108.66700000
_symmetry_Int_Tables_number   1
_chemical_formula_structural   Eu2H6(C3O4)3
_chemical_formula_sum   'Eu4 H12 C18 O24'
_cell_volume   914.40085416
_cell_formula_units_Z   2
loop_
 _symmetry_equiv_pos_site_id
 _symmetry_equiv_pos_as_xyz
  1  'x, y, z'
loop_
 _atom_site_type_symbol
 _atom_site_label
 _atom_site_symmetry_multiplicity
 _atom_site_fract_x
 _atom_site_fract_y
 _atom_site_fract_z
 _atom_site_occupancy
  Eu  Eu0  1  0.58626000  0.49884000  0.37630000  1
  Eu  Eu1  1  0.07792000  0.36651000  0.14357000  1
  Eu  Eu2  1  0.27706000  0.06565000  0.64357000  1
  Eu  Eu3  1  0.37746000  0.79004000  0.87630000  1
  H  H4  1  0.08860000  0.03690000  0.97910000  1
  H  H5  1  0.57520000  0.83480000  0.54820000  1
  H  H6  1  0.44220000  0.89050000  0.47910000  1
  H  H7  1  0.87440000  0.05110000  0.58810000  1
  H  H8  1  0.72310000  0.95110000  0.41340000  1
  H  H9  1  0.69420000  0.19170000  0.62830000  1
  H  H10  1  0.03700000  0.71370000  0.08810000  1
  H  H11  1  0.62600000  0.15200000  0.45160000  1
  H  H12  1  0.96230000  0.69030000  0.91340000  1
  H  H13  1  0.93660000  0.93410000  0.12830000  1
  H  H14  1  0.79960000  0.82560000  0.95160000  1
  H  H15  1  0.21340000  0.97300000  0.04820000  1
  C  C16  1  0.19880000  0.05040000  0.01360000  1
  C  C17  1  0.32810000  0.20160000  0.13870000  1
  C  C18  1  0.22610000  0.04800000  0.88610000  1
  C  C19  1  0.43710000  0.81060000  0.63870000  1
  C  C20  1  0.33810000  0.66000000  0.38610000  1
  C  C21  1  0.46320000  0.81480000  0.51360000  1
  C  C22  1  0.86960000  0.85560000  0.49700000  1
  C  C23  1  0.84150000  0.98850000  0.48560000  1
  C  C24  1  0.84240000  0.50040000  0.93180000  1
  C  C25  1  0.14140000  0.62740000  0.99700000  1
  C  C26  1  0.93140000  0.08940000  0.43180000  1
  C  C27  1  0.99710000  0.64410000  0.98560000  1
  C  C28  1  0.66200000  0.22940000  0.54780000  1
  C  C29  1  0.73490000  0.78490000  0.09300000  1
  C  C30  1  0.51800000  0.24720000  0.52200000  1
  C  C31  1  0.80810000  0.35810000  0.59300000  1
  C  C32  1  0.81840000  0.88580000  0.04780000  1
  C  C33  1  0.77480000  0.00400000  0.02200000  1
  O  O34  1  0.63700000  0.99030000  0.97450000  1
  O  O35  1  0.47170000  0.73200000  0.70390000  1
  O  O36  1  0.47190000  0.23220000  0.20390000  1
  O  O37  1  0.89630000  0.12890000  0.05800000  1
  O  O38  1  0.28360000  0.97220000  0.85140000  1
  O  O39  1  0.28790000  0.29870000  0.17140000  1
  O  O40  1  0.37270000  0.88350000  0.67140000  1
  O  O41  1  0.37920000  0.56780000  0.35140000  1
  O  O42  1  0.75700000  0.74940000  0.46800000  1
  O  O43  1  0.18730000  0.62670000  0.32140000  1
  O  O44  1  0.19470000  0.13410000  0.82140000  1
  O  O45  1  0.01100000  0.87330000  0.54870000  1
  O  O46  1  0.85930000  0.41100000  0.98810000  1
  O  O47  1  0.17540000  0.53770000  0.04870000  1
  O  O48  1  0.81670000  0.74390000  0.18780000  1
  O  O49  1  0.42910000  0.16170000  0.55800000  1
  O  O50  1  0.07710000  0.12880000  0.48810000  1
  O  O51  1  0.70740000  0.48400000  0.83560000  1
  O  O52  1  0.94390000  0.37110000  0.68780000  1
  O  O53  1  0.58110000  0.74020000  0.03170000  1
  O  O54  1  0.21860000  0.71100000  0.96800000  1
  O  O55  1  0.85160000  0.12820000  0.33560000  1
  O  O56  1  0.48420000  0.33750000  0.47450000  1
  O  O57  1  0.79150000  0.45060000  0.53170000  1
