# generated using pymatgen
data_FeH5C8O5
_symmetry_space_group_name_H-M   'P 1'
_cell_length_a   6.93510000
_cell_length_b   11.29178262
_cell_length_c   11.29178262
_cell_angle_alpha   79.17757036
_cell_angle_beta   72.11628447
_cell_angle_gamma   72.11628447
_symmetry_Int_Tables_number   1
_chemical_formula_structural   FeH5C8O5
_chemical_formula_sum   'Fe2 H10 C16 O10'
_cell_volume   796.59272086
_cell_formula_units_Z   2
loop_
 _symmetry_equiv_pos_site_id
 _symmetry_equiv_pos_as_xyz
  1  'x, y, z'
loop_
 _atom_site_type_symbol
 _atom_site_label
 _atom_site_symmetry_multiplicity
 _atom_site_fract_x
 _atom_site_fract_y
 _atom_site_fract_z
 _atom_site_occupancy
  C  C0  1  0.13310000  0.23440000  0.99940000  1
  C  C1  1  0.63310000  0.99940000  0.23440000  1
  C  C2  1  0.06460000  0.37110000  0.99970000  1
  C  C3  1  0.56460000  0.99970000  0.37110000  1
  C  C4  1  0.85940000  0.43560000  0.99980000  1
  C  C5  1  0.20520000  0.43560000  0.99980000  1
  C  C6  1  0.35940000  0.99980000  0.43560000  1
  C  C7  1  0.70520000  0.99980000  0.43560000  1
  C  C8  1  0.79480000  0.56440000  0.00020000  1
  C  C9  1  0.14060000  0.56440000  0.00020000  1
  C  C10  1  0.29480000  0.00020000  0.56440000  1
  C  C11  1  0.64060000  0.00020000  0.56440000  1
  C  C12  1  0.93540000  0.62890000  0.00030000  1
  C  C13  1  0.43540000  0.00030000  0.62890000  1
  C  C14  1  0.86690000  0.76560000  0.00060000  1
  C  C15  1  0.36690000  0.00060000  0.76560000  1
  Fe  Fe16  1  0.00000000  0.00000000  0.00000000  1
  Fe  Fe17  1  0.50000000  0.00000000  0.00000000  1
  H  H18  1  0.25000000  0.86862000  0.13138000  1
  H  H19  1  0.75000000  0.13138000  0.86862000  1
  H  H20  1  0.85040000  0.99980000  0.39000000  1
  H  H21  1  0.25980000  0.99980000  0.39000000  1
  H  H22  1  0.35040000  0.39000000  0.99980000  1
  H  H23  1  0.75980000  0.39000000  0.99980000  1
  H  H24  1  0.74020000  0.00020000  0.61000000  1
  H  H25  1  0.14960000  0.00020000  0.61000000  1
  H  H26  1  0.24020000  0.61000000  0.00020000  1
  H  H27  1  0.64960000  0.61000000  0.00020000  1
  O  O28  1  0.25000000  0.93810000  0.06190000  1
  O  O29  1  0.75000000  0.06190000  0.93810000  1
  O  O30  1  0.00410000  0.17530000  0.99930000  1
  O  O31  1  0.32130000  0.17530000  0.99930000  1
  O  O32  1  0.50410000  0.99930000  0.17530000  1
  O  O33  1  0.82130000  0.99930000  0.17530000  1
  O  O34  1  0.67870000  0.82470000  0.00070000  1
  O  O35  1  0.99590000  0.82470000  0.00070000  1
  O  O36  1  0.17870000  0.00070000  0.82470000  1
  O  O37  1  0.49590000  0.00070000  0.82470000  1
