# generated using pymatgen
data_Cu5H16C28N12ClO10
_symmetry_space_group_name_H-M   'P 1'
_cell_length_a   19.44279066
_cell_length_b   19.44279066
_cell_length_c   19.44279066
_cell_angle_alpha   76.09107262
_cell_angle_beta   76.09107262
_cell_angle_gamma   76.09107262
_symmetry_Int_Tables_number   1
_chemical_formula_structural   Cu5H16C28N12ClO10
_chemical_formula_sum   'Cu30 H96 C168 N72 Cl6 O60'
_cell_volume   6793.83079962
_cell_formula_units_Z   6
loop_
 _symmetry_equiv_pos_site_id
 _symmetry_equiv_pos_as_xyz
  1  'x, y, z'
loop_
 _atom_site_type_symbol
 _atom_site_label
 _atom_site_symmetry_multiplicity
 _atom_site_fract_x
 _atom_site_fract_y
 _atom_site_fract_z
 _atom_site_occupancy
  C  C0  1  0.86319000  0.03489000  0.68579000  1
  C  C1  1  0.36319000  0.18579000  0.53489000  1
  C  C2  1  0.48233000  0.74303000  0.19453000  1
  C  C3  1  0.98233000  0.69453000  0.24303000  1
  C  C4  1  0.13290000  0.25850000  0.96710000  1
  C  C5  1  0.63290000  0.46710000  0.75850000  1
  C  C6  1  0.49260000  0.64160000  0.29730000  1
  C  C7  1  0.99260000  0.79730000  0.14160000  1
  C  C8  1  0.00960000  0.16270000  0.80920000  1
  C  C9  1  0.50960000  0.30920000  0.66270000  1
  C  C10  1  0.68635000  0.86055000  0.44855000  1
  C  C11  1  0.18635000  0.94855000  0.36055000  1
  C  C12  1  0.02163000  0.26273000  0.70713000  1
  C  C13  1  0.52163000  0.20713000  0.76273000  1
  C  C14  1  0.48748000  0.66888000  0.22408000  1
  C  C15  1  0.98748000  0.72408000  0.16888000  1
  C  C16  1  0.01732000  0.19152000  0.73432000  1
  C  C17  1  0.51732000  0.23432000  0.69152000  1
  C  C18  1  0.65967000  0.73967000  0.46867000  1
  C  C19  1  0.15967000  0.96867000  0.23967000  1
  C  C20  1  0.70713000  0.02163000  0.26273000  1
  C  C21  1  0.20713000  0.76273000  0.52163000  1
  C  C22  1  0.19453000  0.48233000  0.74303000  1
  C  C23  1  0.69453000  0.24303000  0.98233000  1
  C  C24  1  0.75697000  0.01767000  0.30547000  1
  C  C25  1  0.25697000  0.80547000  0.51767000  1
  C  C26  1  0.23727000  0.47837000  0.79287000  1
  C  C27  1  0.73727000  0.29287000  0.97837000  1
  C  C28  1  0.68420000  0.02400000  0.13980000  1
  C  C29  1  0.18420000  0.63980000  0.52400000  1
  C  C30  1  0.02400000  0.13980000  0.68420000  1
  C  C31  1  0.52400000  0.18420000  0.63980000  1
  C  C32  1  0.21360000  0.23210000  0.95720000  1
  C  C33  1  0.71360000  0.45720000  0.73210000  1
  C  C34  1  0.76070000  0.83420000  0.43310000  1
  C  C35  1  0.26070000  0.93310000  0.33420000  1
  C  C36  1  0.73432000  0.01732000  0.19152000  1
  C  C37  1  0.23432000  0.69152000  0.51732000  1
  C  C38  1  0.43310000  0.76070000  0.83420000  1
  C  C39  1  0.93310000  0.33420000  0.26070000  1
  C  C40  1  0.22408000  0.48748000  0.66888000  1
  C  C41  1  0.72408000  0.16888000  0.98748000  1
  C  C42  1  0.73210000  0.71360000  0.45720000  1
  C  C43  1  0.23210000  0.95720000  0.21360000  1
  C  C44  1  0.26100000  0.28250000  0.93740000  1
  C  C45  1  0.76100000  0.43740000  0.78250000  1
  C  C46  1  0.93740000  0.26100000  0.28250000  1
  C  C47  1  0.43740000  0.78250000  0.76100000  1
  C  C48  1  0.44855000  0.68635000  0.86055000  1
  C  C49  1  0.94855000  0.36055000  0.18635000  1
  C  C50  1  0.23967000  0.15967000  0.96867000  1
  C  C51  1  0.73967000  0.46867000  0.65967000  1
  C  C52  1  0.78250000  0.76100000  0.43740000  1
  C  C53  1  0.28250000  0.93740000  0.26100000  1
  C  C54  1  0.30848000  0.48268000  0.76568000  1
  C  C55  1  0.80848000  0.26568000  0.98268000  1
  C  C56  1  0.83112000  0.01252000  0.27592000  1
  C  C57  1  0.33112000  0.77592000  0.51252000  1
  C  C58  1  0.63945000  0.81365000  0.05145000  1
  C  C59  1  0.13945000  0.55145000  0.31365000  1
  C  C60  1  0.75850000  0.63290000  0.46710000  1
  C  C61  1  0.25850000  0.96710000  0.13290000  1
  C  C62  1  0.36020000  0.47600000  0.81580000  1
  C  C63  1  0.86020000  0.31580000  0.97600000  1
  C  C64  1  0.80920000  0.00960000  0.16270000  1
  C  C65  1  0.30920000  0.66270000  0.50960000  1
  C  C66  1  0.53290000  0.24150000  0.36710000  1
  C  C67  1  0.03290000  0.86710000  0.74150000  1
  C  C68  1  0.29730000  0.49260000  0.64160000  1
  C  C69  1  0.79730000  0.14160000  0.99260000  1
  C  C70  1  0.03133000  0.76033000  0.84033000  1
  C  C71  1  0.53133000  0.34033000  0.26033000  1
  C  C72  1  0.95720000  0.21360000  0.23210000  1
  C  C73  1  0.45720000  0.73210000  0.71360000  1
  C  C74  1  0.68579000  0.86319000  0.03489000  1
  C  C75  1  0.18579000  0.53489000  0.36319000  1
  C  C76  1  0.33420000  0.26070000  0.93310000  1
  C  C77  1  0.83420000  0.43310000  0.76070000  1
  C  C78  1  0.46511000  0.63681000  0.81421000  1
  C  C79  1  0.96511000  0.31421000  0.13681000  1
  C  C80  1  0.14160000  0.99260000  0.79730000  1
  C  C81  1  0.64160000  0.29730000  0.49260000  1
  C  C82  1  0.33730000  0.49040000  0.69080000  1
  C  C83  1  0.83730000  0.19080000  0.99040000  1
  C  C84  1  0.66270000  0.50960000  0.30920000  1
  C  C85  1  0.16270000  0.80920000  0.00960000  1
  C  C86  1  0.85840000  0.00740000  0.20270000  1
  C  C87  1  0.35840000  0.70270000  0.50740000  1
  C  C88  1  0.53489000  0.36319000  0.18579000  1
  C  C89  1  0.03489000  0.68579000  0.86319000  1
  C  C90  1  0.66580000  0.73930000  0.06690000  1
  C  C91  1  0.16580000  0.56690000  0.23930000  1
  C  C92  1  0.81421000  0.46511000  0.63681000  1
  C  C93  1  0.31421000  0.13681000  0.96511000  1
  C  C94  1  0.54280000  0.26790000  0.28640000  1
  C  C95  1  0.04280000  0.78640000  0.76790000  1
  C  C96  1  0.46867000  0.65967000  0.73967000  1
  C  C97  1  0.96867000  0.23967000  0.15967000  1
  C  C98  1  0.20270000  0.85840000  0.00740000  1
  C  C99  1  0.70270000  0.50740000  0.35840000  1
  C  C100  1  0.96710000  0.13290000  0.25850000  1
  C  C101  1  0.46710000  0.75850000  0.63290000  1
  C  C102  1  0.69080000  0.33730000  0.49040000  1
  C  C103  1  0.19080000  0.99040000  0.83730000  1
  C  C104  1  0.63980000  0.52400000  0.18420000  1
  C  C105  1  0.13980000  0.68420000  0.02400000  1
  C  C106  1  0.24150000  0.36710000  0.53290000  1
  C  C107  1  0.74150000  0.03290000  0.86710000  1
  C  C108  1  0.36055000  0.18635000  0.94855000  1
  C  C109  1  0.86055000  0.44855000  0.68635000  1
  C  C110  1  0.16888000  0.98748000  0.72408000  1
  C  C111  1  0.66888000  0.22408000  0.48748000  1
  C  C112  1  0.69152000  0.51732000  0.23432000  1
  C  C113  1  0.19152000  0.73432000  0.01732000  1
  C  C114  1  0.21750000  0.23900000  0.56260000  1
  C  C115  1  0.71750000  0.06260000  0.73900000  1
  C  C116  1  0.76033000  0.84033000  0.03133000  1
  C  C117  1  0.26033000  0.53133000  0.34033000  1
  C  C118  1  0.05145000  0.63945000  0.81365000  1
  C  C119  1  0.55145000  0.31365000  0.13945000  1
  C  C120  1  0.56260000  0.21750000  0.23900000  1
  C  C121  1  0.06260000  0.73900000  0.71750000  1
  C  C122  1  0.73900000  0.71750000  0.06260000  1
  C  C123  1  0.23900000  0.56260000  0.21750000  1
  C  C124  1  0.26790000  0.28640000  0.54280000  1
  C  C125  1  0.76790000  0.04280000  0.78640000  1
  C  C126  1  0.27592000  0.83112000  0.01252000  1
  C  C127  1  0.77592000  0.51252000  0.33112000  1
  C  C128  1  0.06690000  0.66580000  0.73930000  1
  C  C129  1  0.56690000  0.23930000  0.16580000  1
  C  C130  1  0.76568000  0.30848000  0.48268000  1
  C  C131  1  0.26568000  0.98268000  0.80848000  1
  C  C132  1  0.23930000  0.16580000  0.56690000  1
  C  C133  1  0.73930000  0.06690000  0.66580000  1
  C  C134  1  0.78640000  0.76790000  0.04280000  1
  C  C135  1  0.28640000  0.54280000  0.26790000  1
  C  C136  1  0.97600000  0.86020000  0.31580000  1
  C  C137  1  0.47600000  0.81580000  0.36020000  1
  C  C138  1  0.81580000  0.36020000  0.47600000  1
  C  C139  1  0.31580000  0.97600000  0.86020000  1
  C  C140  1  0.76273000  0.52163000  0.20713000  1
  C  C141  1  0.26273000  0.70713000  0.02163000  1
  C  C142  1  0.24303000  0.98233000  0.69453000  1
  C  C143  1  0.74303000  0.19453000  0.48233000  1
  C  C144  1  0.30547000  0.75697000  0.01767000  1
  C  C145  1  0.80547000  0.51767000  0.25697000  1
  C  C146  1  0.79287000  0.23727000  0.47837000  1
  C  C147  1  0.29287000  0.97837000  0.73727000  1
  C  C148  1  0.34033000  0.26033000  0.53133000  1
  C  C149  1  0.84033000  0.03133000  0.76033000  1
  C  C150  1  0.98268000  0.80848000  0.26568000  1
  C  C151  1  0.48268000  0.76568000  0.30848000  1
  C  C152  1  0.51252000  0.33112000  0.77592000  1
  C  C153  1  0.01252000  0.27592000  0.83112000  1
  C  C154  1  0.97837000  0.73727000  0.29287000  1
  C  C155  1  0.47837000  0.79287000  0.23727000  1
  C  C156  1  0.31365000  0.13945000  0.55145000  1
  C  C157  1  0.81365000  0.05145000  0.63945000  1
  C  C158  1  0.99040000  0.83730000  0.19080000  1
  C  C159  1  0.49040000  0.69080000  0.33730000  1
  C  C160  1  0.50740000  0.35840000  0.70270000  1
  C  C161  1  0.00740000  0.20270000  0.85840000  1
  C  C162  1  0.86710000  0.74150000  0.03290000  1
  C  C163  1  0.36710000  0.53290000  0.24150000  1
  C  C164  1  0.51767000  0.25697000  0.80547000  1
  C  C165  1  0.01767000  0.30547000  0.75697000  1
  C  C166  1  0.13681000  0.96511000  0.31421000  1
  C  C167  1  0.63681000  0.81421000  0.46511000  1
  Cl  Cl168  1  0.75000000  0.95010000  0.54990000  1
  Cl  Cl169  1  0.54990000  0.75000000  0.95010000  1
  Cl  Cl170  1  0.04990000  0.45010000  0.25000000  1
  Cl  Cl171  1  0.95010000  0.54990000  0.75000000  1
  Cl  Cl172  1  0.45010000  0.25000000  0.04990000  1
  Cl  Cl173  1  0.25000000  0.04990000  0.45010000  1
  Cu  Cu174  1  0.00000000  0.50000000  0.50000000  1
  Cu  Cu175  1  0.50000000  0.00000000  1.00000000  1
  Cu  Cu176  1  0.47959000  0.83148000  0.03697000  1
  Cu  Cu177  1  0.97959000  0.53697000  0.33148000  1
  Cu  Cu178  1  0.83148000  0.03697000  0.47959000  1
  Cu  Cu179  1  0.33148000  0.97959000  0.53697000  1
  Cu  Cu180  1  0.46303000  0.66852000  0.02041000  1
  Cu  Cu181  1  0.96303000  0.52041000  0.16852000  1
  Cu  Cu182  1  0.49867000  0.53057000  0.16781000  1
  Cu  Cu183  1  0.99867000  0.66781000  0.03057000  1
  Cu  Cu184  1  0.16781000  0.49867000  0.53057000  1
  Cu  Cu185  1  0.66781000  0.03057000  0.99867000  1
  Cu  Cu186  1  0.03057000  0.99867000  0.66781000  1
  Cu  Cu187  1  0.53057000  0.16781000  0.49867000  1
  Cu  Cu188  1  0.50000000  0.50000000  0.00000000  1
  Cu  Cu189  1  0.00000000  0.00000000  0.50000000  1
  Cu  Cu190  1  0.50000000  1.00000000  0.50000000  1
  Cu  Cu191  1  0.00000000  0.50000000  1.00000000  1
  Cu  Cu192  1  0.96943000  0.00133000  0.33219000  1
  Cu  Cu193  1  0.46943000  0.83219000  0.50133000  1
  Cu  Cu194  1  0.33219000  0.96943000  0.00133000  1
  Cu  Cu195  1  0.83219000  0.50133000  0.46943000  1
  Cu  Cu196  1  0.50133000  0.46943000  0.83219000  1
  Cu  Cu197  1  0.00133000  0.33219000  0.96943000  1
  Cu  Cu198  1  0.53697000  0.33148000  0.97959000  1
  Cu  Cu199  1  0.03697000  0.47959000  0.83148000  1
  Cu  Cu200  1  0.16852000  0.96303000  0.52041000  1
  Cu  Cu201  1  0.66852000  0.02041000  0.46303000  1
  Cu  Cu202  1  0.02041000  0.46303000  0.66852000  1
  Cu  Cu203  1  0.52041000  0.16852000  0.96303000  1
  H  H204  1  0.65780000  0.02710000  0.28160000  1
  H  H205  1  0.15780000  0.78160000  0.52710000  1
  H  H206  1  0.89840000  0.30250000  0.44060000  1
  H  H207  1  0.39840000  0.94060000  0.80250000  1
  H  H208  1  0.62670000  0.70930000  0.47840000  1
  H  H209  1  0.12670000  0.97840000  0.20930000  1
  H  H210  1  0.46780000  0.92670000  0.93890000  1
  H  H211  1  0.96780000  0.43890000  0.42670000  1
  H  H212  1  0.00600000  0.11440000  0.82540000  1
  H  H213  1  0.50600000  0.32540000  0.61440000  1
  H  H214  1  0.49730000  0.59250000  0.31710000  1
  H  H215  1  0.99730000  0.81710000  0.09250000  1
  H  H216  1  0.02710000  0.28160000  0.65780000  1
  H  H217  1  0.52710000  0.15780000  0.78160000  1
  H  H218  1  0.21840000  0.47290000  0.84220000  1
  H  H219  1  0.71840000  0.34220000  0.97290000  1
  H  H220  1  0.42070000  0.79390000  0.86470000  1
  H  H221  1  0.92070000  0.36470000  0.29390000  1
  H  H222  1  0.24170000  0.33160000  0.92710000  1
  H  H223  1  0.74170000  0.42710000  0.83160000  1
  H  H224  1  0.30250000  0.44060000  0.89840000  1
  H  H225  1  0.80250000  0.39840000  0.94060000  1
  H  H226  1  0.92710000  0.24170000  0.33160000  1
  H  H227  1  0.42710000  0.83160000  0.74170000  1
  H  H228  1  0.79390000  0.86470000  0.42070000  1
  H  H229  1  0.29390000  0.92070000  0.36470000  1
  H  H230  1  0.20930000  0.12670000  0.97840000  1
  H  H231  1  0.70930000  0.47840000  0.62670000  1
  H  H232  1  0.05940000  0.19750000  0.60160000  1
  H  H233  1  0.55940000  0.10160000  0.69750000  1
  H  H234  1  0.09250000  0.99730000  0.81710000  1
  H  H235  1  0.59250000  0.31710000  0.49730000  1
  H  H236  1  0.02160000  0.79070000  0.87330000  1
  H  H237  1  0.52160000  0.37330000  0.29070000  1
  H  H238  1  0.61440000  0.50600000  0.32540000  1
  H  H239  1  0.11440000  0.82540000  0.00600000  1
  H  H240  1  0.92670000  0.93890000  0.46780000  1
  H  H241  1  0.42670000  0.96780000  0.43890000  1
  H  H242  1  0.18290000  0.90750000  0.00270000  1
  H  H243  1  0.68290000  0.50270000  0.40750000  1
  H  H244  1  0.67460000  0.38560000  0.49400000  1
  H  H245  1  0.17460000  0.99400000  0.88560000  1
  H  H246  1  0.43890000  0.42670000  0.96780000  1
  H  H247  1  0.93890000  0.46780000  0.92670000  1
  H  H248  1  0.63530000  0.70610000  0.07930000  1
  H  H249  1  0.13530000  0.57930000  0.20610000  1
  H  H250  1  0.83160000  0.74170000  0.42710000  1
  H  H251  1  0.33160000  0.92710000  0.24170000  1
  H  H252  1  0.16840000  0.25830000  0.57290000  1
  H  H253  1  0.66840000  0.07290000  0.75830000  1
  H  H254  1  0.36470000  0.29390000  0.92070000  1
  H  H255  1  0.86470000  0.42070000  0.79390000  1
  H  H256  1  0.56110000  0.57330000  0.03220000  1
  H  H257  1  0.06110000  0.53220000  0.07330000  1
  H  H258  1  0.82540000  0.00600000  0.11440000  1
  H  H259  1  0.32540000  0.61440000  0.50600000  1
  H  H260  1  0.31710000  0.49730000  0.59250000  1
  H  H261  1  0.81710000  0.09250000  0.99730000  1
  H  H262  1  0.07330000  0.06110000  0.53220000  1
  H  H263  1  0.57330000  0.03220000  0.56110000  1
  H  H264  1  0.38560000  0.49400000  0.67460000  1
  H  H265  1  0.88560000  0.17460000  0.99400000  1
  H  H266  1  0.47840000  0.62670000  0.70930000  1
  H  H267  1  0.97840000  0.20930000  0.12670000  1
  H  H268  1  0.90750000  0.00270000  0.18290000  1
  H  H269  1  0.40750000  0.68290000  0.50270000  1
  H  H270  1  0.94060000  0.80250000  0.39840000  1
  H  H271  1  0.44060000  0.89840000  0.30250000  1
  H  H272  1  0.79070000  0.87330000  0.02160000  1
  H  H273  1  0.29070000  0.52160000  0.37330000  1
  H  H274  1  0.20610000  0.13530000  0.57930000  1
  H  H275  1  0.70610000  0.07930000  0.63530000  1
  H  H276  1  0.57290000  0.16840000  0.25830000  1
  H  H277  1  0.07290000  0.75830000  0.66840000  1
  H  H278  1  0.69750000  0.55940000  0.10160000  1
  H  H279  1  0.19750000  0.60160000  0.05940000  1
  H  H280  1  0.75830000  0.66840000  0.07290000  1
  H  H281  1  0.25830000  0.57290000  0.16840000  1
  H  H282  1  0.07930000  0.63530000  0.70610000  1
  H  H283  1  0.57930000  0.20610000  0.13530000  1
  H  H284  1  0.78160000  0.52710000  0.15780000  1
  H  H285  1  0.28160000  0.65780000  0.02710000  1
  H  H286  1  0.97290000  0.71840000  0.34220000  1
  H  H287  1  0.47290000  0.84220000  0.21840000  1
  H  H288  1  0.50270000  0.40750000  0.68290000  1
  H  H289  1  0.00270000  0.18290000  0.90750000  1
  H  H290  1  0.99400000  0.88560000  0.17460000  1
  H  H291  1  0.49400000  0.67460000  0.38560000  1
  H  H292  1  0.03220000  0.56110000  0.57330000  1
  H  H293  1  0.53220000  0.07330000  0.06110000  1
  H  H294  1  0.37330000  0.29070000  0.52160000  1
  H  H295  1  0.87330000  0.02160000  0.79070000  1
  H  H296  1  0.60160000  0.05940000  0.19750000  1
  H  H297  1  0.10160000  0.69750000  0.55940000  1
  H  H298  1  0.84220000  0.21840000  0.47290000  1
  H  H299  1  0.34220000  0.97290000  0.71840000  1
  N  N300  1  0.12408000  0.47798000  0.75108000  1
  N  N301  1  0.62408000  0.25108000  0.97798000  1
  N  N302  1  0.11255000  0.47955000  0.68595000  1
  N  N303  1  0.61255000  0.18595000  0.97955000  1
  N  N304  1  0.47798000  0.75108000  0.12408000  1
  N  N305  1  0.97798000  0.62408000  0.25108000  1
  N  N306  1  0.85389000  0.04649000  0.57159000  1
  N  N307  1  0.35389000  0.07159000  0.54649000  1
  N  N308  1  0.74892000  0.02202000  0.37592000  1
  N  N309  1  0.24892000  0.87592000  0.52202000  1
  N  N310  1  0.47955000  0.68595000  0.11255000  1
  N  N311  1  0.97955000  0.61255000  0.18595000  1
  N  N312  1  0.48596000  0.63526000  0.17126000  1
  N  N313  1  0.98596000  0.67126000  0.13526000  1
  N  N314  1  0.93108000  0.02068000  0.64528000  1
  N  N315  1  0.43108000  0.14528000  0.52068000  1
  N  N316  1  0.57860000  0.92270000  0.02770000  1
  N  N317  1  0.07860000  0.52770000  0.42270000  1
  N  N318  1  0.81405000  0.02045000  0.38745000  1
  N  N319  1  0.31405000  0.88745000  0.52045000  1
  N  N320  1  0.17126000  0.48596000  0.63526000  1
  N  N321  1  0.67126000  0.13526000  0.98596000  1
  N  N322  1  0.92270000  0.02770000  0.57860000  1
  N  N323  1  0.42270000  0.07860000  0.52770000  1
  N  N324  1  0.57159000  0.85389000  0.04649000  1
  N  N325  1  0.07159000  0.54649000  0.35389000  1
  N  N326  1  0.45351000  0.64611000  0.92841000  1
  N  N327  1  0.95351000  0.42841000  0.14611000  1
  N  N328  1  0.64528000  0.93108000  0.02068000  1
  N  N329  1  0.14528000  0.52068000  0.43108000  1
  N  N330  1  0.86474000  0.01404000  0.32874000  1
  N  N331  1  0.36474000  0.82874000  0.51404000  1
  N  N332  1  0.47230000  0.57730000  0.92140000  1
  N  N333  1  0.97230000  0.42140000  0.07730000  1
  N  N334  1  0.52068000  0.43108000  0.14528000  1
  N  N335  1  0.02068000  0.64528000  0.93108000  1
  N  N336  1  0.47932000  0.56892000  0.85472000  1
  N  N337  1  0.97932000  0.35472000  0.06892000  1
  N  N338  1  0.52770000  0.42270000  0.07860000  1
  N  N339  1  0.02770000  0.57860000  0.92270000  1
  N  N340  1  0.13526000  0.98596000  0.67126000  1
  N  N341  1  0.63526000  0.17126000  0.48596000  1
  N  N342  1  0.85472000  0.47932000  0.56892000  1
  N  N343  1  0.35472000  0.06892000  0.97932000  1
  N  N344  1  0.54649000  0.35389000  0.07159000  1
  N  N345  1  0.04649000  0.57159000  0.85389000  1
  N  N346  1  0.92841000  0.45351000  0.64611000  1
  N  N347  1  0.42841000  0.14611000  0.95351000  1
  N  N348  1  0.07730000  0.97230000  0.42140000  1
  N  N349  1  0.57730000  0.92140000  0.47230000  1
  N  N350  1  0.32874000  0.86474000  0.01404000  1
  N  N351  1  0.82874000  0.51404000  0.36474000  1
  N  N352  1  0.18595000  0.97955000  0.61255000  1
  N  N353  1  0.68595000  0.11255000  0.47955000  1
  N  N354  1  0.92140000  0.47230000  0.57730000  1
  N  N355  1  0.42140000  0.07730000  0.97230000  1
  N  N356  1  0.06892000  0.97932000  0.35472000  1
  N  N357  1  0.56892000  0.85472000  0.47932000  1
  N  N358  1  0.51404000  0.36474000  0.82874000  1
  N  N359  1  0.01404000  0.32874000  0.86474000  1
  N  N360  1  0.52045000  0.31405000  0.88745000  1
  N  N361  1  0.02045000  0.38745000  0.81405000  1
  N  N362  1  0.25108000  0.97798000  0.62408000  1
  N  N363  1  0.75108000  0.12408000  0.47798000  1
  N  N364  1  0.14611000  0.95351000  0.42841000  1
  N  N365  1  0.64611000  0.92841000  0.45351000  1
  N  N366  1  0.52202000  0.24892000  0.87592000  1
  N  N367  1  0.02202000  0.37592000  0.74892000  1
  N  N368  1  0.38745000  0.81405000  0.02045000  1
  N  N369  1  0.88745000  0.52045000  0.31405000  1
  N  N370  1  0.37592000  0.74892000  0.02202000  1
  N  N371  1  0.87592000  0.52202000  0.24892000  1
  O  O372  1  0.04617000  0.51667000  0.57127000  1
  O  O373  1  0.54617000  0.07127000  0.01667000  1
  O  O374  1  0.40774000  0.51314000  0.28554000  1
  O  O375  1  0.90774000  0.78554000  0.01314000  1
  O  O376  1  0.61875000  0.04715000  0.15675000  1
  O  O377  1  0.11875000  0.65675000  0.54715000  1
  O  O378  1  0.39088000  0.54468000  0.17348000  1
  O  O379  1  0.89088000  0.67348000  0.04468000  1
  O  O380  1  0.00678000  0.08018000  0.71538000  1
  O  O381  1  0.50678000  0.21538000  0.58018000  1
  O  O382  1  0.04715000  0.15675000  0.61875000  1
  O  O383  1  0.54715000  0.11875000  0.65675000  1
  O  O384  1  0.01314000  0.90774000  0.78554000  1
  O  O385  1  0.51314000  0.28554000  0.40774000  1
  O  O386  1  0.71538000  0.00678000  0.08018000  1
  O  O387  1  0.21538000  0.58018000  0.50678000  1
  O  O388  1  0.21446000  0.98686000  0.09226000  1
  O  O389  1  0.71446000  0.59226000  0.48686000  1
  O  O390  1  0.34325000  0.45285000  0.88125000  1
  O  O391  1  0.84325000  0.38125000  0.95285000  1
  O  O392  1  0.17348000  0.39088000  0.54468000  1
  O  O393  1  0.67348000  0.04468000  0.89088000  1
  O  O394  1  0.51667000  0.57127000  0.04617000  1
  O  O395  1  0.01667000  0.54617000  0.07127000  1
  O  O396  1  0.92873000  0.98333000  0.45383000  1
  O  O397  1  0.42873000  0.95383000  0.48333000  1
  O  O398  1  0.58018000  0.50678000  0.21538000  1
  O  O399  1  0.08018000  0.71538000  0.00678000  1
  O  O400  1  0.95532000  0.10912000  0.32652000  1
  O  O401  1  0.45532000  0.82652000  0.60912000  1
  O  O402  1  0.04468000  0.89088000  0.67348000  1
  O  O403  1  0.54468000  0.17348000  0.39088000  1
  O  O404  1  0.41982000  0.49322000  0.78462000  1
  O  O405  1  0.91982000  0.28462000  0.99322000  1
  O  O406  1  0.07127000  0.01667000  0.54617000  1
  O  O407  1  0.57127000  0.04617000  0.51667000  1
  O  O408  1  0.48333000  0.42873000  0.95383000  1
  O  O409  1  0.98333000  0.45383000  0.92873000  1
  O  O410  1  0.32652000  0.95532000  0.10912000  1
  O  O411  1  0.82652000  0.60912000  0.45532000  1
  O  O412  1  0.65675000  0.54715000  0.11875000  1
  O  O413  1  0.15675000  0.61875000  0.04715000  1
  O  O414  1  0.28554000  0.40774000  0.51314000  1
  O  O415  1  0.78554000  0.01314000  0.90774000  1
  O  O416  1  0.78462000  0.41982000  0.49322000  1
  O  O417  1  0.28462000  0.99322000  0.91982000  1
  O  O418  1  0.98686000  0.09226000  0.21446000  1
  O  O419  1  0.48686000  0.71446000  0.59226000  1
  O  O420  1  0.95285000  0.84325000  0.38125000  1
  O  O421  1  0.45285000  0.88125000  0.34325000  1
  O  O422  1  0.99322000  0.91982000  0.28462000  1
  O  O423  1  0.49322000  0.78462000  0.41982000  1
  O  O424  1  0.60912000  0.45532000  0.82652000  1
  O  O425  1  0.10912000  0.32652000  0.95532000  1
  O  O426  1  0.88125000  0.34325000  0.45285000  1
  O  O427  1  0.38125000  0.95285000  0.84325000  1
  O  O428  1  0.59226000  0.48686000  0.71446000  1
  O  O429  1  0.09226000  0.21446000  0.98686000  1
  O  O430  1  0.45383000  0.92873000  0.98333000  1
  O  O431  1  0.95383000  0.48333000  0.42873000  1
