# generated using pymatgen
data_Al2C11(NO2)4
_symmetry_space_group_name_H-M   'P 1'
_cell_length_a   16.75585378
_cell_length_b   16.75585378
_cell_length_c   16.75585378
_cell_angle_alpha   77.32444340
_cell_angle_beta   77.32444340
_cell_angle_gamma   77.32444340
_symmetry_Int_Tables_number   1
_chemical_formula_structural   Al2C11(NO2)4
_chemical_formula_sum   'Al12 C66 N24 O48'
_cell_volume   4404.74539145
_cell_formula_units_Z   6
loop_
 _symmetry_equiv_pos_site_id
 _symmetry_equiv_pos_as_xyz
  1  'x, y, z'
loop_
 _atom_site_type_symbol
 _atom_site_label
 _atom_site_symmetry_multiplicity
 _atom_site_fract_x
 _atom_site_fract_y
 _atom_site_fract_z
 _atom_site_occupancy
  Al  Al0  1  0.20845000  0.55846000  0.68863000  1
  Al  Al1  1  0.20845000  0.68863000  0.55846000  1
  Al  Al2  1  0.55846000  0.68863000  0.20845000  1
  Al  Al3  1  0.55846000  0.20845000  0.68863000  1
  Al  Al4  1  0.31137000  0.44154000  0.79155000  1
  Al  Al5  1  0.31137000  0.79155000  0.44154000  1
  Al  Al6  1  0.68863000  0.55846000  0.20845000  1
  Al  Al7  1  0.68863000  0.20845000  0.55846000  1
  Al  Al8  1  0.44154000  0.31137000  0.79155000  1
  Al  Al9  1  0.44154000  0.79155000  0.31137000  1
  Al  Al10  1  0.79155000  0.31137000  0.44154000  1
  Al  Al11  1  0.79155000  0.44154000  0.31137000  1
  C  C12  1  0.50000000  0.93750000  0.06250000  1
  C  C13  1  0.50000000  0.13560000  0.86440000  1
  C  C14  1  0.03610000  0.53395000  0.53395000  1
  C  C15  1  0.02787000  0.45397000  0.57557000  1
  C  C16  1  0.02787000  0.57557000  0.45397000  1
  C  C17  1  0.09740000  0.57110000  0.57110000  1
  C  C18  1  0.86440000  0.13560000  0.50000000  1
  C  C19  1  0.86440000  0.50000000  0.13560000  1
  C  C20  1  0.86370000  0.28410000  0.28410000  1
  C  C21  1  0.28180000  0.62240000  0.78090000  1
  C  C22  1  0.28180000  0.78090000  0.62240000  1
  C  C23  1  0.54280000  0.92630000  0.98770000  1
  C  C24  1  0.54280000  0.98770000  0.92630000  1
  C  C25  1  0.62240000  0.78090000  0.28180000  1
  C  C26  1  0.62240000  0.28180000  0.78090000  1
  C  C27  1  0.45397000  0.57557000  0.02787000  1
  C  C28  1  0.45397000  0.02787000  0.57557000  1
  C  C29  1  0.93750000  0.06250000  0.50000000  1
  C  C30  1  0.93750000  0.50000000  0.06250000  1
  C  C31  1  0.92630000  0.98770000  0.54280000  1
  C  C32  1  0.92630000  0.54280000  0.98770000  1
  C  C33  1  0.42443000  0.54603000  0.97213000  1
  C  C34  1  0.42443000  0.97213000  0.54603000  1
  C  C35  1  0.21910000  0.37760000  0.71820000  1
  C  C36  1  0.21910000  0.71820000  0.37760000  1
  C  C37  1  0.28410000  0.28410000  0.86370000  1
  C  C38  1  0.28410000  0.86370000  0.28410000  1
  C  C39  1  0.57110000  0.57110000  0.09740000  1
  C  C40  1  0.57110000  0.09740000  0.57110000  1
  C  C41  1  0.01230000  0.07370000  0.45720000  1
  C  C42  1  0.01230000  0.45720000  0.07370000  1
  C  C43  1  0.53395000  0.53395000  0.03610000  1
  C  C44  1  0.53395000  0.03610000  0.53395000  1
  C  C45  1  0.46605000  0.46605000  0.96390000  1
  C  C46  1  0.46605000  0.96390000  0.46605000  1
  C  C47  1  0.98770000  0.92630000  0.54280000  1
  C  C48  1  0.98770000  0.54280000  0.92630000  1
  C  C49  1  0.42890000  0.42890000  0.90260000  1
  C  C50  1  0.42890000  0.90260000  0.42890000  1
  C  C51  1  0.71590000  0.71590000  0.13630000  1
  C  C52  1  0.71590000  0.13630000  0.71590000  1
  C  C53  1  0.78090000  0.62240000  0.28180000  1
  C  C54  1  0.78090000  0.28180000  0.62240000  1
  C  C55  1  0.57557000  0.45397000  0.02787000  1
  C  C56  1  0.57557000  0.02787000  0.45397000  1
  C  C57  1  0.07370000  0.01230000  0.45720000  1
  C  C58  1  0.07370000  0.45720000  0.01230000  1
  C  C59  1  0.06250000  0.93750000  0.50000000  1
  C  C60  1  0.06250000  0.50000000  0.93750000  1
  C  C61  1  0.54603000  0.42443000  0.97213000  1
  C  C62  1  0.54603000  0.97213000  0.42443000  1
  C  C63  1  0.37760000  0.21910000  0.71820000  1
  C  C64  1  0.37760000  0.71820000  0.21910000  1
  C  C65  1  0.45720000  0.01230000  0.07370000  1
  C  C66  1  0.45720000  0.07370000  0.01230000  1
  C  C67  1  0.71820000  0.21910000  0.37760000  1
  C  C68  1  0.71820000  0.37760000  0.21910000  1
  C  C69  1  0.13630000  0.71590000  0.71590000  1
  C  C70  1  0.13560000  0.86440000  0.50000000  1
  C  C71  1  0.13560000  0.50000000  0.86440000  1
  C  C72  1  0.90260000  0.42890000  0.42890000  1
  C  C73  1  0.97213000  0.42443000  0.54603000  1
  C  C74  1  0.97213000  0.54603000  0.42443000  1
  C  C75  1  0.96390000  0.46605000  0.46605000  1
  C  C76  1  0.50000000  0.86440000  0.13560000  1
  C  C77  1  0.50000000  0.06250000  0.93750000  1
  N  N78  1  0.04790000  0.41930000  0.66431000  1
  N  N79  1  0.04790000  0.66431000  0.41930000  1
  N  N80  1  0.84260000  0.97520000  0.59580000  1
  N  N81  1  0.84260000  0.59580000  0.97520000  1
  N  N82  1  0.41930000  0.66431000  0.04790000  1
  N  N83  1  0.41930000  0.04790000  0.66431000  1
  N  N84  1  0.33569000  0.58070000  0.95210000  1
  N  N85  1  0.33569000  0.95210000  0.58070000  1
  N  N86  1  0.59580000  0.84260000  0.97520000  1
  N  N87  1  0.59580000  0.97520000  0.84260000  1
  N  N88  1  0.02480000  0.15740000  0.40420000  1
  N  N89  1  0.02480000  0.40420000  0.15740000  1
  N  N90  1  0.97520000  0.84260000  0.59580000  1
  N  N91  1  0.97520000  0.59580000  0.84260000  1
  N  N92  1  0.40420000  0.02480000  0.15740000  1
  N  N93  1  0.40420000  0.15740000  0.02480000  1
  N  N94  1  0.66431000  0.41930000  0.04790000  1
  N  N95  1  0.66431000  0.04790000  0.41930000  1
  N  N96  1  0.58070000  0.33569000  0.95210000  1
  N  N97  1  0.58070000  0.95210000  0.33569000  1
  N  N98  1  0.15740000  0.02480000  0.40420000  1
  N  N99  1  0.15740000  0.40420000  0.02480000  1
  N  N100  1  0.95210000  0.33569000  0.58070000  1
  N  N101  1  0.95210000  0.58070000  0.33569000  1
  O  O102  1  0.16660000  0.66385000  0.66385000  1
  O  O103  1  0.86563000  0.21565000  0.45322000  1
  O  O104  1  0.86563000  0.45322000  0.21565000  1
  O  O105  1  0.12196000  0.53516000  0.63606000  1
  O  O106  1  0.12196000  0.63606000  0.53516000  1
  O  O107  1  0.55489000  0.75029000  0.27789000  1
  O  O108  1  0.55489000  0.27789000  0.75029000  1
  O  O109  1  0.21565000  0.45322000  0.86563000  1
  O  O110  1  0.21565000  0.86563000  0.45322000  1
  O  O111  1  0.54678000  0.78435000  0.13437000  1
  O  O112  1  0.54678000  0.13437000  0.78435000  1
  O  O113  1  0.27789000  0.55489000  0.75029000  1
  O  O114  1  0.27789000  0.75029000  0.55489000  1
  O  O115  1  0.57833000  0.57833000  0.28328000  1
  O  O116  1  0.57833000  0.28328000  0.57833000  1
  O  O117  1  0.53516000  0.63606000  0.12196000  1
  O  O118  1  0.53516000  0.12196000  0.63606000  1
  O  O119  1  0.24971000  0.44511000  0.72211000  1
  O  O120  1  0.24971000  0.72211000  0.44511000  1
  O  O121  1  0.36394000  0.46484000  0.87804000  1
  O  O122  1  0.36394000  0.87804000  0.46484000  1
  O  O123  1  0.28328000  0.57833000  0.57833000  1
  O  O124  1  0.66385000  0.66385000  0.16660000  1
  O  O125  1  0.66385000  0.16660000  0.66385000  1
  O  O126  1  0.33615000  0.33615000  0.83340000  1
  O  O127  1  0.33615000  0.83340000  0.33615000  1
  O  O128  1  0.71672000  0.42167000  0.42167000  1
  O  O129  1  0.63606000  0.53516000  0.12196000  1
  O  O130  1  0.63606000  0.12196000  0.53516000  1
  O  O131  1  0.75029000  0.55489000  0.27789000  1
  O  O132  1  0.75029000  0.27789000  0.55489000  1
  O  O133  1  0.46484000  0.36394000  0.87804000  1
  O  O134  1  0.46484000  0.87804000  0.36394000  1
  O  O135  1  0.42167000  0.42167000  0.71672000  1
  O  O136  1  0.42167000  0.71672000  0.42167000  1
  O  O137  1  0.72211000  0.24971000  0.44511000  1
  O  O138  1  0.72211000  0.44511000  0.24971000  1
  O  O139  1  0.45322000  0.21565000  0.86563000  1
  O  O140  1  0.45322000  0.86563000  0.21565000  1
  O  O141  1  0.78435000  0.54678000  0.13437000  1
  O  O142  1  0.78435000  0.13437000  0.54678000  1
  O  O143  1  0.44511000  0.24971000  0.72211000  1
  O  O144  1  0.44511000  0.72211000  0.24971000  1
  O  O145  1  0.87804000  0.36394000  0.46484000  1
  O  O146  1  0.87804000  0.46484000  0.36394000  1
  O  O147  1  0.13437000  0.54678000  0.78435000  1
  O  O148  1  0.13437000  0.78435000  0.54678000  1
  O  O149  1  0.83340000  0.33615000  0.33615000  1
