# generated using pymatgen
data_NaCrN18
_symmetry_space_group_name_H-M   'P 1'
_cell_length_a   12.84340000
_cell_length_b   12.84340000
_cell_length_c   12.84340000
_cell_angle_alpha   90.00000000
_cell_angle_beta   90.00000000
_cell_angle_gamma   90.00000000
_symmetry_Int_Tables_number   1
_chemical_formula_structural   NaCrN18
_chemical_formula_sum   'Na4 Cr4 N72'
_cell_volume   2118.55637845
_cell_formula_units_Z   4
loop_
 _symmetry_equiv_pos_site_id
 _symmetry_equiv_pos_as_xyz
  1  'x, y, z'
loop_
 _atom_site_type_symbol
 _atom_site_label
 _atom_site_symmetry_multiplicity
 _atom_site_fract_x
 _atom_site_fract_y
 _atom_site_fract_z
 _atom_site_occupancy
  Na  Na0  1  0.00000000  0.00000000  0.00000000  1
  Na  Na1  1  0.00000000  0.50000000  0.50000000  1
  Na  Na2  1  0.50000000  0.00000000  0.50000000  1
  Na  Na3  1  0.50000000  0.50000000  0.00000000  1
  Cr  Cr4  1  0.00000000  0.00000000  0.50000000  1
  Cr  Cr5  1  0.00000000  0.50000000  0.00000000  1
  Cr  Cr6  1  0.50000000  0.00000000  0.00000000  1
  Cr  Cr7  1  0.50000000  0.50000000  0.50000000  1
  N  N8  1  0.01620000  0.52720000  0.30617000  1
  N  N9  1  0.01620000  0.97280000  0.80617000  1
  N  N10  1  0.01850000  0.03290000  0.27594000  1
  N  N11  1  0.01850000  0.46710000  0.77594000  1
  N  N12  1  0.02720000  0.19383000  0.98380000  1
  N  N13  1  0.02720000  0.30617000  0.48380000  1
  N  N14  1  0.03290000  0.22406000  0.51850000  1
  N  N15  1  0.03290000  0.27594000  0.01850000  1
  N  N16  1  0.04250000  0.14114000  0.55915000  1
  N  N17  1  0.04250000  0.35886000  0.05915000  1
  N  N18  1  0.05915000  0.04250000  0.35886000  1
  N  N19  1  0.05915000  0.45750000  0.85886000  1
  N  N20  1  0.14114000  0.55915000  0.04250000  1
  N  N21  1  0.14114000  0.94085000  0.54250000  1
  N  N22  1  0.19383000  0.51620000  0.52720000  1
  N  N23  1  0.19383000  0.98380000  0.02720000  1
  N  N24  1  0.22406000  0.51850000  0.03290000  1
  N  N25  1  0.22406000  0.98150000  0.53290000  1
  N  N26  1  0.27594000  0.01850000  0.03290000  1
  N  N27  1  0.27594000  0.48150000  0.53290000  1
  N  N28  1  0.30617000  0.01620000  0.52720000  1
  N  N29  1  0.30617000  0.48380000  0.02720000  1
  N  N30  1  0.35886000  0.05915000  0.04250000  1
  N  N31  1  0.35886000  0.44085000  0.54250000  1
  N  N32  1  0.44085000  0.54250000  0.35886000  1
  N  N33  1  0.44085000  0.95750000  0.85886000  1
  N  N34  1  0.45750000  0.64114000  0.55915000  1
  N  N35  1  0.45750000  0.85886000  0.05915000  1
  N  N36  1  0.46710000  0.72406000  0.51850000  1
  N  N37  1  0.46710000  0.77594000  0.01850000  1
  N  N38  1  0.47280000  0.69383000  0.98380000  1
  N  N39  1  0.47280000  0.80617000  0.48380000  1
  N  N40  1  0.48150000  0.53290000  0.27594000  1
  N  N41  1  0.48150000  0.96710000  0.77594000  1
  N  N42  1  0.48380000  0.02720000  0.30617000  1
  N  N43  1  0.48380000  0.47280000  0.80617000  1
  N  N44  1  0.51620000  0.52720000  0.19383000  1
  N  N45  1  0.51620000  0.97280000  0.69383000  1
  N  N46  1  0.51850000  0.03290000  0.22406000  1
  N  N47  1  0.51850000  0.46710000  0.72406000  1
  N  N48  1  0.52720000  0.19383000  0.51620000  1
  N  N49  1  0.52720000  0.30617000  0.01620000  1
  N  N50  1  0.53290000  0.22406000  0.98150000  1
  N  N51  1  0.53290000  0.27594000  0.48150000  1
  N  N52  1  0.54250000  0.14114000  0.94085000  1
  N  N53  1  0.54250000  0.35886000  0.44085000  1
  N  N54  1  0.55915000  0.04250000  0.14114000  1
  N  N55  1  0.55915000  0.45750000  0.64114000  1
  N  N56  1  0.64114000  0.55915000  0.45750000  1
  N  N57  1  0.64114000  0.94085000  0.95750000  1
  N  N58  1  0.69383000  0.51620000  0.97280000  1
  N  N59  1  0.69383000  0.98380000  0.47280000  1
  N  N60  1  0.72406000  0.51850000  0.46710000  1
  N  N61  1  0.72406000  0.98150000  0.96710000  1
  N  N62  1  0.77594000  0.01850000  0.46710000  1
  N  N63  1  0.77594000  0.48150000  0.96710000  1
  N  N64  1  0.80617000  0.01620000  0.97280000  1
  N  N65  1  0.80617000  0.48380000  0.47280000  1
  N  N66  1  0.85886000  0.05915000  0.45750000  1
  N  N67  1  0.85886000  0.44085000  0.95750000  1
  N  N68  1  0.94085000  0.54250000  0.14114000  1
  N  N69  1  0.94085000  0.95750000  0.64114000  1
  N  N70  1  0.95750000  0.64114000  0.94085000  1
  N  N71  1  0.95750000  0.85886000  0.44085000  1
  N  N72  1  0.96710000  0.72406000  0.98150000  1
  N  N73  1  0.96710000  0.77594000  0.48150000  1
  N  N74  1  0.97280000  0.69383000  0.51620000  1
  N  N75  1  0.97280000  0.80617000  0.01620000  1
  N  N76  1  0.98150000  0.53290000  0.22406000  1
  N  N77  1  0.98150000  0.96710000  0.72406000  1
  N  N78  1  0.98380000  0.02720000  0.19383000  1
  N  N79  1  0.98380000  0.47280000  0.69383000  1
