# generated using pymatgen
data_TbH7C15O7
_symmetry_space_group_name_H-M   'P 1'
_cell_length_a   13.85400000
_cell_length_b   21.69405603
_cell_length_c   21.69405603
_cell_angle_alpha   84.14823630
_cell_angle_beta   71.37915786
_cell_angle_gamma   71.37915786
_symmetry_Int_Tables_number   1
_chemical_formula_structural   TbH7C15O7
_chemical_formula_sum   'Tb8 H56 C120 O56'
_cell_volume   5855.37561625
_cell_formula_units_Z   8
loop_
 _symmetry_equiv_pos_site_id
 _symmetry_equiv_pos_as_xyz
  1  'x, y, z'
loop_
 _atom_site_type_symbol
 _atom_site_label
 _atom_site_symmetry_multiplicity
 _atom_site_fract_x
 _atom_site_fract_y
 _atom_site_fract_z
 _atom_site_occupancy
  C  C0  1  0.34370000  0.50220000  0.48900000  1
  C  C1  1  0.66510000  0.00220000  0.98900000  1
  C  C2  1  0.18500000  0.52980000  0.45660000  1
  C  C3  1  0.82860000  0.02980000  0.95660000  1
  C  C4  1  0.28930000  0.49060000  0.45120000  1
  C  C5  1  0.76890000  0.99060000  0.95120000  1
  C  C6  1  0.21870000  0.92330000  0.99310000  1
  C  C7  1  0.86490000  0.42330000  0.49310000  1
  C  C8  1  0.38240000  0.95050000  0.96330000  1
  C  C9  1  0.70380000  0.45050000  0.46330000  1
  C  C10  1  0.32230000  0.91310000  0.95310000  1
  C  C11  1  0.81150000  0.41310000  0.45310000  1
  C  C12  1  0.34360000  0.43700000  0.40140000  1
  C  C13  1  0.81800000  0.93700000  0.90140000  1
  C  C14  1  0.28630000  0.40030000  0.39070000  1
  C  C15  1  0.92270000  0.90030000  0.89070000  1
  C  C16  1  0.45410000  0.42080000  0.36980000  1
  C  C17  1  0.75530000  0.92080000  0.86980000  1
  C  C18  1  0.36390000  0.86510000  0.89930000  1
  C  C19  1  0.87170000  0.36510000  0.39930000  1
  C  C20  1  0.50660000  0.36560000  0.32960000  1
  C  C21  1  0.79820000  0.86560000  0.82960000  1
  C  C22  1  0.96660000  0.84520000  0.84940000  1
  C  C23  1  0.33880000  0.34520000  0.34940000  1
  C  C24  1  0.44650000  0.32970000  0.32150000  1
  C  C25  1  0.90230000  0.82970000  0.82150000  1
  C  C26  1  0.08000000  0.80870000  0.83870000  1
  C  C27  1  0.27260000  0.30870000  0.33870000  1
  C  C28  1  0.62290000  0.34880000  0.29580000  1
  C  C29  1  0.73250000  0.84880000  0.79580000  1
  C  C30  1  0.78520000  0.54340000  0.02980000  1
  C  C31  1  0.64160000  0.04340000  0.52980000  1
  C  C32  1  0.78820000  0.49310000  0.07670000  1
  C  C33  1  0.64200000  0.99310000  0.57670000  1
  C  C34  1  0.52830000  0.70420000  0.84880000  1
  C  C35  1  0.91870000  0.20420000  0.34880000  1
  C  C36  1  0.62510000  0.63020000  0.92080000  1
  C  C37  1  0.82390000  0.13020000  0.42080000  1
  C  C38  1  0.72460000  0.45310000  0.08690000  1
  C  C39  1  0.73540000  0.95310000  0.58690000  1
  C  C40  1  0.72010000  0.54880000  0.99060000  1
  C  C41  1  0.74050000  0.04880000  0.49060000  1
  C  C42  1  0.62780000  0.67040000  0.86560000  1
  C  C43  1  0.83620000  0.17040000  0.36560000  1
  C  C44  1  0.71940000  0.59860000  0.93700000  1
  C  C45  1  0.74500000  0.09860000  0.43700000  1
  C  C46  1  0.73680000  0.39930000  0.13490000  1
  C  C47  1  0.72900000  0.89930000  0.63490000  1
  C  C48  1  0.08130000  0.33870000  0.19130000  1
  C  C49  1  0.38870000  0.83870000  0.69130000  1
  C  C50  1  0.65410000  0.51100000  0.00220000  1
  C  C51  1  0.83270000  0.01100000  0.50220000  1
  C  C52  1  0.65430000  0.46330000  0.04950000  1
  C  C53  1  0.83290000  0.96330000  0.54950000  1
  C  C54  1  0.81340000  0.60930000  0.90030000  1
  C  C55  1  0.67700000  0.10930000  0.40030000  1
  C  C56  1  0.72380000  0.67850000  0.82970000  1
  C  C57  1  0.76800000  0.17850000  0.32970000  1
  C  C58  1  0.18400000  0.34940000  0.15480000  1
  C  C59  1  0.31180000  0.84940000  0.65480000  1
  C  C60  1  0.81600000  0.65060000  0.84520000  1
  C  C61  1  0.68820000  0.15060000  0.34520000  1
  C  C62  1  0.27620000  0.32150000  0.17030000  1
  C  C63  1  0.23200000  0.82150000  0.67030000  1
  C  C64  1  0.18660000  0.39070000  0.09970000  1
  C  C65  1  0.32300000  0.89070000  0.59970000  1
  C  C66  1  0.34570000  0.53670000  0.95050000  1
  C  C67  1  0.16710000  0.03670000  0.45050000  1
  C  C68  1  0.34590000  0.48900000  0.99780000  1
  C  C69  1  0.16730000  0.98900000  0.49780000  1
  C  C70  1  0.91870000  0.66130000  0.80870000  1
  C  C71  1  0.61130000  0.16130000  0.30870000  1
  C  C72  1  0.26320000  0.60070000  0.86510000  1
  C  C73  1  0.27100000  0.10070000  0.36510000  1
  C  C74  1  0.28060000  0.40140000  0.06300000  1
  C  C75  1  0.25500000  0.90140000  0.56300000  1
  C  C76  1  0.37220000  0.32960000  0.13440000  1
  C  C77  1  0.16380000  0.82960000  0.63440000  1
  C  C78  1  0.27990000  0.45120000  0.00940000  1
  C  C79  1  0.25950000  0.95120000  0.50940000  1
  C  C80  1  0.27540000  0.54690000  0.91310000  1
  C  C81  1  0.26460000  0.04690000  0.41310000  1
  C  C82  1  0.37490000  0.36980000  0.07920000  1
  C  C83  1  0.17610000  0.86980000  0.57920000  1
  C  C84  1  0.47170000  0.29580000  0.15120000  1
  C  C85  1  0.08130000  0.79580000  0.65120000  1
  C  C86  1  0.21180000  0.50690000  0.92330000  1
  C  C87  1  0.35800000  0.00690000  0.42330000  1
  C  C88  1  0.21480000  0.45660000  0.97020000  1
  C  C89  1  0.35840000  0.95660000  0.47020000  1
  C  C90  1  0.37710000  0.65120000  0.70420000  1
  C  C91  1  0.26750000  0.15120000  0.20420000  1
  C  C92  1  0.92000000  0.19130000  0.16130000  1
  C  C93  1  0.72740000  0.69130000  0.66130000  1
  C  C94  1  0.55350000  0.67030000  0.67850000  1
  C  C95  1  0.09770000  0.17030000  0.17850000  1
  C  C96  1  0.03340000  0.15480000  0.15060000  1
  C  C97  1  0.66120000  0.65480000  0.65060000  1
  C  C98  1  0.49340000  0.63440000  0.67040000  1
  C  C99  1  0.20180000  0.13440000  0.17040000  1
  C  C100  1  0.63610000  0.13490000  0.10070000  1
  C  C101  1  0.12830000  0.63490000  0.60070000  1
  C  C102  1  0.54590000  0.57920000  0.63020000  1
  C  C103  1  0.24470000  0.07920000  0.13020000  1
  C  C104  1  0.71370000  0.59970000  0.60930000  1
  C  C105  1  0.07730000  0.09970000  0.10930000  1
  C  C106  1  0.65640000  0.56300000  0.59860000  1
  C  C107  1  0.18200000  0.06300000  0.09860000  1
  C  C108  1  0.67770000  0.08690000  0.04690000  1
  C  C109  1  0.18850000  0.58690000  0.54690000  1
  C  C110  1  0.61760000  0.04950000  0.03670000  1
  C  C111  1  0.29620000  0.54950000  0.53670000  1
  C  C112  1  0.78130000  0.07670000  0.00690000  1
  C  C113  1  0.13510000  0.57670000  0.50690000  1
  C  C114  1  0.71070000  0.50940000  0.54880000  1
  C  C115  1  0.23110000  0.00940000  0.04880000  1
  C  C116  1  0.81500000  0.47020000  0.54340000  1
  C  C117  1  0.17140000  0.97020000  0.04340000  1
  C  C118  1  0.65630000  0.49780000  0.51100000  1
  C  C119  1  0.33490000  0.99780000  0.01100000  1
  H  H120  1  0.62520000  0.97770000  0.98230000  1
  H  H121  1  0.41480000  0.47770000  0.48230000  1
  H  H122  1  0.14970000  0.52510000  0.42830000  1
  H  H123  1  0.89690000  0.02510000  0.92830000  1
  H  H124  1  0.17870000  0.89860000  0.98680000  1
  H  H125  1  0.93590000  0.39860000  0.48680000  1
  H  H126  1  0.49260000  0.44680000  0.37540000  1
  H  H127  1  0.21270000  0.41170000  0.41050000  1
  H  H128  1  0.68520000  0.94680000  0.87540000  1
  H  H129  1  0.96510000  0.91170000  0.91050000  1
  H  H130  1  0.67930000  0.41780000  0.39720000  1
  H  H131  1  0.50570000  0.91780000  0.89720000  1
  H  H132  1  0.82520000  0.57170000  0.02510000  1
  H  H133  1  0.57800000  0.07170000  0.52510000  1
  H  H134  1  0.93070000  0.79280000  0.79560000  1
  H  H135  1  0.48090000  0.29280000  0.29560000  1
  H  H136  1  0.83450000  0.48680000  0.10140000  1
  H  H137  1  0.57730000  0.98680000  0.60140000  1
  H  H138  1  0.56060000  0.62460000  0.94680000  1
  H  H139  1  0.86800000  0.12460000  0.44680000  1
  H  H140  1  0.40290000  0.60280000  0.91780000  1
  H  H141  1  0.07650000  0.10280000  0.41780000  1
  H  H142  1  0.39250000  0.48230000  0.02230000  1
  H  H143  1  0.10290000  0.98230000  0.52230000  1
  H  H144  1  0.27370000  0.29560000  0.20720000  1
  H  H145  1  0.22350000  0.79560000  0.70720000  1
  H  H146  1  0.87560000  0.58950000  0.91170000  1
  H  H147  1  0.62320000  0.08950000  0.41170000  1
  H  H148  1  0.12440000  0.41050000  0.08830000  1
  H  H149  1  0.37680000  0.91050000  0.58830000  1
  H  H150  1  0.72630000  0.70440000  0.79280000  1
  H  H151  1  0.77650000  0.20440000  0.29280000  1
  H  H152  1  0.60750000  0.51770000  0.97770000  1
  H  H153  1  0.89710000  0.01770000  0.47770000  1
  H  H154  1  0.59710000  0.39720000  0.08220000  1
  H  H155  1  0.92350000  0.89720000  0.58220000  1
  H  H156  1  0.43940000  0.37540000  0.05320000  1
  H  H157  1  0.13200000  0.87540000  0.55320000  1
  H  H158  1  0.16550000  0.51320000  0.89860000  1
  H  H159  1  0.42270000  0.01320000  0.39860000  1
  H  H160  1  0.06930000  0.20720000  0.20440000  1
  H  H161  1  0.51910000  0.70720000  0.70440000  1
  H  H162  1  0.17480000  0.42830000  0.97490000  1
  H  H163  1  0.42200000  0.92830000  0.47490000  1
  H  H164  1  0.32070000  0.58220000  0.60280000  1
  H  H165  1  0.49430000  0.08220000  0.10280000  1
  H  H166  1  0.78730000  0.58830000  0.58950000  1
  H  H167  1  0.50740000  0.55320000  0.62460000  1
  H  H168  1  0.03490000  0.08830000  0.08950000  1
  H  H169  1  0.31480000  0.05320000  0.12460000  1
  H  H170  1  0.82130000  0.10140000  0.01320000  1
  H  H171  1  0.06410000  0.60140000  0.51320000  1
  H  H172  1  0.85030000  0.47490000  0.57170000  1
  H  H173  1  0.10310000  0.97490000  0.07170000  1
  H  H174  1  0.37480000  0.02230000  0.01770000  1
  H  H175  1  0.58520000  0.52230000  0.51770000  1
  O  O176  1  0.64300000  0.44540000  0.42540000  1
  O  O177  1  0.48620000  0.94540000  0.92540000  1
  O  O178  1  0.31100000  0.83090000  0.89370000  1
  O  O179  1  0.96440000  0.33090000  0.39370000  1
  O  O180  1  0.82100000  0.36130000  0.35970000  1
  O  O181  1  0.45800000  0.86130000  0.85970000  1
  O  O182  1  0.67500000  0.38480000  0.30360000  1
  O  O183  1  0.63660000  0.88480000  0.80360000  1
  O  O184  1  0.14410000  0.83510000  0.84310000  1
  O  O185  1  0.17770000  0.33510000  0.34310000  1
  O  O186  1  0.44020000  0.69640000  0.88480000  1
  O  O187  1  0.97860000  0.19640000  0.38480000  1
  O  O188  1  0.06270000  0.32030000  0.25170000  1
  O  O189  1  0.36530000  0.82030000  0.75170000  1
  O  O190  1  0.11700000  0.74830000  0.82030000  1
  O  O191  1  0.31440000  0.24830000  0.32030000  1
  O  O192  1  0.79530000  0.39370000  0.16910000  1
  O  O193  1  0.64190000  0.89370000  0.66910000  1
  O  O194  1  0.66760000  0.30250000  0.25630000  1
  O  O195  1  0.77360000  0.80250000  0.75630000  1
  O  O196  1  0.52990000  0.74370000  0.80250000  1
  O  O197  1  0.92390000  0.24370000  0.30250000  1
  O  O198  1  0.41160000  0.57460000  0.94540000  1
  O  O199  1  0.06840000  0.07460000  0.44540000  1
  O  O200  1  0.01280000  0.34310000  0.16490000  1
  O  O201  1  0.47920000  0.84310000  0.66490000  1
  O  O202  1  0.31770000  0.64030000  0.86130000  1
  O  O203  1  0.18070000  0.14030000  0.36130000  1
  O  O204  1  0.68230000  0.35970000  0.13870000  1
  O  O205  1  0.81930000  0.85970000  0.63870000  1
  O  O206  1  0.98720000  0.65690000  0.83510000  1
  O  O207  1  0.52080000  0.15690000  0.33510000  1
  O  O208  1  0.58840000  0.42540000  0.05460000  1
  O  O209  1  0.93160000  0.92540000  0.55460000  1
  O  O210  1  0.47010000  0.25630000  0.19750000  1
  O  O211  1  0.07610000  0.75630000  0.69750000  1
  O  O212  1  0.33240000  0.69750000  0.74370000  1
  O  O213  1  0.22640000  0.19750000  0.24370000  1
  O  O214  1  0.20470000  0.60630000  0.83090000  1
  O  O215  1  0.35810000  0.10630000  0.33090000  1
  O  O216  1  0.88300000  0.25170000  0.17970000  1
  O  O217  1  0.68560000  0.75170000  0.67970000  1
  O  O218  1  0.93730000  0.67970000  0.74830000  1
  O  O219  1  0.63470000  0.17970000  0.24830000  1
  O  O220  1  0.55980000  0.30360000  0.11520000  1
  O  O221  1  0.02140000  0.80360000  0.61520000  1
  O  O222  1  0.85590000  0.16490000  0.15690000  1
  O  O223  1  0.82230000  0.66490000  0.65690000  1
  O  O224  1  0.32500000  0.61520000  0.69640000  1
  O  O225  1  0.36340000  0.11520000  0.19640000  1
  O  O226  1  0.17900000  0.63870000  0.64030000  1
  O  O227  1  0.54200000  0.13870000  0.14030000  1
  O  O228  1  0.68900000  0.16910000  0.10630000  1
  O  O229  1  0.03560000  0.66910000  0.60630000  1
  O  O230  1  0.35700000  0.55460000  0.57460000  1
  O  O231  1  0.51380000  0.05460000  0.07460000  1
  Tb  Tb232  1  0.30039000  0.75030000  0.83940000  1
  Tb  Tb233  1  0.10991000  0.25030000  0.33940000  1
  Tb  Tb234  1  0.86021000  0.33940000  0.24970000  1
  Tb  Tb235  1  0.55069000  0.83940000  0.74970000  1
  Tb  Tb236  1  0.13979000  0.66060000  0.75030000  1
  Tb  Tb237  1  0.44931000  0.16060000  0.25030000  1
  Tb  Tb238  1  0.69961000  0.24970000  0.16060000  1
  Tb  Tb239  1  0.89009000  0.74970000  0.66060000  1
