# generated using pymatgen
data_CuHC4O3
_symmetry_space_group_name_H-M   'P 1'
_cell_length_a   6.26230000
_cell_length_b   15.08555949
_cell_length_c   15.08555949
_cell_angle_alpha   118.11737667
_cell_angle_beta   97.95370666
_cell_angle_gamma   97.95370666
_symmetry_Int_Tables_number   1
_chemical_formula_structural   CuHC4O3
_chemical_formula_sum   'Cu6 H6 C24 O18'
_cell_volume   1210.57370688
_cell_formula_units_Z   6
loop_
 _symmetry_equiv_pos_site_id
 _symmetry_equiv_pos_as_xyz
  1  'x, y, z'
loop_
 _atom_site_type_symbol
 _atom_site_label
 _atom_site_symmetry_multiplicity
 _atom_site_fract_x
 _atom_site_fract_y
 _atom_site_fract_z
 _atom_site_occupancy
  C  C0  1  0.87690000  0.46460000  0.54710000  1
  C  C1  1  0.71740000  0.42720000  0.59200000  1
  C  C2  1  0.92820000  0.57320000  0.47240000  1
  C  C3  1  0.81160000  0.54100000  0.52980000  1
  C  C4  1  0.12540000  0.40800000  0.83520000  1
  C  C5  1  0.70980000  0.83520000  0.42720000  1
  C  C6  1  0.35500000  0.89920000  0.42680000  1
  C  C7  1  0.32980000  0.45290000  0.91750000  1
  C  C8  1  0.54420000  0.47240000  0.89920000  1
  C  C9  1  0.58770000  0.91750000  0.46460000  1
  C  C10  1  0.27060000  0.98880000  0.45900000  1
  C  C11  1  0.28180000  0.47020000  0.01120000  1
  C  C12  1  0.71820000  0.52980000  0.98880000  1
  C  C13  1  0.72940000  0.01120000  0.54100000  1
  C  C14  1  0.41230000  0.08250000  0.53540000  1
  C  C15  1  0.45580000  0.52760000  0.10080000  1
  C  C16  1  0.67020000  0.54710000  0.08250000  1
  C  C17  1  0.64500000  0.10080000  0.57320000  1
  C  C18  1  0.29020000  0.16480000  0.57280000  1
  C  C19  1  0.87460000  0.59200000  0.16480000  1
  C  C20  1  0.18840000  0.45900000  0.47020000  1
  C  C21  1  0.07180000  0.42680000  0.52760000  1
  C  C22  1  0.28260000  0.57280000  0.40800000  1
  C  C23  1  0.12310000  0.53540000  0.45290000  1
  Cu  Cu24  1  0.66420000  0.31670000  0.73890000  1
  Cu  Cu25  1  0.34750000  0.42220000  0.68330000  1
  Cu  Cu26  1  0.07470000  0.73890000  0.42220000  1
  Cu  Cu27  1  0.92530000  0.26110000  0.57780000  1
  Cu  Cu28  1  0.65250000  0.57780000  0.31670000  1
  Cu  Cu29  1  0.33580000  0.68330000  0.26110000  1
  H  H30  1  0.67430000  0.56460000  0.55030000  1
  H  H31  1  0.10970000  0.98570000  0.43540000  1
  H  H32  1  0.12400000  0.44970000  0.01430000  1
  H  H33  1  0.87600000  0.55030000  0.98570000  1
  H  H34  1  0.89030000  0.01430000  0.56460000  1
  H  H35  1  0.32570000  0.43540000  0.44970000  1
  O  O36  1  0.29540000  0.65810000  0.40610000  1
  O  O37  1  0.63730000  0.74800000  0.34190000  1
  O  O38  1  0.88360000  0.64660000  0.44520000  1
  O  O39  1  0.58260000  0.47920000  0.64260000  1
  O  O40  1  0.23700000  0.79860000  0.35340000  1
  O  O41  1  0.11070000  0.40610000  0.74800000  1
  O  O42  1  0.94000000  0.35740000  0.83660000  1
  O  O43  1  0.56160000  0.44520000  0.79860000  1
  O  O44  1  0.89660000  0.83660000  0.47920000  1
  O  O45  1  0.10340000  0.16340000  0.52080000  1
  O  O46  1  0.43840000  0.55480000  0.20140000  1
  O  O47  1  0.06000000  0.64260000  0.16340000  1
  O  O48  1  0.88930000  0.59390000  0.25200000  1
  O  O49  1  0.76300000  0.20140000  0.64660000  1
  O  O50  1  0.41740000  0.52080000  0.35740000  1
  O  O51  1  0.11640000  0.35340000  0.55480000  1
  O  O52  1  0.36270000  0.25200000  0.65810000  1
  O  O53  1  0.70460000  0.34190000  0.59390000  1
