# generated using pymatgen
data_CoH19C23(NO)3
_symmetry_space_group_name_H-M   'P 1'
_cell_length_a   10.22920000
_cell_length_b   11.42430000
_cell_length_c   24.70020000
_cell_angle_alpha   90.00000000
_cell_angle_beta   90.00000000
_cell_angle_gamma   90.08700000
_symmetry_Int_Tables_number   1
_chemical_formula_structural   CoH19C23(NO)3
_chemical_formula_sum   'Co4 H76 C92 N12 O12'
_cell_volume   2886.49784879
_cell_formula_units_Z   4
loop_
 _symmetry_equiv_pos_site_id
 _symmetry_equiv_pos_as_xyz
  1  'x, y, z'
loop_
 _atom_site_type_symbol
 _atom_site_label
 _atom_site_symmetry_multiplicity
 _atom_site_fract_x
 _atom_site_fract_y
 _atom_site_fract_z
 _atom_site_occupancy
  Co  Co0  1  0.95568000  0.07918000  0.31817000  1
  Co  Co1  1  0.54313000  0.94344000  0.73887000  1
  Co  Co2  1  0.45687000  0.05656000  0.23887000  1
  Co  Co3  1  0.04432000  0.92082000  0.81817000  1
  H  H4  1  0.99740000  0.86780000  0.21630000  1
  H  H5  1  0.98890000  0.68870000  0.16160000  1
  H  H6  1  0.96500000  0.85400000  0.71700000  1
  H  H7  1  0.96330000  0.05890000  0.52200000  1
  H  H8  1  0.96120000  0.91480000  0.93650000  1
  H  H9  1  0.89270000  0.01540000  0.59740000  1
  H  H10  1  0.86590000  0.69230000  0.08250000  1
  H  H11  1  0.86560000  0.14010000  0.17320000  1
  H  H12  1  0.85980000  0.13090000  0.84560000  1
  H  H13  1  0.85710000  0.33010000  0.85210000  1
  H  H14  1  0.85470000  0.70680000  0.81280000  1
  H  H15  1  0.85090000  0.50840000  0.81920000  1
  H  H16  1  0.80460000  0.97570000  0.68090000  1
  H  H17  1  0.77410000  0.02570000  0.10390000  1
  H  H18  1  0.77060000  0.87100000  0.30990000  1
  H  H19  1  0.76680000  0.28860000  0.33770000  1
  H  H20  1  0.76590000  0.85620000  0.05110000  1
  H  H21  1  0.76450000  0.65580000  0.97990000  1
  H  H22  1  0.76220000  0.48790000  0.34450000  1
  H  H23  1  0.76200000  0.66990000  0.31340000  1
  H  H24  1  0.74970000  0.84050000  0.94620000  1
  H  H25  1  0.73350000  0.53830000  0.71480000  1
  H  H26  1  0.73190000  0.35550000  0.74910000  1
  H  H27  1  0.72680000  0.73880000  0.71940000  1
  H  H28  1  0.71890000  0.15580000  0.76000000  1
  H  H29  1  0.69420000  0.06940000  0.37770000  1
  H  H30  1  0.65710000  0.47160000  0.23370000  1
  H  H31  1  0.65360000  0.27140000  0.23920000  1
  H  H32  1  0.64090000  0.64510000  0.19920000  1
  H  H33  1  0.63760000  0.85120000  0.20550000  1
  H  H34  1  0.63730000  0.98750000  0.88520000  1
  H  H35  1  0.62820000  0.50700000  0.94790000  1
  H  H36  1  0.60700000  0.03110000  0.46200000  1
  H  H37  1  0.54360000  0.04580000  0.12240000  1
  H  H38  1  0.53550000  0.99420000  0.53590000  1
  H  H39  1  0.51180000  0.26760000  0.33470000  1
  H  H40  1  0.50600000  0.97600000  0.33000000  1
  H  H41  1  0.50490000  0.54510000  0.87290000  1
  H  H42  1  0.49510000  0.45490000  0.37290000  1
  H  H43  1  0.49400000  0.02400000  0.83000000  1
  H  H44  1  0.48820000  0.73240000  0.83470000  1
  H  H45  1  0.46450000  0.00580000  0.03590000  1
  H  H46  1  0.45640000  0.95420000  0.62240000  1
  H  H47  1  0.39300000  0.96890000  0.96200000  1
  H  H48  1  0.37180000  0.49300000  0.44790000  1
  H  H49  1  0.36270000  0.01250000  0.38520000  1
  H  H50  1  0.36240000  0.14880000  0.70550000  1
  H  H51  1  0.35910000  0.35490000  0.69920000  1
  H  H52  1  0.34640000  0.72860000  0.73920000  1
  H  H53  1  0.34290000  0.52840000  0.73370000  1
  H  H54  1  0.30580000  0.93060000  0.87770000  1
  H  H55  1  0.28110000  0.84420000  0.26000000  1
  H  H56  1  0.27320000  0.26120000  0.21940000  1
  H  H57  1  0.26810000  0.64450000  0.24910000  1
  H  H58  1  0.26650000  0.46170000  0.21480000  1
  H  H59  1  0.25030000  0.15950000  0.44620000  1
  H  H60  1  0.23800000  0.33010000  0.81340000  1
  H  H61  1  0.23780000  0.51210000  0.84450000  1
  H  H62  1  0.23550000  0.34420000  0.47990000  1
  H  H63  1  0.23410000  0.14380000  0.55110000  1
  H  H64  1  0.23320000  0.71140000  0.83770000  1
  H  H65  1  0.22940000  0.12900000  0.80990000  1
  H  H66  1  0.22590000  0.97430000  0.60390000  1
  H  H67  1  0.19540000  0.02430000  0.18090000  1
  H  H68  1  0.14910000  0.49160000  0.31920000  1
  H  H69  1  0.14530000  0.29320000  0.31280000  1
  H  H70  1  0.14290000  0.66990000  0.35210000  1
  H  H71  1  0.14020000  0.86910000  0.34560000  1
  H  H72  1  0.13440000  0.85990000  0.67320000  1
  H  H73  1  0.13410000  0.30770000  0.58250000  1
  H  H74  1  0.10730000  0.98460000  0.09740000  1
  H  H75  1  0.03880000  0.08520000  0.43650000  1
  H  H76  1  0.03670000  0.94110000  0.02200000  1
  H  H77  1  0.03500000  0.14600000  0.21700000  1
  H  H78  1  0.01110000  0.31130000  0.66160000  1
  H  H79  1  0.00260000  0.13220000  0.71630000  1
  C  C80  1  0.95560000  0.64120000  0.32860000  1
  C  C81  1  0.95370000  0.51180000  0.32900000  1
  C  C82  1  0.94920000  0.86490000  0.18340000  1
  C  C83  1  0.94760000  0.07300000  0.44100000  1
  C  C84  1  0.94500000  0.75780000  0.15070000  1
  C  C85  1  0.93730000  0.17300000  0.83710000  1
  C  C86  1  0.93500000  0.29210000  0.84090000  1
  C  C87  1  0.93490000  0.66720000  0.81890000  1
  C  C88  1  0.93170000  0.54910000  0.82200000  1
  C  C89  1  0.90370000  0.05600000  0.49250000  1
  C  C90  1  0.88200000  0.96030000  0.16510000  1
  C  C91  1  0.87510000  0.07230000  0.19850000  1
  C  C92  1  0.87200000  0.76200000  0.10330000  1
  C  C93  1  0.84910000  0.82890000  0.31620000  1
  C  C94  1  0.84640000  0.33040000  0.33333333  1
  C  C95  1  0.84350000  0.70830000  0.31860000  1
  C  C96  1  0.84210000  0.44920000  0.33680000  1
  C  C97  1  0.81680000  0.95700000  0.11630000  1
  C  C98  1  0.81130000  0.85700000  0.08470000  1
  C  C99  1  0.80120000  0.00320000  0.60080000  1
  C  C100  1  0.77650000  0.03640000  0.50160000  1
  C  C101  1  0.75420000  0.06680000  0.23460000  1
  C  C102  1  0.75230000  0.06230000  0.40750000  1
  C  C103  1  0.74830000  0.92630000  0.82060000  1
  C  C104  1  0.74740000  0.97840000  0.65060000  1
  C  C105  1  0.72300000  0.01000000  0.55680000  1
  C  C106  1  0.70500000  0.67120000  0.95120000  1
  C  C107  1  0.69870000  0.04160000  0.45810000  1
  C  C108  1  0.69820000  0.78030000  0.93030000  1
  C  C109  1  0.65230000  0.57630000  0.72090000  1
  C  C110  1  0.65130000  0.31650000  0.74260000  1
  C  C111  1  0.64760000  0.69620000  0.72350000  1
  C  C112  1  0.64370000  0.19630000  0.74750000  1
  C  C113  1  0.62900000  0.58200000  0.93170000  1
  C  C114  1  0.62700000  0.92450000  0.85740000  1
  C  C115  1  0.61830000  0.80820000  0.88640000  1
  C  C116  1  0.59480000  0.99100000  0.56540000  1
  C  C117  1  0.57630000  0.43060000  0.23210000  1
  C  C118  1  0.57270000  0.31090000  0.23470000  1
  C  C119  1  0.56530000  0.68350000  0.21270000  1
  C  C120  1  0.56310000  0.80780000  0.21680000  1
  C  C121  1  0.55400000  0.60710000  0.88850000  1
  C  C122  1  0.54760000  0.96600000  0.61750000  1
  C  C123  1  0.54420000  0.71900000  0.86470000  1
  C  C124  1  0.54100000  0.38040000  0.72820000  1
  C  C125  1  0.53940000  0.51020000  0.72710000  1
  C  C126  1  0.46060000  0.48980000  0.22710000  1
  C  C127  1  0.45900000  0.61960000  0.22820000  1
  C  C128  1  0.45580000  0.28100000  0.36470000  1
  C  C129  1  0.45240000  0.03400000  0.11750000  1
  C  C130  1  0.44600000  0.39290000  0.38850000  1
  C  C131  1  0.43690000  0.19220000  0.71680000  1
  C  C132  1  0.43470000  0.31650000  0.71270000  1
  C  C133  1  0.42730000  0.68910000  0.73470000  1
  C  C134  1  0.42370000  0.56940000  0.73210000  1
  C  C135  1  0.40520000  0.00900000  0.06540000  1
  C  C136  1  0.38170000  0.19180000  0.38640000  1
  C  C137  1  0.37300000  0.07550000  0.35740000  1
  C  C138  1  0.37100000  0.41800000  0.43170000  1
  C  C139  1  0.35630000  0.80370000  0.24750000  1
  C  C140  1  0.35240000  0.30380000  0.22350000  1
  C  C141  1  0.34870000  0.68350000  0.24260000  1
  C  C142  1  0.34770000  0.42370000  0.22090000  1
  C  C143  1  0.30180000  0.21970000  0.43030000  1
  C  C144  1  0.30130000  0.95840000  0.95810000  1
  C  C145  1  0.29500000  0.32880000  0.45120000  1
  C  C146  1  0.27700000  0.99000000  0.05680000  1
  C  C147  1  0.25260000  0.02160000  0.15060000  1
  C  C148  1  0.25170000  0.07370000  0.32060000  1
  C  C149  1  0.24770000  0.93770000  0.90750000  1
  C  C150  1  0.24580000  0.93320000  0.73460000  1
  C  C151  1  0.22350000  0.96360000  0.00160000  1
  C  C152  1  0.19880000  0.99680000  0.10080000  1
  C  C153  1  0.18870000  0.14300000  0.58470000  1
  C  C154  1  0.18320000  0.04300000  0.61630000  1
  C  C155  1  0.15790000  0.55080000  0.83680000  1
  C  C156  1  0.15650000  0.29170000  0.81860000  1
  C  C157  1  0.15360000  0.66960000  0.83330000  1
  C  C158  1  0.15090000  0.17110000  0.81620000  1
  C  C159  1  0.12800000  0.23800000  0.60330000  1
  C  C160  1  0.12490000  0.92770000  0.69850000  1
  C  C161  1  0.11800000  0.03970000  0.66510000  1
  C  C162  1  0.09630000  0.94400000  0.99250000  1
  C  C163  1  0.06830000  0.45090000  0.32200000  1
  C  C164  1  0.06510000  0.33280000  0.31890000  1
  C  C165  1  0.06500000  0.70790000  0.34090000  1
  C  C166  1  0.06270000  0.82700000  0.33710000  1
  C  C167  1  0.05500000  0.24220000  0.65070000  1
  C  C168  1  0.05240000  0.92700000  0.94100000  1
  C  C169  1  0.05080000  0.13510000  0.68340000  1
  C  C170  1  0.04630000  0.48820000  0.82900000  1
  C  C171  1  0.04440000  0.35880000  0.82860000  1
  N  N172  1  0.95710000  0.88720000  0.32210000  1
  N  N173  1  0.95670000  0.26760000  0.32390000  1
  N  N174  1  0.87690000  0.07260000  0.39820000  1
  N  N175  1  0.62420000  0.95840000  0.65920000  1
  N  N176  1  0.54000000  0.13500000  0.73600000  1
  N  N177  1  0.53700000  0.75600000  0.73140000  1
  N  N178  1  0.46300000  0.24400000  0.23140000  1
  N  N179  1  0.46000000  0.86500000  0.23600000  1
  N  N180  1  0.37580000  0.04160000  0.15920000  1
  N  N181  1  0.12310000  0.92740000  0.89820000  1
  N  N182  1  0.04330000  0.73240000  0.82390000  1
  N  N183  1  0.04290000  0.11280000  0.82210000  1
  O  O184  1  0.98690000  0.09090000  0.23080000  1
  O  O185  1  0.85490000  0.91860000  0.84440000  1
  O  O186  1  0.76880000  0.07500000  0.28580000  1
  O  O187  1  0.73130000  0.93580000  0.77170000  1
  O  O188  1  0.64650000  0.05550000  0.21200000  1
  O  O189  1  0.51360000  0.94920000  0.82640000  1
  O  O190  1  0.48640000  0.05080000  0.32640000  1
  O  O191  1  0.35350000  0.94450000  0.71200000  1
  O  O192  1  0.26870000  0.06420000  0.27170000  1
  O  O193  1  0.23120000  0.92500000  0.78580000  1
  O  O194  1  0.14510000  0.08140000  0.34440000  1
  O  O195  1  0.01310000  0.90910000  0.73080000  1
