# generated using pymatgen
data_ZnH3C8SO7
_symmetry_space_group_name_H-M   'P 1'
_cell_length_a   11.35040000
_cell_length_b   12.19230000
_cell_length_c   12.33587666
_cell_angle_alpha   90.00000000
_cell_angle_beta   93.91620985
_cell_angle_gamma   90.00000000
_symmetry_Int_Tables_number   1
_chemical_formula_structural   ZnH3C8SO7
_chemical_formula_sum   'Zn4 H12 C32 S4 O28'
_cell_volume   1703.14475188
_cell_formula_units_Z   4
loop_
 _symmetry_equiv_pos_site_id
 _symmetry_equiv_pos_as_xyz
  1  'x, y, z'
loop_
 _atom_site_type_symbol
 _atom_site_label
 _atom_site_symmetry_multiplicity
 _atom_site_fract_x
 _atom_site_fract_y
 _atom_site_fract_z
 _atom_site_occupancy
  Zn  Zn0  1  0.83953000  0.47631000  0.01883000  1
  Zn  Zn1  1  0.33953000  0.02369000  0.51883000  1
  Zn  Zn2  1  0.66047000  0.97631000  0.48117000  1
  Zn  Zn3  1  0.16047000  0.52369000  0.98117000  1
  H  H4  1  0.32420000  0.27520000  0.34180000  1
  H  H5  1  0.82420000  0.22480000  0.84180000  1
  H  H6  1  0.04240000  0.97740000  0.37540000  1
  H  H7  1  0.54240000  0.52260000  0.87540000  1
  H  H8  1  0.34130000  0.76290000  0.73950000  1
  H  H9  1  0.84130000  0.73710000  0.23950000  1
  H  H10  1  0.15870000  0.26290000  0.76050000  1
  H  H11  1  0.65870000  0.23710000  0.26050000  1
  H  H12  1  0.45760000  0.47740000  0.12460000  1
  H  H13  1  0.95760000  0.02260000  0.62460000  1
  H  H14  1  0.17580000  0.77520000  0.15820000  1
  H  H15  1  0.67580000  0.72480000  0.65820000  1
  C  C16  1  0.11319000  0.79688000  0.19809000  1
  C  C17  1  0.61319000  0.70312000  0.69809000  1
  C  C18  1  0.49279000  0.85496000  0.61219000  1
  C  C19  1  0.99279000  0.64504000  0.11219000  1
  C  C20  1  0.12538000  0.88480000  0.26808000  1
  C  C21  1  0.62538000  0.61520000  0.76808000  1
  C  C22  1  0.50637000  0.75920000  0.68757000  1
  C  C23  1  0.00637000  0.74080000  0.18757000  1
  C  C24  1  0.03274000  0.91830000  0.32784000  1
  C  C25  1  0.53274000  0.58170000  0.82784000  1
  C  C26  1  0.91293000  0.77448000  0.24673000  1
  C  C27  1  0.41293000  0.72552000  0.74673000  1
  C  C28  1  0.92593000  0.86350000  0.31643000  1
  C  C29  1  0.42593000  0.63650000  0.81643000  1
  C  C30  1  0.67620000  0.40040000  0.12210000  1
  C  C31  1  0.17620000  0.09960000  0.62210000  1
  C  C32  1  0.82380000  0.90040000  0.37790000  1
  C  C33  1  0.32380000  0.59960000  0.87790000  1
  C  C34  1  0.57407000  0.36350000  0.18357000  1
  C  C35  1  0.07407000  0.13650000  0.68357000  1
  C  C36  1  0.58707000  0.27448000  0.25327000  1
  C  C37  1  0.08707000  0.22552000  0.75327000  1
  C  C38  1  0.46726000  0.41830000  0.17216000  1
  C  C39  1  0.96726000  0.08170000  0.67216000  1
  C  C40  1  0.99363000  0.25920000  0.81243000  1
  C  C41  1  0.49363000  0.24080000  0.31243000  1
  C  C42  1  0.37462000  0.38480000  0.23192000  1
  C  C43  1  0.87462000  0.11520000  0.73192000  1
  C  C44  1  0.00721000  0.35496000  0.88781000  1
  C  C45  1  0.50721000  0.14504000  0.38781000  1
  C  C46  1  0.38681000  0.29688000  0.30191000  1
  C  C47  1  0.88681000  0.20312000  0.80191000  1
  S  S48  1  0.26012000  0.95931000  0.28357000  1
  S  S49  1  0.76012000  0.54069000  0.78357000  1
  S  S50  1  0.23988000  0.45931000  0.21643000  1
  S  S51  1  0.73988000  0.04069000  0.71643000  1
  O  O52  1  0.93803000  0.36150000  0.96179000  1
  O  O53  1  0.43803000  0.13850000  0.46179000  1
  O  O54  1  0.72900000  0.42723000  0.78390000  1
  O  O55  1  0.22900000  0.07277000  0.28390000  1
  O  O56  1  0.31422000  0.92376000  0.38922000  1
  O  O57  1  0.81422000  0.57624000  0.88922000  1
  O  O58  1  0.17060000  0.42590000  0.30350000  1
  O  O59  1  0.67060000  0.07410000  0.80350000  1
  O  O60  1  0.41105000  0.92172000  0.62815000  1
  O  O61  1  0.91105000  0.57828000  0.12815000  1
  O  O62  1  0.77170000  0.35461000  0.13410000  1
  O  O63  1  0.27170000  0.14539000  0.63410000  1
  O  O64  1  0.66300000  0.48010000  0.05870000  1
  O  O65  1  0.16300000  0.01990000  0.55870000  1
  O  O66  1  0.83700000  0.98010000  0.44130000  1
  O  O67  1  0.33700000  0.51990000  0.94130000  1
  O  O68  1  0.72830000  0.85461000  0.36590000  1
  O  O69  1  0.22830000  0.64539000  0.86590000  1
  O  O70  1  0.08895000  0.42172000  0.87185000  1
  O  O71  1  0.58895000  0.07828000  0.37185000  1
  O  O72  1  0.32940000  0.92590000  0.19650000  1
  O  O73  1  0.82940000  0.57410000  0.69650000  1
  O  O74  1  0.18578000  0.42376000  0.11078000  1
  O  O75  1  0.68578000  0.07624000  0.61078000  1
  O  O76  1  0.77100000  0.92723000  0.71610000  1
  O  O77  1  0.27100000  0.57277000  0.21610000  1
  O  O78  1  0.56197000  0.86150000  0.53821000  1
  O  O79  1  0.06197000  0.63850000  0.03821000  1
