# generated using pymatgen
data_Zn5Co3H40(C11O4)8
_symmetry_space_group_name_H-M   'P 1'
_cell_length_a   24.51151713
_cell_length_b   24.51151713
_cell_length_c   24.51151713
_cell_angle_alpha   93.89329540
_cell_angle_beta   117.77824458
_cell_angle_gamma   117.77824458
_symmetry_Int_Tables_number   1
_chemical_formula_structural   Zn5Co3H40(C11O4)8
_chemical_formula_sum   'Zn10 Co6 H80 C176 O64'
_cell_volume   10736.36252815
_cell_formula_units_Z   2
loop_
 _symmetry_equiv_pos_site_id
 _symmetry_equiv_pos_as_xyz
  1  'x, y, z'
loop_
 _atom_site_type_symbol
 _atom_site_label
 _atom_site_symmetry_multiplicity
 _atom_site_fract_x
 _atom_site_fract_y
 _atom_site_fract_z
 _atom_site_occupancy
  C  C0  1  0.25470000  0.20880000  0.43950000  1
  C  C1  1  0.73610000  0.10645000  0.81315000  1
  C  C2  1  0.80680000  0.68444000  0.45024000  1
  C  C3  1  0.74370000  0.15450000  0.85680000  1
  C  C4  1  0.29570000  0.18534000  0.43744000  1
  C  C5  1  0.80860000  0.64490000  0.40830000  1
  C  C6  1  0.24510000  0.62237000  0.81767000  1
  C  C7  1  0.24080000  0.71700000  0.89820000  1
  C  C8  1  0.22280000  0.60010000  0.75290000  1
  C  C9  1  0.30600000  0.11045000  0.34045000  1
  C  C10  1  0.28800000  0.75740000  0.96520000  1
  C  C11  1  0.28880000  0.27659000  0.46819000  1
  C  C12  1  0.35980000  0.09910000  0.34650000  1
  C  C13  1  0.77470000  0.12536000  0.78386000  1
  C  C14  1  0.32210000  0.66730000  0.86840000  1
  C  C15  1  0.23850000  0.74430000  0.84980000  1
  C  C16  1  0.29110000  0.14880000  0.30530000  1
  C  C17  1  0.37130000  0.22880000  0.46490000  1
  C  C18  1  0.85330000  0.75338000  0.47088000  1
  C  C19  1  0.79000000  0.22100000  0.86620000  1
  C  C20  1  0.86100000  0.67648000  0.39248000  1
  C  C21  1  0.27650000  0.62100000  0.73830000  1
  C  C22  1  0.33500000  0.82630000  0.98290000  1
  C  C23  1  0.36540000  0.32043000  0.49703000  1
  C  C24  1  0.39730000  0.12750000  0.31760000  1
  C  C25  1  0.40620000  0.29560000  0.49420000  1
  C  C26  1  0.37420000  0.68920000  0.85300000  1
  C  C27  1  0.82220000  0.19084000  0.79564000  1
  C  C28  1  0.32720000  0.17431000  0.27531000  1
  C  C29  1  0.35100000  0.66693000  0.78773000  1
  C  C30  1  0.28660000  0.81510000  0.86990000  1
  C  C31  1  0.83090000  0.24008000  0.83678000  1
  C  C32  1  0.90300000  0.78473000  0.45253000  1
  C  C33  1  0.90760000  0.74470000  0.41310000  1
  C  C34  1  0.33360000  0.85370000  0.93590000  1
  C  C35  1  0.37960000  0.16355000  0.28015000  1
  C  C36  1  0.40230000  0.39207000  0.53137000  1
  C  C37  1  0.86836000  0.20931000  0.76755000  1
  C  C38  1  0.94660000  0.85732000  0.47732000  1
  C  C39  1  0.40990000  0.69290000  0.77200000  1
  C  C40  1  0.87664000  0.31221000  0.85297000  1
  C  C41  1  0.95970000  0.76785000  0.39135000  1
  C  C42  1  0.05480000  0.47150000  0.18490000  1
  C  C43  1  0.10550000  0.49420000  0.25570000  1
  C  C44  1  0.38690000  0.92780000  0.95650000  1
  C  C45  1  0.41770000  0.19257000  0.24647000  1
  C  C46  1  0.15280000  0.62270000  0.39990000  1
  C  C47  1  0.76390000  0.53510000  0.90640000  1
  C  C48  1  0.75260000  0.65350000  0.01330000  1
  C  C49  1  0.11730000  0.65550000  0.37900000  1
  C  C50  1  0.80140000  0.50580000  0.91200000  1
  C  C51  1  0.80990000  0.68240000  0.07970000  1
  C  C52  1  0.02870000  0.45910000  0.07220000  1
  C  C53  1  0.08220000  0.47990000  0.14630000  1
  C  C54  1  0.37650000  0.60865000  0.56835000  1
  C  C55  1  0.54076000  0.56443000  0.68779000  1
  C  C56  1  0.18120000  0.52380000  0.28300000  1
  C  C57  1  0.28400000  0.60752000  0.46852000  1
  C  C58  1  0.33160000  0.58690000  0.49450000  1
  C  C59  1  0.55824000  0.65905000  0.79069000  1
  C  C60  1  0.60480000  0.63136000  0.80916000  1
  C  C61  1  0.23420000  0.54976000  0.35656000  1
  C  C62  1  0.59670000  0.59082000  0.75992000  1
  C  C63  1  0.23660000  0.59170000  0.40030000  1
  C  C64  1  0.10100000  0.15289000  0.82569000  1
  C  C65  1  0.28250000  0.52912000  0.38242000  1
  C  C66  1  0.33220000  0.54747000  0.45047000  1
  C  C67  1  0.65850000  0.64934000  0.87464000  1
  C  C68  1  0.38000000  0.52268000  0.46928000  1
  C  C69  1  0.64520000  0.56900000  0.77900000  1
  C  C70  1  0.19530000  0.62273000  0.37763000  1
  C  C71  1  0.70670000  0.62965000  0.89355000  1
  C  C72  1  0.70230000  0.58920000  0.84550000  1
  C  C73  1  0.15650000  0.14230000  0.85120000  1
  C  C74  1  0.74790000  0.56256000  0.85826000  1
  C  C75  1  0.82340000  0.50297000  0.86837000  1
  C  C76  1  0.86070000  0.46863000  0.87093000  1
  C  C77  1  0.83620000  0.14700000  0.52120000  1
  C  C78  1  0.77000000  0.65955000  0.96555000  1
  C  C79  1  0.05390000  0.22513000  0.80743000  1
  C  C80  1  0.12080000  0.68407000  0.33307000  1
  C  C81  1  0.79890000  0.13160000  0.45370000  1
  C  C82  1  0.19160000  0.01221000  0.72341000  1
  C  C83  1  0.23070000  0.04590000  0.79120000  1
  C  C84  1  0.07910000  0.71700000  0.30710000  1
  C  C85  1  0.15660000  0.50870000  0.17370000  1
  C  C86  1  0.20780000  0.53060000  0.24260000  1
  C  C87  1  0.11660000  0.21605000  0.83645000  1
  C  C88  1  0.88340000  0.71985000  0.09945000  1
  C  C89  1  0.79220000  0.03480000  0.32280000  1
  C  C90  1  0.84340000  0.01710000  0.35210000  1
  C  C91  1  0.92090000  0.22800000  0.63790000  1
  C  C92  1  0.76930000  0.56050000  0.81520000  1
  C  C93  1  0.80840000  0.53181000  0.82061000  1
  C  C94  1  0.20110000  0.65480000  0.33270000  1
  C  C95  1  0.87920000  0.21227000  0.56327000  1
  C  C96  1  0.94610000  0.75353000  0.17123000  1
  C  C97  1  0.23000000  0.19555000  0.88955000  1
  C  C98  1  0.16380000  0.68500000  0.31080000  1
  C  C99  1  0.13930000  0.01023000  0.60793000  1
  C  C100  1  0.17660000  0.04497000  0.67957000  1
  C  C101  1  0.25210000  0.11036000  0.81466000  1
  C  C102  1  0.84350000  0.69470000  0.98580000  1
  C  C103  1  0.29770000  0.14320000  0.88690000  1
  C  C104  1  0.29330000  0.18685000  0.92295000  1
  C  C105  1  0.80470000  0.18233000  0.42743000  1
  C  C106  1  0.35480000  0.13380000  0.92380000  1
  C  C107  1  0.62000000  0.08928000  0.14268000  1
  C  C108  1  0.34150000  0.21614000  0.99084000  1
  C  C109  1  0.66780000  0.11827000  0.21527000  1
  C  C110  1  0.71750000  0.09992000  0.24662000  1
  C  C111  1  0.89900000  0.72469000  0.05189000  1
  C  C112  1  0.76340000  0.16370000  0.35510000  1
  C  C113  1  0.40330000  0.16322000  0.99412000  1
  C  C114  1  0.76580000  0.12236000  0.31556000  1
  C  C115  1  0.39520000  0.20436000  0.02656000  1
  C  C116  1  0.44176000  0.23245000  0.10081000  1
  C  C117  1  0.66840000  0.16290000  0.25530000  1
  C  C118  1  0.71600000  0.18452000  0.32352000  1
  C  C119  1  0.81880000  0.10180000  0.34260000  1
  C  C120  1  0.45924000  0.14703000  0.02367000  1
  C  C121  1  0.62350000  0.19185000  0.23215000  1
  C  C122  1  0.91780000  0.06410000  0.39770000  1
  C  C123  1  0.97130000  0.04350000  0.43040000  1
  C  C124  1  0.19010000  0.26980000  0.87250000  1
  C  C125  1  0.19860000  0.11060000  0.70440000  1
  C  C126  1  0.88270000  0.26170000  0.53820000  1
  C  C127  1  0.24740000  0.26070000  0.90090000  1
  C  C128  1  0.23610000  0.14250000  0.77120000  1
  C  C129  1  0.84720000  0.24710000  0.46990000  1
  C  C130  1  0.58230000  0.82877000  0.77487000  1
  C  C131  1  0.61310000  0.56960000  0.54090000  1
  C  C132  1  0.89450000  0.15020000  0.38870000  1
  C  C133  1  0.94520000  0.13010000  0.41670000  1
  C  C134  1  0.04030000  0.43165000  0.80815000  1
  C  C135  1  0.12336000  0.97633000  0.43557000  1
  C  C136  1  0.59010000  0.36210000  0.28300000  1
  C  C137  1  0.05340000  0.53072000  0.91072000  1
  C  C138  1  0.13164000  0.89919000  0.34095000  1
  C  C139  1  0.59770000  0.12907000  0.98977000  1
  C  C140  1  0.62040000  0.90055000  0.78395000  1
  C  C141  1  0.66640000  0.60230000  0.52010000  1
  C  C142  1  0.09240000  0.50550000  0.83710000  1
  C  C143  1  0.09700000  0.54953000  0.88173000  1
  C  C144  1  0.16910000  0.00588000  0.40918000  1
  C  C145  1  0.71340000  0.58330000  0.52850000  1
  C  C146  1  0.64900000  0.43673000  0.31593000  1
  C  C147  1  0.67280000  0.94811000  0.84711000  1
  C  C148  1  0.17780000  0.97344000  0.36864000  1
  C  C149  1  0.62580000  0.47880000  0.31500000  1
  C  C150  1  0.59380000  0.08800000  0.88940000  1
  C  C151  1  0.60270000  0.92030000  0.73020000  1
  C  C152  1  0.63460000  0.13163000  0.95503000  1
  C  C153  1  0.66500000  0.64790000  0.49130000  1
  C  C154  1  0.72350000  0.46180000  0.34450000  1
  C  C155  1  0.13900000  0.53148000  0.81548000  1
  C  C156  1  0.21000000  0.07620000  0.43100000  1
  C  C157  1  0.14670000  0.61758000  0.90008000  1
  C  C158  1  0.62870000  0.09360000  0.85750000  1
  C  C159  1  0.70890000  0.01420000  0.85770000  1
  C  C160  1  0.76150000  0.61130000  0.50580000  1
  C  C161  1  0.67790000  0.54630000  0.34520000  1
  C  C162  1  0.22530000  0.00916000  0.35066000  1
  C  C163  1  0.64020000  0.98670000  0.73930000  1
  C  C164  1  0.71120000  0.17939000  0.98779000  1
  C  C165  1  0.71200000  0.67720000  0.46940000  1
  C  C166  1  0.69400000  0.03445000  0.80445000  1
  C  C167  1  0.77720000  0.53010000  0.37730000  1
  C  C168  1  0.75920000  0.65740000  0.47620000  1
  C  C169  1  0.75490000  0.57257000  0.37727000  1
  C  C170  1  0.19140000  0.59970000  0.83630000  1
  C  C171  1  0.70430000  0.14174000  0.88964000  1
  C  C172  1  0.25630000  0.11310000  0.41080000  1
  C  C173  1  0.19320000  0.64344000  0.87764000  1
  C  C174  1  0.26390000  0.07705000  0.37035000  1
  C  C175  1  0.74530000  0.18480000  0.95410000  1
  Co  Co176  1  0.88861000  0.11938000  0.69925000  1
  Co  Co177  1  0.09384000  0.88440000  0.51390000  1
  Co  Co178  1  0.57987000  0.76923000  0.88062000  1
  Co  Co179  1  0.42013000  0.30075000  0.18936000  1
  Co  Co180  1  0.90616000  0.42006000  0.79056000  1
  Co  Co181  1  0.11139000  0.81064000  0.23077000  1
  H  H182  1  0.17130000  0.57080000  0.71850000  1
  H  H183  1  0.28830000  0.73880000  0.99810000  1
  H  H184  1  0.79690000  0.21820000  0.97550000  1
  H  H185  1  0.37000000  0.07230000  0.37030000  1
  H  H186  1  0.26020000  0.29270000  0.46810000  1
  H  H187  1  0.76830000  0.09220000  0.75450000  1
  H  H188  1  0.33780000  0.68240000  0.91300000  1
  H  H189  1  0.25580000  0.15740000  0.30180000  1
  H  H190  1  0.20580000  0.71680000  0.80440000  1
  H  H191  1  0.85100000  0.78000000  0.49860000  1
  H  H192  1  0.39910000  0.21240000  0.46330000  1
  H  H193  1  0.86480000  0.64980000  0.36640000  1
  H  H194  1  0.79410000  0.25440000  0.89310000  1
  H  H195  1  0.26170000  0.60350000  0.69440000  1
  H  H196  1  0.36820000  0.85410000  0.02830000  1
  H  H197  1  0.43540000  0.12220000  0.32340000  1
  H  H198  1  0.42570000  0.71930000  0.88680000  1
  H  H199  1  0.31600000  0.20010000  0.25050000  1
  H  H200  1  0.45790000  0.32520000  0.51270000  1
  H  H201  1  0.28590000  0.83490000  0.83780000  1
  H  H202  1  0.00290000  0.45100000  0.16510000  1
  H  H203  1  0.08760000  0.48900000  0.28320000  1
  H  H204  1  0.14770000  0.60050000  0.42920000  1
  H  H205  1  0.70200000  0.62970000  0.99970000  1
  H  H206  1  0.74910000  0.53670000  0.93580000  1
  H  H207  1  0.09090000  0.65820000  0.39650000  1
  H  H208  1  0.81250000  0.48730000  0.94520000  1
  H  H209  1  0.79880000  0.67660000  0.11200000  1
  H  H210  1  0.05040000  0.11590000  0.79990000  1
  H  H211  1  0.14440000  0.09840000  0.84260000  1
  H  H212  1  0.83250000  0.11320000  0.53890000  1
  H  H213  1  0.28340000  0.63360000  0.49840000  1
  H  H214  1  0.28140000  0.50140000  0.35240000  1
  H  H215  1  0.66230000  0.67610000  0.90780000  1
  H  H216  1  0.76940000  0.08700000  0.42480000  1
  H  H217  1  0.63870000  0.53970000  0.74560000  1
  H  H218  1  0.17540000  0.96750000  0.70730000  1
  H  H219  1  0.24270000  0.02450000  0.82140000  1
  H  H220  1  0.74070000  0.00190000  0.29020000  1
  H  H221  1  0.82580000  0.97170000  0.33990000  1
  H  H222  1  0.17420000  0.51410000  0.14590000  1
  H  H223  1  0.25930000  0.54950000  0.26120000  1
  H  H224  1  0.75730000  0.57870000  0.78180000  1
  H  H225  1  0.82460000  0.53190000  0.79210000  1
  H  H226  1  0.36130000  0.10690000  0.90100000  1
  H  H227  1  0.23060000  0.65540000  0.31760000  1
  H  H228  1  0.33770000  0.24550000  0.01380000  1
  H  H229  1  0.71860000  0.07100000  0.22000000  1
  H  H230  1  0.71660000  0.21500000  0.35020000  1
  H  H231  1  0.16750000  0.70640000  0.28070000  1
  H  H232  1  0.85560000  0.69820000  0.95400000  1
  H  H233  1  0.94960000  0.74950000  0.06550000  1
  H  H234  1  0.20120000  0.31320000  0.87780000  1
  H  H235  1  0.18750000  0.13270000  0.67480000  1
  H  H236  1  0.90910000  0.30560000  0.56730000  1
  H  H237  1  0.25090000  0.18670000  0.78760000  1
  H  H238  1  0.29800000  0.29770000  0.92770000  1
  H  H239  1  0.85230000  0.28150000  0.45280000  1
  H  H240  1  0.91240000  0.19560000  0.40140000  1
  H  H241  1  0.99710000  0.16220000  0.44810000  1
  H  H242  1  0.71410000  0.55190000  0.54900000  1
  H  H243  1  0.54210000  0.05480000  0.86730000  1
  H  H244  1  0.68400000  0.93450000  0.88410000  1
  H  H245  1  0.57430000  0.46110000  0.29360000  1
  H  H246  1  0.56460000  0.88800000  0.68680000  1
  H  H247  1  0.63180000  0.66010000  0.48590000  1
  H  H248  1  0.73830000  0.43270000  0.34180000  1
  H  H249  1  0.20590000  0.09900000  0.46030000  1
  H  H250  1  0.60090000  0.06420000  0.81330000  1
  H  H251  1  0.13520000  0.50160000  0.78500000  1
  H  H252  1  0.14900000  0.64760000  0.92900000  1
  H  H253  1  0.79420000  0.59860000  0.51100000  1
  H  H254  1  0.74420000  0.04600000  0.90160000  1
  H  H255  1  0.66220000  0.57520000  0.34460000  1
  H  H256  1  0.23170000  0.98620000  0.32390000  1
  H  H257  1  0.73980000  0.20790000  0.03250000  1
  H  H258  1  0.63000000  0.00030000  0.70230000  1
  H  H259  1  0.20310000  0.17860000  0.42130000  1
  H  H260  1  0.71170000  0.70980000  0.45050000  1
  H  H261  1  0.82870000  0.54720000  0.39950000  1
  O  O262  1  0.36686000  0.40558000  0.54672000  1
  O  O263  1  0.84400000  0.16735000  0.71593000  1
  O  O264  1  0.93468000  0.88818000  0.50750000  1
  O  O265  1  0.47323000  0.52882000  0.66801000  1
  O  O266  1  0.95900000  0.42300000  0.04700000  1
  O  O267  1  0.39157000  0.66140000  0.71723000  1
  O  O268  1  0.37015000  0.56943000  0.59876000  1
  O  O269  1  0.92891000  0.74787000  0.32904000  1
  O  O270  1  0.46383000  0.43201000  0.53924000  1
  O  O271  1  0.92324000  0.34723000  0.91321000  1
  O  O272  1  0.43520000  0.95890000  0.01650000  1
  O  O273  1  0.99076000  0.17772000  0.78948000  1
  O  O274  1  0.86081000  0.33199000  0.80522000  1
  O  O275  1  0.54858000  0.67665000  0.83265000  1
  O  O276  1  0.92971000  0.26558000  0.79925000  1
  O  O277  1  0.38824000  0.21052000  0.20128000  1
  O  O278  1  0.02933000  0.80072000  0.43057000  1
  O  O279  1  0.47202000  0.74414000  0.81464000  1
  O  O280  1  0.47418000  0.19254000  0.26336000  1
  O  O281  1  0.37600000  0.95300000  0.91200000  1
  O  O282  1  0.99515000  0.88645000  0.46238000  1
  O  O283  1  0.42407000  0.53762000  0.53277000  1
  O  O284  1  0.89277000  0.46076000  0.92459000  1
  O  O285  1  0.38068000  0.49250000  0.42718000  1
  O  O286  1  0.05583000  0.73017000  0.33860000  1
  O  O287  1  0.92918000  0.73664000  0.21082000  1
  O  O288  1  0.92950000  0.18536000  0.65738000  1
  O  O289  1  0.53367000  0.66413000  0.73442000  1
  O  O290  1  0.56598000  0.57601000  0.65277000  1
  O  O291  1  0.41883000  0.67096000  0.59987000  1
  O  O292  1  0.85886000  0.45328000  0.82014000  1
  O  O293  1  0.05760000  0.47630000  0.04110000  1
  O  O294  1  0.94240000  0.98350000  0.41870000  1
  O  O295  1  0.14114000  0.96128000  0.59442000  1
  O  O296  1  0.58117000  0.18104000  0.25213000  1
  O  O297  1  0.43402000  0.08679000  0.01003000  1
  O  O298  1  0.46633000  0.20075000  0.13046000  1
  O  O299  1  0.07050000  0.72788000  0.25586000  1
  O  O300  1  0.07082000  0.28164000  0.80746000  1
  O  O301  1  0.94417000  0.28277000  0.67434000  1
  O  O302  1  0.61932000  0.04650000  0.11182000  1
  O  O303  1  0.10723000  0.03182000  0.56799000  1
  O  O304  1  0.57593000  0.10870000  0.11355000  1
  O  O305  1  0.00485000  0.46723000  0.89130000  1
  O  O306  1  0.62400000  0.53600000  0.57700000  1
  O  O307  1  0.52582000  0.78918000  0.71836000  1
  O  O308  1  0.52798000  0.34262000  0.27212000  1
  O  O309  1  0.97067000  0.40124000  0.77139000  1
  O  O310  1  0.61176000  0.81304000  0.82228000  1
  O  O311  1  0.07029000  0.86954000  0.33587000  1
  O  O312  1  0.45142000  0.28407000  0.12807000  1
  O  O313  1  0.13919000  0.94441000  0.47118000  1
  O  O314  1  0.00924000  0.79872000  0.18696000  1
  O  O315  1  0.56480000  0.58130000  0.52370000  1
  O  O316  1  0.07676000  0.98997000  0.42399000  1
  O  O317  1  0.53617000  0.07541000  0.96818000  1
  O  O318  1  0.07109000  0.40013000  0.81896000  1
  O  O319  1  0.62985000  0.22861000  0.19928000  1
  O  O320  1  0.60843000  0.32566000  0.26983000  1
  O  O321  1  0.04100000  0.08800000  0.46400000  1
  O  O322  1  0.52677000  0.19478000  0.05559000  1
  O  O323  1  0.06532000  0.57282000  0.95350000  1
  O  O324  1  0.15600000  0.87193000  0.32335000  1
  O  O325  1  0.63314000  0.17986000  0.03872000  1
  Zn  Zn326  1  0.37050000  0.48610000  0.57994000  1
  Zn  Zn327  1  0.96909000  0.44236000  0.94963000  1
  Zn  Zn328  1  0.46683000  0.69272000  0.69733000  1
  Zn  Zn329  1  0.00461000  0.77411000  0.30728000  1
  Zn  Zn330  1  0.50727000  0.52673000  0.55764000  1
  Zn  Zn331  1  0.49273000  0.05037000  0.01946000  1
  Zn  Zn332  1  0.99539000  0.30267000  0.76950000  1
  Zn  Zn333  1  0.53317000  0.23050000  0.22589000  1
  Zn  Zn334  1  0.03091000  0.98054000  0.47327000  1
  Zn  Zn335  1  0.62950000  0.20944000  0.11560000  1
