# generated using pymatgen
data_ZnH8C12SNO4
_symmetry_space_group_name_H-M   'P 1'
_cell_length_a   13.71410000
_cell_length_b   15.36780000
_cell_length_c   18.96668815
_cell_angle_alpha   113.89902813
_cell_angle_beta   110.18100135
_cell_angle_gamma   90.00000000
_symmetry_Int_Tables_number   1
_chemical_formula_structural   ZnH8C12SNO4
_chemical_formula_sum   'Zn8 H64 C96 S8 N8 O32'
_cell_volume   3384.43932067
_cell_formula_units_Z   8
loop_
 _symmetry_equiv_pos_site_id
 _symmetry_equiv_pos_as_xyz
  1  'x, y, z'
loop_
 _atom_site_type_symbol
 _atom_site_label
 _atom_site_symmetry_multiplicity
 _atom_site_fract_x
 _atom_site_fract_y
 _atom_site_fract_z
 _atom_site_occupancy
  C  C0  1  0.38310000  0.87800000  0.98720000  1
  C  C1  1  0.88310000  0.10920000  0.98720000  1
  C  C2  1  0.41120000  0.72560000  0.96700000  1
  C  C3  1  0.91120000  0.24140000  0.96700000  1
  C  C4  1  0.03030000  0.70780000  0.95020000  1
  C  C5  1  0.53030000  0.24240000  0.95020000  1
  C  C6  1  0.36700000  0.78750000  0.93320000  1
  C  C7  1  0.86700000  0.14570000  0.93320000  1
  C  C8  1  0.05560000  0.83830000  0.92980000  1
  C  C9  1  0.55560000  0.09150000  0.92980000  1
  C  C10  1  0.29960000  0.74670000  0.84020000  1
  C  C11  1  0.79960000  0.09350000  0.84020000  1
  C  C12  1  0.75780000  0.42860000  0.81960000  1
  C  C13  1  0.25780000  0.39100000  0.81960000  1
  C  C14  1  0.19270000  0.46160000  0.81680000  1
  C  C15  1  0.69270000  0.35520000  0.81680000  1
  C  C16  1  0.35870000  0.74660000  0.78960000  1
  C  C17  1  0.85870000  0.04300000  0.78960000  1
  C  C18  1  0.74560000  0.41826000  0.74092000  1
  C  C19  1  0.24560000  0.32266000  0.74092000  1
  C  C20  1  0.13130000  0.44540000  0.73700000  1
  C  C21  1  0.63130000  0.29160000  0.73700000  1
  C  C22  1  0.79870000  0.48190000  0.72020000  1
  C  C23  1  0.29870000  0.23830000  0.72020000  1
  C  C24  1  0.04840000  0.50050000  0.71160000  1
  C  C25  1  0.54840000  0.21110000  0.71160000  1
  C  C26  1  0.30420000  0.68690000  0.69740000  1
  C  C27  1  0.80420000  0.01050000  0.69740000  1
  C  C28  1  0.22760000  0.60970000  0.66520000  1
  C  C29  1  0.72760000  0.05550000  0.66520000  1
  C  C30  1  0.74200000  0.68640000  0.66200000  1
  C  C31  1  0.24200000  0.97560000  0.66200000  1
  C  C32  1  0.99200000  0.70350000  0.65260000  1
  C  C33  1  0.49200000  0.94910000  0.65260000  1
  C  C34  1  0.33110000  0.70640000  0.64140000  1
  C  C35  1  0.83110000  0.93500000  0.64140000  1
  C  C36  1  0.66170000  0.74400000  0.63720000  1
  C  C37  1  0.16170000  0.89320000  0.63720000  1
  C  C38  1  0.04770000  0.76657000  0.63194000  1
  C  C39  1  0.54770000  0.86537000  0.63194000  1
  C  C40  1  0.18260000  0.55400000  0.58040000  1
  C  C41  1  0.68260000  0.02640000  0.58040000  1
  C  C42  1  0.61280000  0.73780000  0.55880000  1
  C  C43  1  0.11280000  0.82100000  0.55880000  1
  C  C44  1  0.28410000  0.64800000  0.55740000  1
  C  C45  1  0.78410000  0.90940000  0.55740000  1
  C  C46  1  0.04860000  0.74920000  0.55620000  1
  C  C47  1  0.54860000  0.80700000  0.55620000  1
  C  C48  1  0.95140000  0.25080000  0.44380000  1
  C  C49  1  0.45140000  0.19300000  0.44380000  1
  C  C50  1  0.71590000  0.35200000  0.44260000  1
  C  C51  1  0.21590000  0.09060000  0.44260000  1
  C  C52  1  0.38720000  0.26220000  0.44120000  1
  C  C53  1  0.88720000  0.17900000  0.44120000  1
  C  C54  1  0.81740000  0.44600000  0.41960000  1
  C  C55  1  0.31740000  0.97360000  0.41960000  1
  C  C56  1  0.95230000  0.23343000  0.36806000  1
  C  C57  1  0.45230000  0.13463000  0.36806000  1
  C  C58  1  0.33830000  0.25600000  0.36280000  1
  C  C59  1  0.83830000  0.10680000  0.36280000  1
  C  C60  1  0.66890000  0.29360000  0.35860000  1
  C  C61  1  0.16890000  0.06500000  0.35860000  1
  C  C62  1  0.00800000  0.29650000  0.34740000  1
  C  C63  1  0.50800000  0.05090000  0.34740000  1
  C  C64  1  0.25800000  0.31360000  0.33800000  1
  C  C65  1  0.75800000  0.02440000  0.33800000  1
  C  C66  1  0.77240000  0.39030000  0.33480000  1
  C  C67  1  0.27240000  0.94450000  0.33480000  1
  C  C68  1  0.69580000  0.31310000  0.30260000  1
  C  C69  1  0.19580000  0.98950000  0.30260000  1
  C  C70  1  0.95160000  0.49950000  0.28840000  1
  C  C71  1  0.45160000  0.78890000  0.28840000  1
  C  C72  1  0.20130000  0.51810000  0.27980000  1
  C  C73  1  0.70130000  0.76170000  0.27980000  1
  C  C74  1  0.86870000  0.55460000  0.26300000  1
  C  C75  1  0.36870000  0.70840000  0.26300000  1
  C  C76  1  0.25440000  0.58174000  0.25908000  1
  C  C77  1  0.75440000  0.67734000  0.25908000  1
  C  C78  1  0.64130000  0.25340000  0.21040000  1
  C  C79  1  0.14130000  0.95700000  0.21040000  1
  C  C80  1  0.80730000  0.53840000  0.18320000  1
  C  C81  1  0.30730000  0.64480000  0.18320000  1
  C  C82  1  0.24220000  0.57140000  0.18040000  1
  C  C83  1  0.74220000  0.60900000  0.18040000  1
  C  C84  1  0.70040000  0.25330000  0.15980000  1
  C  C85  1  0.20040000  0.90650000  0.15980000  1
  C  C86  1  0.94440000  0.16170000  0.07020000  1
  C  C87  1  0.44440000  0.90850000  0.07020000  1
  C  C88  1  0.63300000  0.21250000  0.06680000  1
  C  C89  1  0.13300000  0.85430000  0.06680000  1
  C  C90  1  0.96970000  0.29220000  0.04980000  1
  C  C91  1  0.46970000  0.75760000  0.04980000  1
  C  C92  1  0.58880000  0.27440000  0.03300000  1
  C  C93  1  0.08880000  0.75860000  0.03300000  1
  C  C94  1  0.61690000  0.12200000  0.01280000  1
  C  C95  1  0.11690000  0.89080000  0.01280000  1
  H  H96  1  0.35220000  0.92270000  0.96880000  1
  H  H97  1  0.85220000  0.04610000  0.96880000  1
  H  H98  1  0.40080000  0.66020000  0.93220000  1
  H  H99  1  0.90080000  0.27200000  0.93220000  1
  H  H100  1  0.00430000  0.64260000  0.92880000  1
  H  H101  1  0.50430000  0.28620000  0.92880000  1
  H  H102  1  0.04700000  0.86760000  0.89420000  1
  H  H103  1  0.54700000  0.02660000  0.89420000  1
  H  H104  1  0.80370000  0.47830000  0.86880000  1
  H  H105  1  0.30370000  0.39050000  0.86880000  1
  H  H106  1  0.19160000  0.51330000  0.86380000  1
  H  H107  1  0.69160000  0.35050000  0.86380000  1
  H  H108  1  0.24370000  0.78450000  0.83180000  1
  H  H109  1  0.74370000  0.04730000  0.83180000  1
  H  H110  1  0.26700000  0.68110000  0.82120000  1
  H  H111  1  0.76700000  0.14010000  0.82120000  1
  H  H112  1  0.42410000  0.72350000  0.80840000  1
  H  H113  1  0.92410000  0.08490000  0.80840000  1
  H  H114  1  0.37660000  0.81270000  0.79940000  1
  H  H115  1  0.87660000  0.98670000  0.79940000  1
  H  H116  1  0.20560000  0.59440000  0.70060000  1
  H  H117  1  0.70560000  0.10620000  0.70060000  1
  H  H118  1  0.38150000  0.75960000  0.66040000  1
  H  H119  1  0.88150000  0.90080000  0.66040000  1
  H  H120  1  0.13030000  0.50190000  0.56020000  1
  H  H121  1  0.63030000  0.05830000  0.56020000  1
  H  H122  1  0.30450000  0.66260000  0.52100000  1
  H  H123  1  0.80450000  0.85840000  0.52100000  1
  H  H124  1  0.62170000  0.69200000  0.51200000  1
  H  H125  1  0.12170000  0.82000000  0.51200000  1
  H  H126  1  0.01020000  0.69480000  0.50760000  1
  H  H127  1  0.51020000  0.81280000  0.50760000  1
  H  H128  1  0.98980000  0.30520000  0.49240000  1
  H  H129  1  0.48980000  0.18720000  0.49240000  1
  H  H130  1  0.37830000  0.30800000  0.48800000  1
  H  H131  1  0.87830000  0.18000000  0.48800000  1
  H  H132  1  0.69550000  0.33740000  0.47900000  1
  H  H133  1  0.19550000  0.14160000  0.47900000  1
  H  H134  1  0.86970000  0.49810000  0.43980000  1
  H  H135  1  0.36970000  0.94170000  0.43980000  1
  H  H136  1  0.61850000  0.24040000  0.33960000  1
  H  H137  1  0.11850000  0.09920000  0.33960000  1
  H  H138  1  0.79440000  0.40560000  0.29940000  1
  H  H139  1  0.29440000  0.89380000  0.29940000  1
  H  H140  1  0.62340000  0.18730000  0.20060000  1
  H  H141  1  0.12340000  0.01330000  0.20060000  1
  H  H142  1  0.57590000  0.27650000  0.19160000  1
  H  H143  1  0.07590000  0.91510000  0.19160000  1
  H  H144  1  0.73300000  0.31890000  0.17880000  1
  H  H145  1  0.23300000  0.85990000  0.17880000  1
  H  H146  1  0.75630000  0.21550000  0.16820000  1
  H  H147  1  0.25630000  0.95270000  0.16820000  1
  H  H148  1  0.80840000  0.48670000  0.13620000  1
  H  H149  1  0.30840000  0.64950000  0.13620000  1
  H  H150  1  0.19630000  0.52170000  0.13120000  1
  H  H151  1  0.69630000  0.60950000  0.13120000  1
  H  H152  1  0.95300000  0.13240000  0.10580000  1
  H  H153  1  0.45300000  0.97340000  0.10580000  1
  H  H154  1  0.99570000  0.35740000  0.07120000  1
  H  H155  1  0.49570000  0.71380000  0.07120000  1
  H  H156  1  0.59920000  0.33980000  0.06780000  1
  H  H157  1  0.09920000  0.72800000  0.06780000  1
  H  H158  1  0.64780000  0.07730000  0.03120000  1
  H  H159  1  0.14780000  0.95390000  0.03120000  1
  N  N160  1  0.01020000  0.75171000  0.89902000  1
  N  N161  1  0.51020000  0.14731000  0.89902000  1
  N  N162  1  0.21060000  0.57139000  0.52578000  1
  N  N163  1  0.71060000  0.95439000  0.52578000  1
  N  N164  1  0.78940000  0.42861000  0.47422000  1
  N  N165  1  0.28940000  0.04561000  0.47422000  1
  N  N166  1  0.98980000  0.24829000  0.10098000  1
  N  N167  1  0.48980000  0.85269000  0.10098000  1
  O  O168  1  0.85310000  0.55899000  0.77858000  1
  O  O169  1  0.35310000  0.21959000  0.77858000  1
  O  O170  1  0.04740000  0.57907000  0.76654000  1
  O  O171  1  0.54740000  0.18747000  0.76654000  1
  O  O172  1  0.79740000  0.71682000  0.73864000  1
  O  O173  1  0.29740000  0.02182000  0.73864000  1
  O  O174  1  0.99480000  0.73794000  0.72648000  1
  O  O175  1  0.49480000  0.98854000  0.72648000  1
  O  O176  1  0.78510000  0.45347000  0.64514000  1
  O  O177  1  0.28510000  0.19167000  0.64514000  1
  O  O178  1  0.98700000  0.46242000  0.63664000  1
  O  O179  1  0.48700000  0.17422000  0.63664000  1
  O  O180  1  0.74980000  0.61324000  0.60448000  1
  O  O181  1  0.24980000  0.99124000  0.60448000  1
  O  O182  1  0.94630000  0.62221000  0.59622000  1
  O  O183  1  0.44630000  0.97401000  0.59622000  1
  O  O184  1  0.05370000  0.37779000  0.40378000  1
  O  O185  1  0.55370000  0.02599000  0.40378000  1
  O  O186  1  0.25020000  0.38676000  0.39552000  1
  O  O187  1  0.75020000  0.00876000  0.39552000  1
  O  O188  1  0.01300000  0.53758000  0.36336000  1
  O  O189  1  0.51300000  0.82578000  0.36336000  1
  O  O190  1  0.21490000  0.54653000  0.35486000  1
  O  O191  1  0.71490000  0.80833000  0.35486000  1
  O  O192  1  0.00520000  0.26206000  0.27352000  1
  O  O193  1  0.50520000  0.01146000  0.27352000  1
  O  O194  1  0.20260000  0.28318000  0.26136000  1
  O  O195  1  0.70260000  0.97818000  0.26136000  1
  O  O196  1  0.95260000  0.42093000  0.23346000  1
  O  O197  1  0.45260000  0.81253000  0.23346000  1
  O  O198  1  0.14690000  0.44101000  0.22142000  1
  O  O199  1  0.64690000  0.78041000  0.22142000  1
  S  S200  1  0.62813000  0.83635000  0.70860000  1
  S  S201  1  0.12813000  0.87225000  0.70860000  1
  S  S202  1  0.15445000  0.34512000  0.66526000  1
  S  S203  1  0.65445000  0.32014000  0.66526000  1
  S  S204  1  0.84555000  0.65488000  0.33474000  1
  S  S205  1  0.34555000  0.67986000  0.33474000  1
  S  S206  1  0.37187000  0.16365000  0.29140000  1
  S  S207  1  0.87187000  0.12775000  0.29140000  1
  Zn  Zn208  1  0.93416000  0.66734000  0.77606000  1
  Zn  Zn209  1  0.43416000  0.10872000  0.77606000  1
  Zn  Zn210  1  0.85513000  0.51875000  0.59708000  1
  Zn  Zn211  1  0.35513000  0.07833000  0.59708000  1
  Zn  Zn212  1  0.14487000  0.48125000  0.40292000  1
  Zn  Zn213  1  0.64487000  0.92167000  0.40292000  1
  Zn  Zn214  1  0.06584000  0.33266000  0.22394000  1
  Zn  Zn215  1  0.56584000  0.89128000  0.22394000  1
