# generated using pymatgen
data_ZnH21C31N7O6
_symmetry_space_group_name_H-M   'P 1'
_cell_length_a   17.46650000
_cell_length_b   17.74096970
_cell_length_c   18.54649273
_cell_angle_alpha   68.09353103
_cell_angle_beta   61.90829419
_cell_angle_gamma   60.51046888
_symmetry_Int_Tables_number   1
_chemical_formula_structural   ZnH21C31N7O6
_chemical_formula_sum   'Zn4 H84 C124 N28 O24'
_cell_volume   4337.82838041
_cell_formula_units_Z   4
loop_
 _symmetry_equiv_pos_site_id
 _symmetry_equiv_pos_as_xyz
  1  'x, y, z'
loop_
 _atom_site_type_symbol
 _atom_site_label
 _atom_site_symmetry_multiplicity
 _atom_site_fract_x
 _atom_site_fract_y
 _atom_site_fract_z
 _atom_site_occupancy
  C  C0  1  0.92650000  0.59580000  0.38880000  1
  C  C1  1  0.08890000  0.09580000  0.88880000  1
  C  C2  1  0.56740000  0.58940000  0.38260000  1
  C  C3  1  0.46060000  0.08940000  0.88260000  1
  C  C4  1  0.68300000  0.82220000  0.14420000  1
  C  C5  1  0.35060000  0.32220000  0.64420000  1
  C  C6  1  0.64930000  0.60820000  0.34100000  1
  C  C7  1  0.40150000  0.10820000  0.84100000  1
  C  C8  1  0.89920000  0.62110000  0.32290000  1
  C  C9  1  0.15680000  0.12110000  0.82290000  1
  C  C10  1  0.98290000  0.50910000  0.40990000  1
  C  C11  1  0.09810000  0.00910000  0.90990000  1
  C  C12  1  0.57330000  0.85850000  0.05990000  1
  C  C13  1  0.50830000  0.35850000  0.55990000  1
  C  C14  1  0.61980000  0.99890000  0.88470000  1
  C  C15  1  0.49660000  0.49890000  0.38470000  1
  C  C16  1  0.65840000  0.79120000  0.04980000  1
  C  C17  1  0.50060000  0.29120000  0.54980000  1
  C  C18  1  0.92810000  0.56230000  0.27410000  1
  C  C19  1  0.23550000  0.06230000  0.77410000  1
  C  C20  1  0.01580000  0.44810000  0.36210000  1
  C  C21  1  0.17400000  0.94810000  0.86210000  1
  C  C22  1  0.89890000  0.58760000  0.20220000  1
  C  C23  1  0.31130000  0.08760000  0.70220000  1
  C  C24  1  0.70540000  0.92140000  0.84900000  1
  C  C25  1  0.52420000  0.42140000  0.34900000  1
  C  C26  1  0.98870000  0.47680000  0.29340000  1
  C  C27  1  0.24110000  0.97680000  0.79340000  1
  C  C28  1  0.78370000  0.88880000  0.87040000  1
  C  C29  1  0.45710000  0.38880000  0.37040000  1
  C  C30  1  0.98580000  0.72190000  0.98870000  1
  C  C31  1  0.30360000  0.22190000  0.48870000  1
  C  C32  1  0.74390000  0.57360000  0.08640000  1
  C  C33  1  0.59610000  0.07360000  0.58640000  1
  C  C34  1  0.07010000  0.72760000  0.93080000  1
  C  C35  1  0.27150000  0.22760000  0.43080000  1
  C  C36  1  0.86450000  0.82120000  0.83040000  1
  C  C37  1  0.48390000  0.32120000  0.33040000  1
  C  C38  1  0.73650000  0.03080000  0.61660000  1
  C  C39  1  0.61610000  0.53080000  0.11660000  1
  C  C40  1  0.69790000  0.05000000  0.55820000  1
  C  C41  1  0.69390000  0.55000000  0.05820000  1
  C  C42  1  0.83150000  0.01300000  0.59140000  1
  C  C43  1  0.56410000  0.51300000  0.09140000  1
  C  C44  1  0.77960000  0.82670000  0.75690000  1
  C  C45  1  0.63680000  0.32670000  0.25690000  1
  C  C46  1  0.85930000  0.78710000  0.77710000  1
  C  C47  1  0.57650000  0.28710000  0.27710000  1
  C  C48  1  0.00190000  0.61810000  0.93350000  1
  C  C49  1  0.44650000  0.11810000  0.43350000  1
  C  C50  1  0.12360000  0.67320000  0.87220000  1
  C  C51  1  0.33100000  0.17320000  0.37220000  1
  C  C52  1  0.75420000  0.05150000  0.47450000  1
  C  C53  1  0.71980000  0.55150000  0.97450000  1
  C  C54  1  0.88760000  0.01470000  0.50770000  1
  C  C55  1  0.59000000  0.51470000  0.00770000  1
  C  C56  1  0.15090000  0.96630000  0.55070000  1
  C  C57  1  0.33210000  0.46630000  0.05070000  1
  C  C58  1  0.22350000  0.20300000  0.30460000  1
  C  C59  1  0.26890000  0.70300000  0.80460000  1
  C  C60  1  0.91350000  0.38140000  0.12540000  1
  C  C61  1  0.57970000  0.88140000  0.62540000  1
  C  C62  1  0.08650000  0.61860000  0.87460000  1
  C  C63  1  0.42030000  0.11860000  0.37460000  1
  C  C64  1  0.77650000  0.79700000  0.69540000  1
  C  C65  1  0.73110000  0.29700000  0.19540000  1
  C  C66  1  0.84910000  0.03370000  0.44930000  1
  C  C67  1  0.66790000  0.53370000  0.94930000  1
  C  C68  1  0.11240000  0.98530000  0.49230000  1
  C  C69  1  0.41000000  0.48530000  0.99230000  1
  C  C70  1  0.24580000  0.94850000  0.52550000  1
  C  C71  1  0.28020000  0.44850000  0.02550000  1
  C  C72  1  0.87640000  0.32680000  0.12780000  1
  C  C73  1  0.66900000  0.82680000  0.62780000  1
  C  C74  1  0.99810000  0.38190000  0.06650000  1
  C  C75  1  0.55350000  0.88190000  0.56650000  1
  C  C76  1  0.14070000  0.21290000  0.22290000  1
  C  C77  1  0.42350000  0.71290000  0.72290000  1
  C  C78  1  0.22040000  0.17330000  0.24310000  1
  C  C79  1  0.36320000  0.67330000  0.74310000  1
  C  C80  1  0.16850000  0.98700000  0.40860000  1
  C  C81  1  0.43590000  0.48700000  0.90860000  1
  C  C82  1  0.30210000  0.95000000  0.44180000  1
  C  C83  1  0.30610000  0.45000000  0.94180000  1
  C  C84  1  0.26350000  0.96920000  0.38340000  1
  C  C85  1  0.38390000  0.46920000  0.88340000  1
  C  C86  1  0.13550000  0.17880000  0.16960000  1
  C  C87  1  0.51610000  0.67880000  0.66960000  1
  C  C88  1  0.92990000  0.27240000  0.06920000  1
  C  C89  1  0.72850000  0.77240000  0.56920000  1
  C  C90  1  0.25610000  0.42640000  0.91360000  1
  C  C91  1  0.40390000  0.92640000  0.41360000  1
  C  C92  1  0.01420000  0.27810000  0.01130000  1
  C  C93  1  0.69640000  0.77810000  0.51130000  1
  C  C94  1  0.21630000  0.11120000  0.12960000  1
  C  C95  1  0.54290000  0.61120000  0.62960000  1
  C  C96  1  0.01130000  0.52320000  0.70660000  1
  C  C97  1  0.75890000  0.02320000  0.20660000  1
  C  C98  1  0.29460000  0.07860000  0.15100000  1
  C  C99  1  0.47580000  0.57860000  0.65100000  1
  C  C100  1  0.10110000  0.41240000  0.79780000  1
  C  C101  1  0.68870000  0.91240000  0.29780000  1
  C  C102  1  0.98420000  0.55190000  0.63790000  1
  C  C103  1  0.82600000  0.05190000  0.13790000  1
  C  C104  1  0.07190000  0.43770000  0.72590000  1
  C  C105  1  0.76450000  0.93770000  0.22590000  1
  C  C106  1  0.34160000  0.20880000  0.95020000  1
  C  C107  1  0.49940000  0.70880000  0.45020000  1
  C  C108  1  0.38020000  0.00110000  0.11530000  1
  C  C109  1  0.50340000  0.50110000  0.61530000  1
  C  C110  1  0.42670000  0.14150000  0.94010000  1
  C  C111  1  0.49170000  0.64150000  0.44010000  1
  C  C112  1  0.01710000  0.49090000  0.59010000  1
  C  C113  1  0.90190000  0.99090000  0.09010000  1
  C  C114  1  0.10080000  0.37890000  0.67710000  1
  C  C115  1  0.84320000  0.87890000  0.17710000  1
  C  C116  1  0.35070000  0.39180000  0.65900000  1
  C  C117  1  0.59850000  0.89180000  0.15900000  1
  C  C118  1  0.31700000  0.17780000  0.85580000  1
  C  C119  1  0.64940000  0.67780000  0.35580000  1
  C  C120  1  0.43260000  0.41060000  0.61740000  1
  C  C121  1  0.53940000  0.91060000  0.11740000  1
  C  C122  1  0.07350000  0.40420000  0.61120000  1
  C  C123  1  0.91110000  0.90420000  0.11120000  1
  H  H124  1  0.86020000  0.67930000  0.31030000  1
  H  H125  1  0.15020000  0.17930000  0.81030000  1
  H  H126  1  0.72060000  0.81000000  0.17300000  1
  H  H127  1  0.29640000  0.31000000  0.67300000  1
  H  H128  1  0.96390000  0.86320000  0.08020000  1
  H  H129  1  0.09270000  0.36320000  0.58020000  1
  H  H130  1  0.56300000  0.36960000  0.52920000  1
  H  H131  1  0.53820000  0.86960000  0.02920000  1
  H  H132  1  0.70250000  0.57360000  0.30400000  1
  H  H133  1  0.41990000  0.07360000  0.80400000  1
  H  H134  1  0.62560000  0.47960000  0.35400000  1
  H  H135  1  0.54080000  0.97960000  0.85400000  1
  H  H136  1  0.78310000  0.91060000  0.90920000  1
  H  H137  1  0.39710000  0.41060000  0.40920000  1
  H  H138  1  0.95190000  0.75740000  0.02880000  1
  H  H139  1  0.26190000  0.25740000  0.52880000  1
  H  H140  1  0.67950000  0.75670000  0.01170000  1
  H  H141  1  0.55210000  0.25670000  0.51170000  1
  H  H142  1  0.05460000  0.38980000  0.37520000  1
  H  H143  1  0.18040000  0.88980000  0.87520000  1
  H  H144  1  0.69890000  0.02990000  0.67250000  1
  H  H145  1  0.59870000  0.52990000  0.17250000  1
  H  H146  1  0.09050000  0.76680000  0.93120000  1
  H  H147  1  0.21150000  0.26680000  0.43120000  1
  H  H148  1  0.01210000  0.43720000  0.25940000  1
  H  H149  1  0.29130000  0.93720000  0.75940000  1
  H  H150  1  0.92020000  0.79980000  0.83960000  1
  H  H151  1  0.44040000  0.29980000  0.33960000  1
  H  H152  1  0.85730000  0.00020000  0.63040000  1
  H  H153  1  0.51210000  0.50020000  0.13040000  1
  H  H154  1  0.77200000  0.35800000  0.22700000  1
  H  H155  1  0.64300000  0.85800000  0.72700000  1
  H  H156  1  0.88030000  0.41830000  0.16410000  1
  H  H157  1  0.53730000  0.91830000  0.66410000  1
  H  H158  1  0.11330000  0.96520000  0.60660000  1
  H  H159  1  0.31490000  0.46520000  0.10660000  1
  H  H160  1  0.97900000  0.58040000  0.93380000  1
  H  H161  1  0.50680000  0.08040000  0.43380000  1
  H  H162  1  0.09070000  0.26200000  0.24480000  1
  H  H163  1  0.40250000  0.76200000  0.74480000  1
  H  H164  1  0.22810000  0.43570000  0.06450000  1
  H  H165  1  0.27170000  0.93570000  0.56450000  1
  H  H166  1  0.77190000  0.56430000  0.93550000  1
  H  H167  1  0.72830000  0.06430000  0.43550000  1
  H  H168  1  0.90930000  0.73800000  0.75520000  1
  H  H169  1  0.59750000  0.23800000  0.25520000  1
  H  H170  1  0.02100000  0.41960000  0.06620000  1
  H  H171  1  0.49320000  0.91960000  0.56620000  1
  H  H172  1  0.88670000  0.03480000  0.39340000  1
  H  H173  1  0.68510000  0.53480000  0.89340000  1
  H  H174  1  0.11970000  0.58170000  0.83590000  1
  H  H175  1  0.46270000  0.08170000  0.33590000  1
  H  H176  1  0.22800000  0.64200000  0.77300000  1
  H  H177  1  0.35700000  0.14200000  0.27300000  1
  H  H178  1  0.14270000  0.99980000  0.36960000  1
  H  H179  1  0.48790000  0.49980000  0.86960000  1
  H  H180  1  0.07980000  0.20020000  0.16040000  1
  H  H181  1  0.55960000  0.70020000  0.66040000  1
  H  H182  1  0.98790000  0.56280000  0.74060000  1
  H  H183  1  0.70870000  0.06280000  0.24060000  1
  H  H184  1  0.90950000  0.23320000  0.06880000  1
  H  H185  1  0.78850000  0.73320000  0.56880000  1
  H  H186  1  0.30110000  0.97010000  0.32750000  1
  H  H187  1  0.40130000  0.47010000  0.82750000  1
  H  H188  1  0.94540000  0.61020000  0.62480000  1
  H  H189  1  0.81960000  0.11020000  0.12480000  1
  H  H190  1  0.32050000  0.24330000  0.98830000  1
  H  H191  1  0.44790000  0.74330000  0.48830000  1
  H  H192  1  0.04810000  0.24260000  0.97120000  1
  H  H193  1  0.73810000  0.74260000  0.47120000  1
  H  H194  1  0.21690000  0.08940000  0.09080000  1
  H  H195  1  0.60290000  0.58940000  0.59080000  1
  H  H196  1  0.37440000  0.52040000  0.64600000  1
  H  H197  1  0.45920000  0.02040000  0.14600000  1
  H  H198  1  0.29750000  0.42640000  0.69600000  1
  H  H199  1  0.58010000  0.92640000  0.19600000  1
  H  H200  1  0.43700000  0.63040000  0.47080000  1
  H  H201  1  0.46180000  0.13040000  0.97080000  1
  H  H202  1  0.03610000  0.13680000  0.91980000  1
  H  H203  1  0.90730000  0.63680000  0.41980000  1
  H  H204  1  0.27940000  0.19000000  0.82700000  1
  H  H205  1  0.70360000  0.69000000  0.32700000  1
  H  H206  1  0.13980000  0.32070000  0.68970000  1
  H  H207  1  0.84980000  0.82070000  0.18970000  1
  N  N208  1  0.01850000  0.47280000  0.47760000  1
  N  N209  1  0.03110000  0.97280000  0.97760000  1
  N  N210  1  0.57080000  0.51990000  0.36290000  1
  N  N211  1  0.54640000  0.01990000  0.86290000  1
  N  N212  1  0.71537000  0.76996000  0.09050000  1
  N  N213  1  0.42417000  0.26996000  0.59050000  1
  N  N214  1  0.70170000  0.89110000  0.79530000  1
  N  N215  1  0.61190000  0.39110000  0.29530000  1
  N  N216  1  0.94940000  0.67070000  0.99190000  1
  N  N217  1  0.38800000  0.17070000  0.49190000  1
  N  N218  1  0.01340000  0.00250000  0.52010000  1
  N  N219  1  0.46400000  0.50250000  0.02010000  1
  N  N220  1  0.78880000  0.33150000  0.18890000  1
  N  N221  1  0.69080000  0.83150000  0.68890000  1
  N  N222  1  0.21120000  0.66850000  0.81110000  1
  N  N223  1  0.30920000  0.16850000  0.31110000  1
  N  N224  1  0.98660000  0.99750000  0.47990000  1
  N  N225  1  0.53600000  0.49750000  0.97990000  1
  N  N226  1  0.05060000  0.32930000  0.00810000  1
  N  N227  1  0.61200000  0.82930000  0.50810000  1
  N  N228  1  0.29830000  0.10890000  0.20470000  1
  N  N229  1  0.38810000  0.60890000  0.70470000  1
  N  N230  1  0.28463000  0.23004000  0.90950000  1
  N  N231  1  0.57583000  0.73004000  0.40950000  1
  N  N232  1  0.42920000  0.48010000  0.63710000  1
  N  N233  1  0.45360000  0.98010000  0.13710000  1
  N  N234  1  0.98150000  0.52720000  0.52240000  1
  N  N235  1  0.96890000  0.02720000  0.02240000  1
  O  O236  1  0.62080000  0.03630000  0.92730000  1
  O  O237  1  0.41560000  0.53630000  0.42730000  1
  O  O238  1  0.84793000  0.66754000  0.18460000  1
  O  O239  1  0.29993000  0.16754000  0.68460000  1
  O  O240  1  0.71880000  0.57330000  0.16130000  1
  O  O241  1  0.54660000  0.07330000  0.66130000  1
  O  O242  1  0.92900000  0.53370000  0.15790000  1
  O  O243  1  0.37940000  0.03370000  0.65790000  1
  O  O244  1  0.80840000  0.59560000  0.03120000  1
  O  O245  1  0.56480000  0.09560000  0.53120000  1
  O  O246  1  0.14940000  0.24770000  0.35510000  1
  O  O247  1  0.24780000  0.74770000  0.85510000  1
  O  O248  1  0.85060000  0.75230000  0.64490000  1
  O  O249  1  0.75220000  0.25230000  0.14490000  1
  O  O250  1  0.19160000  0.40440000  0.96880000  1
  O  O251  1  0.43520000  0.90440000  0.46880000  1
  O  O252  1  0.07100000  0.46630000  0.84210000  1
  O  O253  1  0.62060000  0.96630000  0.34210000  1
  O  O254  1  0.28120000  0.42670000  0.83870000  1
  O  O255  1  0.45340000  0.92670000  0.33870000  1
  O  O256  1  0.15207000  0.33246000  0.81540000  1
  O  O257  1  0.70007000  0.83246000  0.31540000  1
  O  O258  1  0.37920000  0.96370000  0.07270000  1
  O  O259  1  0.58440000  0.46370000  0.57270000  1
  Zn  Zn260  1  0.83325000  0.65404000  0.08608000  1
  Zn  Zn261  1  0.42663000  0.15404000  0.58608000  1
  Zn  Zn262  1  0.16675000  0.34596000  0.91392000  1
  Zn  Zn263  1  0.57337000  0.84596000  0.41392000  1
