# generated using pymatgen
data_AgH8C11N2O
_symmetry_space_group_name_H-M   'P 1'
_cell_length_a   8.36430000
_cell_length_b   19.84389904
_cell_length_c   19.84389904
_cell_angle_alpha   118.05954652
_cell_angle_beta   98.07687398
_cell_angle_gamma   98.07687398
_symmetry_Int_Tables_number   1
_chemical_formula_structural   AgH8C11N2O
_chemical_formula_sum   'Ag6 H48 C66 N12 O6'
_cell_volume   2796.11622131
_cell_formula_units_Z   6
loop_
 _symmetry_equiv_pos_site_id
 _symmetry_equiv_pos_as_xyz
  1  'x, y, z'
loop_
 _atom_site_type_symbol
 _atom_site_label
 _atom_site_symmetry_multiplicity
 _atom_site_fract_x
 _atom_site_fract_y
 _atom_site_fract_z
 _atom_site_occupancy
  Ag  Ag0  1  0.18600000  0.53137333  0.50631667  1
  Ag  Ag1  1  0.65462667  0.97494333  0.46862667  1
  Ag  Ag2  1  0.32031667  0.50631667  0.97494333  1
  Ag  Ag3  1  0.67968333  0.49368333  0.02505667  1
  Ag  Ag4  1  0.34537333  0.02505667  0.53137333  1
  Ag  Ag5  1  0.81400000  0.46862667  0.49368333  1
  C  C6  1  0.22030000  0.77409000  0.22921000  1
  C  C7  1  0.43104000  0.40295000  0.60687000  1
  C  C8  1  0.76825000  0.31927000  0.71808000  1
  C  C9  1  0.29007000  0.75673000  0.28518000  1
  C  C10  1  0.34784000  0.45325000  0.59527000  1
  C  C11  1  0.44898000  0.39881000  0.68073000  1
  C  C12  1  0.27864000  0.84888000  0.24064000  1
  C  C13  1  0.50676000  0.64955000  0.45433000  1
  C  C14  1  0.06432000  0.65027000  0.46449000  1
  C  C15  1  0.94983000  0.71808000  0.39881000  1
  C  C16  1  0.61465000  0.59581000  0.53054000  1
  C  C17  1  0.85721000  0.80478000  0.35045000  1
  C  C18  1  0.41405000  0.81422000  0.34973000  1
  C  C19  1  0.52793000  0.64738000  0.52331000  1
  C  C20  1  0.00489000  0.71482000  0.47155000  1
  C  C21  1  0.82417000  0.39313000  0.79608000  1
  C  C22  1  0.97191000  0.79608000  0.40295000  1
  C  C23  1  0.40306889  0.90250000  0.30657000  1
  C  C24  1  0.46666000  0.47155000  0.75673000  1
  C  C25  1  0.88055000  0.87593000  0.35262000  1
  C  C26  1  0.94757000  0.45433000  0.80478000  1
  C  C27  1  0.75257000  0.40473000  0.85798000  1
  C  C28  1  0.40017000  0.46449000  0.81422000  1
  C  C29  1  0.09649889  0.69343000  0.59593000  1
  C  C30  1  0.10541000  0.85798000  0.45325000  1
  C  C31  1  0.99109000  0.77079000  0.54488000  1
  C  C32  1  0.55379000  0.54488000  0.77409000  1
  C  C33  1  0.01884000  0.93473000  0.40419000  1
  C  C34  1  0.03800000  0.75936000  0.60824000  1
  C  C35  1  0.99538000  0.52331000  0.87593000  1
  C  C36  1  0.57024000  0.60824000  0.84888000  1
  C  C37  1  0.91589000  0.53054000  0.93473000  1
  C  C38  1  0.49943222  0.59593000  0.90250000  1
  C  C39  1  0.50056889  0.40407000  0.09750000  1
  C  C40  1  0.08411000  0.46946000  0.06527000  1
  C  C41  1  0.42976000  0.39176000  0.15112000  1
  C  C42  1  0.00462000  0.47669000  0.12407000  1
  C  C43  1  0.96200000  0.24064000  0.39176000  1
  C  C44  1  0.98116000  0.06527000  0.59581000  1
  C  C45  1  0.44621000  0.45512000  0.22591000  1
  C  C46  1  0.00891000  0.22921000  0.45512000  1
  C  C47  1  0.89459000  0.14202000  0.54675000  1
  C  C48  1  0.90350222  0.30657000  0.40407000  1
  C  C49  1  0.59983000  0.53551000  0.18578000  1
  C  C50  1  0.24743000  0.59527000  0.14202000  1
  C  C51  1  0.05243000  0.54567000  0.19522000  1
  C  C52  1  0.11945000  0.12407000  0.64738000  1
  C  C53  1  0.53334000  0.52845000  0.24327000  1
  C  C54  1  0.59693222  0.09750000  0.69343000  1
  C  C55  1  0.02809000  0.20392000  0.59705000  1
  C  C56  1  0.17583000  0.60687000  0.20392000  1
  C  C57  1  0.99511000  0.28518000  0.52845000  1
  C  C58  1  0.47207000  0.35262000  0.47669000  1
  C  C59  1  0.58595000  0.18578000  0.65027000  1
  C  C60  1  0.14279000  0.19522000  0.64955000  1
  C  C61  1  0.38535000  0.40419000  0.46946000  1
  C  C62  1  0.05017000  0.28192000  0.60119000  1
  C  C63  1  0.93568000  0.34973000  0.53551000  1
  C  C64  1  0.49324000  0.35045000  0.54567000  1
  C  C65  1  0.72136000  0.15112000  0.75936000  1
  C  C66  1  0.55102000  0.60119000  0.31927000  1
  C  C67  1  0.65216000  0.54675000  0.40473000  1
  C  C68  1  0.70993000  0.24327000  0.71482000  1
  C  C69  1  0.23175000  0.68073000  0.28192000  1
  C  C70  1  0.56896000  0.59705000  0.39313000  1
  C  C71  1  0.77970000  0.22591000  0.77079000  1
  H  H72  1  0.07240000  0.61190000  0.41400000  1
  H  H73  1  0.23360000  0.86310000  0.20380000  1
  H  H74  1  0.76560000  0.76260000  0.31430000  1
  H  H75  1  0.86470000  0.26390000  0.81560000  1
  H  H76  1  0.30740000  0.48920000  0.63720000  1
  H  H77  1  0.45130000  0.68570000  0.44830000  1
  H  H78  1  0.63000000  0.59520000  0.57870000  1
  H  H79  1  0.46050000  0.80210000  0.38810000  1
  H  H80  1  0.80310000  0.88450000  0.31930000  1
  H  H81  1  0.99700000  0.44830000  0.76260000  1
  H  H82  1  0.67020000  0.36280000  0.85200000  1
  H  H83  1  0.34160000  0.41400000  0.80210000  1
  H  H84  1  0.48380000  0.68070000  0.56520000  1
  H  H85  1  0.44200000  0.95340000  0.31390000  1
  H  H86  1  0.60080000  0.55170000  0.73610000  1
  H  H87  1  0.12810000  0.68610000  0.63950000  1
  H  H88  1  0.18180000  0.85200000  0.48920000  1
  H  H89  1  0.95090000  0.81560000  0.55170000  1
  H  H90  1  0.03480000  0.98350000  0.40480000  1
  H  H91  1  0.48860000  0.36050000  0.04660000  1
  H  H92  1  0.05130000  0.42130000  0.01650000  1
  H  H93  1  0.08140000  0.56520000  0.88450000  1
  H  H94  1  0.02980000  0.79620000  0.65930000  1
  H  H95  1  0.37050000  0.34070000  0.13690000  1
  H  H96  1  0.62950000  0.65930000  0.86310000  1
  H  H97  1  0.97020000  0.20380000  0.34070000  1
  H  H98  1  0.91860000  0.43480000  0.11550000  1
  H  H99  1  0.94870000  0.57870000  0.98350000  1
  H  H100  1  0.51140000  0.63950000  0.95340000  1
  H  H101  1  0.96520000  0.01650000  0.59520000  1
  H  H102  1  0.04910000  0.18440000  0.44830000  1
  H  H103  1  0.81820000  0.14800000  0.51080000  1
  H  H104  1  0.87190000  0.31390000  0.36050000  1
  H  H105  1  0.39920000  0.44830000  0.26390000  1
  H  H106  1  0.55800000  0.04660000  0.68610000  1
  H  H107  1  0.51620000  0.31930000  0.43480000  1
  H  H108  1  0.65840000  0.58600000  0.19790000  1
  H  H109  1  0.32980000  0.63720000  0.14800000  1
  H  H110  1  0.00300000  0.55170000  0.23740000  1
  H  H111  1  0.19690000  0.11550000  0.68070000  1
  H  H112  1  0.53950000  0.19790000  0.61190000  1
  H  H113  1  0.37000000  0.40480000  0.42130000  1
  H  H114  1  0.54870000  0.31430000  0.55170000  1
  H  H115  1  0.69260000  0.51080000  0.36280000  1
  H  H116  1  0.13530000  0.73610000  0.18440000  1
  H  H117  1  0.23440000  0.23740000  0.68570000  1
  H  H118  1  0.76640000  0.13690000  0.79620000  1
  H  H119  1  0.92760000  0.38810000  0.58600000  1
  N  N120  1  0.67837000  0.54657000  0.47334000  1
  N  N121  1  0.11046000  0.63991000  0.52537000  1
  N  N122  1  0.47055000  0.88546000  0.36009000  1
  N  N123  1  0.13180000  0.92677000  0.45343000  1
  N  N124  1  0.79497000  0.47334000  0.92677000  1
  N  N125  1  0.41491000  0.52537000  0.88546000  1
  N  N126  1  0.58509000  0.47463000  0.11454000  1
  N  N127  1  0.20503000  0.52666000  0.07323000  1
  N  N128  1  0.86820000  0.07323000  0.54657000  1
  N  N129  1  0.52945000  0.11454000  0.63991000  1
  N  N130  1  0.88954000  0.36009000  0.47463000  1
  N  N131  1  0.32163000  0.45343000  0.52666000  1
  O  O132  1  0.11461000  0.34213000  0.66290000  1
  O  O133  1  0.45171000  0.33710000  0.67923000  1
  O  O134  1  0.22752000  0.67923000  0.34213000  1
  O  O135  1  0.77248000  0.32077000  0.65787000  1
  O  O136  1  0.54829000  0.66290000  0.32077000  1
  O  O137  1  0.88539000  0.65787000  0.33710000  1
