# generated using pymatgen
data_EuH6(C2O)8
_symmetry_space_group_name_H-M   'P 1'
_cell_length_a   11.66000000
_cell_length_b   12.24500000
_cell_length_c   13.56800000
_cell_angle_alpha   64.88000000
_cell_angle_beta   68.25000000
_cell_angle_gamma   88.14000000
_symmetry_Int_Tables_number   1
_chemical_formula_structural   EuH6(C2O)8
_chemical_formula_sum   'Eu3 H18 C48 O24'
_cell_volume   1611.05614230
_cell_formula_units_Z   3
loop_
 _symmetry_equiv_pos_site_id
 _symmetry_equiv_pos_as_xyz
  1  'x, y, z'
loop_
 _atom_site_type_symbol
 _atom_site_label
 _atom_site_symmetry_multiplicity
 _atom_site_fract_x
 _atom_site_fract_y
 _atom_site_fract_z
 _atom_site_occupancy
  Eu  Eu0  1  0.00000000  0.00000000  0.00000000  1
  Eu  Eu1  1  0.07117000  0.17060000  0.17231000  1
  Eu  Eu2  1  0.92883000  0.82940000  0.82769000  1
  H  H3  1  0.00320000  0.37600000  0.67550000  1
  H  H4  1  0.00950000  0.44570000  0.35860000  1
  H  H5  1  0.01070000  0.10230000  0.58500000  1
  H  H6  1  0.13660000  0.50760000  0.04720000  1
  H  H7  1  0.22540000  0.83000000  0.03150000  1
  H  H8  1  0.25480000  0.86800000  0.17770000  1
  H  H9  1  0.39970000  0.54590000  0.16020000  1
  H  H10  1  0.42150000  0.99590000  0.85160000  1
  H  H11  1  0.43570000  0.27880000  0.92620000  1
  H  H12  1  0.56430000  0.72120000  0.07380000  1
  H  H13  1  0.57850000  0.00410000  0.14840000  1
  H  H14  1  0.60030000  0.45410000  0.83980000  1
  H  H15  1  0.74520000  0.13200000  0.82230000  1
  H  H16  1  0.77460000  0.17000000  0.96850000  1
  H  H17  1  0.86340000  0.49240000  0.95280000  1
  H  H18  1  0.98930000  0.89770000  0.41500000  1
  H  H19  1  0.99050000  0.55430000  0.64140000  1
  H  H20  1  0.99680000  0.62400000  0.32450000  1
  C  C21  1  0.00270000  0.43480000  0.51350000  1
  C  C22  1  0.00390000  0.34980000  0.62020000  1
  C  C23  1  0.00620000  0.22640000  0.64820000  1
  C  C24  1  0.00680000  0.14400000  0.76630000  1
  C  C25  1  0.00830000  0.39120000  0.43210000  1
  C  C26  1  0.00980000  0.18440000  0.56700000  1
  C  C27  1  0.01200000  0.26920000  0.45760000  1
  C  C28  1  0.02340000  0.22930000  0.36360000  1
  C  C29  1  0.07890000  0.73140000  0.97080000  1
  C  C30  1  0.16690000  0.67690000  0.03020000  1
  C  C31  1  0.18380000  0.55620000  0.05990000  1
  C  C32  1  0.23650000  0.74890000  0.05120000  1
  C  C33  1  0.26770000  0.12640000  0.93560000  1
  C  C34  1  0.27060000  0.50680000  0.10840000  1
  C  C35  1  0.28920000  0.37700000  0.13450000  1
  C  C36  1  0.32300000  0.70040000  0.10160000  1
  C  C37  1  0.34000000  0.86690000  0.15820000  1
  C  C38  1  0.34100000  0.57850000  0.12880000  1
  C  C39  1  0.34670000  0.05190000  0.19130000  1
  C  C40  1  0.39610000  0.78070000  0.12090000  1
  C  C41  1  0.40810000  0.13870000  0.89330000  1
  C  C42  1  0.40830000  0.95050000  0.16680000  1
  C  C43  1  0.46710000  0.05170000  0.85800000  1
  C  C44  1  0.47540000  0.22120000  0.90330000  1
  C  C45  1  0.52460000  0.77880000  0.09670000  1
  C  C46  1  0.53290000  0.94830000  0.14200000  1
  C  C47  1  0.59170000  0.04950000  0.83320000  1
  C  C48  1  0.59190000  0.86130000  0.10670000  1
  C  C49  1  0.60390000  0.21930000  0.87910000  1
  C  C50  1  0.65330000  0.94810000  0.80870000  1
  C  C51  1  0.65900000  0.42150000  0.87120000  1
  C  C52  1  0.66000000  0.13310000  0.84180000  1
  C  C53  1  0.67700000  0.29960000  0.89840000  1
  C  C54  1  0.71080000  0.62300000  0.86550000  1
  C  C55  1  0.72940000  0.49320000  0.89160000  1
  C  C56  1  0.73230000  0.87360000  0.06440000  1
  C  C57  1  0.76350000  0.25110000  0.94880000  1
  C  C58  1  0.81620000  0.44380000  0.94010000  1
  C  C59  1  0.83310000  0.32310000  0.96980000  1
  C  C60  1  0.92110000  0.26860000  0.02920000  1
  C  C61  1  0.97660000  0.77070000  0.63640000  1
  C  C62  1  0.98800000  0.73080000  0.54240000  1
  C  C63  1  0.99020000  0.81560000  0.43300000  1
  C  C64  1  0.99170000  0.60880000  0.56790000  1
  C  C65  1  0.99320000  0.85600000  0.23370000  1
  C  C66  1  0.99380000  0.77360000  0.35180000  1
  C  C67  1  0.99610000  0.65020000  0.37980000  1
  C  C68  1  0.99730000  0.56520000  0.48650000  1
  O  O69  1  0.00130000  0.69960000  0.72340000  1
  O  O70  1  0.02330000  0.66870000  0.94510000  1
  O  O71  1  0.02810000  0.97010000  0.18630000  1
  O  O72  1  0.04100000  0.18890000  0.81960000  1
  O  O73  1  0.05930000  0.12870000  0.37140000  1
  O  O74  1  0.06570000  0.84270000  0.94410000  1
  O  O75  1  0.21000000  0.19360000  0.97990000  1
  O  O76  1  0.21480000  0.04650000  0.92490000  1
  O  O77  1  0.23400000  0.05550000  0.20830000  1
  O  O78  1  0.23720000  0.32360000  0.09760000  1
  O  O79  1  0.35660000  0.32770000  0.19140000  1
  O  O80  1  0.41870000  0.13040000  0.19110000  1
  O  O81  1  0.58130000  0.86960000  0.80890000  1
  O  O82  1  0.64340000  0.67230000  0.80860000  1
  O  O83  1  0.76280000  0.67640000  0.90240000  1
  O  O84  1  0.76600000  0.94450000  0.79170000  1
  O  O85  1  0.78520000  0.95350000  0.07510000  1
  O  O86  1  0.79000000  0.80640000  0.02010000  1
  O  O87  1  0.93430000  0.15730000  0.05590000  1
  O  O88  1  0.94070000  0.87130000  0.62860000  1
  O  O89  1  0.95900000  0.81110000  0.18040000  1
  O  O90  1  0.97190000  0.02990000  0.81370000  1
  O  O91  1  0.97670000  0.33130000  0.05490000  1
  O  O92  1  0.99870000  0.30040000  0.27660000  1
