# generated using pymatgen
data_CdPHCO6
_symmetry_space_group_name_H-M   'P 1'
_cell_length_a   5.63390000
_cell_length_b   9.61830000
_cell_length_c   15.94280000
_cell_angle_alpha   90.00000000
_cell_angle_beta   90.00000000
_cell_angle_gamma   91.11560000
_symmetry_Int_Tables_number   1
_chemical_formula_structural   CdPHCO6
_chemical_formula_sum   'Cd4 P4 H4 C4 O24'
_cell_volume   863.75330433
_cell_formula_units_Z   4
loop_
 _symmetry_equiv_pos_site_id
 _symmetry_equiv_pos_as_xyz
  1  'x, y, z'
loop_
 _atom_site_type_symbol
 _atom_site_label
 _atom_site_symmetry_multiplicity
 _atom_site_fract_x
 _atom_site_fract_y
 _atom_site_fract_z
 _atom_site_occupancy
  Cd  Cd0  1  0.79808000  0.43741000  0.16825000  1
  Cd  Cd1  1  0.70192000  0.06259000  0.66825000  1
  Cd  Cd2  1  0.29808000  0.93741000  0.33175000  1
  Cd  Cd3  1  0.20192000  0.56259000  0.83175000  1
  P  P4  1  0.80750000  0.15010000  0.30397000  1
  P  P5  1  0.69250000  0.34990000  0.80397000  1
  P  P6  1  0.30750000  0.65010000  0.19603000  1
  P  P7  1  0.19250000  0.84990000  0.69603000  1
  H  H8  1  0.94800000  0.14340000  0.42040000  1
  H  H9  1  0.55200000  0.35660000  0.92040000  1
  H  H10  1  0.44800000  0.64340000  0.07960000  1
  H  H11  1  0.05200000  0.85660000  0.57960000  1
  C  C12  1  0.90760000  0.55890000  0.99390000  1
  C  C13  1  0.59240000  0.94110000  0.49390000  1
  C  C14  1  0.40760000  0.05890000  0.50610000  1
  C  C15  1  0.09240000  0.44110000  0.00610000  1
  O  O16  1  0.99210000  0.04840000  0.27560000  1
  O  O17  1  0.94380000  0.39260000  0.78040000  1
  O  O18  1  0.92410000  0.63160000  0.92880000  1
  O  O19  1  0.86380000  0.29730000  0.27380000  1
  O  O20  1  0.81310000  0.15790000  0.40370000  1
  O  O21  1  0.75430000  0.57200000  0.04970000  1
  O  O22  1  0.74570000  0.92800000  0.54970000  1
  O  O23  1  0.68690000  0.34210000  0.90370000  1
  O  O24  1  0.63620000  0.20270000  0.77380000  1
  O  O25  1  0.57590000  0.86840000  0.42880000  1
  O  O26  1  0.55620000  0.10740000  0.28040000  1
  O  O27  1  0.50790000  0.45160000  0.77560000  1
  O  O28  1  0.49210000  0.54840000  0.22440000  1
  O  O29  1  0.44380000  0.89260000  0.71960000  1
  O  O30  1  0.42410000  0.13160000  0.57120000  1
  O  O31  1  0.36380000  0.79730000  0.22620000  1
  O  O32  1  0.31310000  0.65790000  0.09630000  1
  O  O33  1  0.25430000  0.07200000  0.45030000  1
  O  O34  1  0.24570000  0.42800000  0.95030000  1
  O  O35  1  0.18690000  0.84210000  0.59630000  1
  O  O36  1  0.13620000  0.70270000  0.72620000  1
  O  O37  1  0.07590000  0.36840000  0.07120000  1
  O  O38  1  0.05620000  0.60740000  0.21960000  1
  O  O39  1  0.00790000  0.95160000  0.72440000  1
