# generated using pymatgen
data_CuH3(CO2)3
_symmetry_space_group_name_H-M   'P 1'
_cell_length_a   7.33380000
_cell_length_b   7.33380000
_cell_length_c   24.41000000
_cell_angle_alpha   90.00000000
_cell_angle_beta   90.00000000
_cell_angle_gamma   120.00000000
_symmetry_Int_Tables_number   1
_chemical_formula_structural   CuH3(CO2)3
_chemical_formula_sum   'Cu6 H18 C18 O36'
_cell_volume   1136.98971302
_cell_formula_units_Z   6
loop_
 _symmetry_equiv_pos_site_id
 _symmetry_equiv_pos_as_xyz
  1  'x, y, z'
loop_
 _atom_site_type_symbol
 _atom_site_label
 _atom_site_symmetry_multiplicity
 _atom_site_fract_x
 _atom_site_fract_y
 _atom_site_fract_z
 _atom_site_occupancy
  Cu  Cu0  1  0.68199000  0.31801000  0.25000000  1
  Cu  Cu1  1  0.68199000  0.36398000  0.58333000  1
  Cu  Cu2  1  0.63602000  0.31801000  0.91667000  1
  Cu  Cu3  1  0.36398000  0.68199000  0.41667000  1
  Cu  Cu4  1  0.31801000  0.63602000  0.08333000  1
  Cu  Cu5  1  0.31801000  0.68199000  0.75000000  1
  H  H6  1  1.00000000  0.60080000  0.66666667  1
  H  H7  1  0.97010000  0.44070000  0.83183000  1
  H  H8  1  0.97010000  0.52940000  0.00150000  1
  H  H9  1  0.60080000  0.60080000  0.50000000  1
  H  H10  1  0.60080000  1.00000000  0.33333333  1
  H  H11  1  0.55930000  0.02990000  0.66817000  1
  H  H12  1  0.55930000  0.52940000  0.16517000  1
  H  H13  1  0.52940000  0.55930000  0.83483000  1
  H  H14  1  0.52940000  0.97010000  0.99850000  1
  H  H15  1  0.47060000  0.02990000  0.49850000  1
  H  H16  1  0.47060000  0.44070000  0.33483000  1
  H  H17  1  0.44070000  0.47060000  0.66517000  1
  H  H18  1  0.44070000  0.97010000  0.16817000  1
  H  H19  1  0.39920000  0.39920000  0.00000000  1
  H  H20  1  0.39920000  1.00000000  0.83333000  1
  H  H21  1  0.02990000  0.47060000  0.50150000  1
  H  H22  1  0.02990000  0.55930000  0.33183000  1
  H  H23  1  1.00000000  0.39920000  0.16667000  1
  C  C24  1  1.00000000  0.47400000  0.66666667  1
  C  C25  1  0.96830000  0.40180000  0.00070000  1
  C  C26  1  0.96830000  0.56650000  0.83263000  1
  C  C27  1  0.59820000  0.03170000  0.49930000  1
  C  C28  1  0.59820000  0.56650000  0.33403000  1
  C  C29  1  0.56650000  0.59820000  0.66597000  1
  C  C30  1  0.56650000  0.96830000  0.16737000  1
  C  C31  1  0.52600000  0.52600000  1.00000000  1
  C  C32  1  0.52600000  0.00000000  0.83333000  1
  C  C33  1  0.47400000  0.47400000  0.50000000  1
  C  C34  1  0.47400000  1.00000000  0.33333333  1
  C  C35  1  0.43350000  0.03170000  0.66737000  1
  C  C36  1  0.43350000  0.40180000  0.16597000  1
  C  C37  1  0.40180000  0.43350000  0.83403000  1
  C  C38  1  0.40180000  0.96830000  0.99930000  1
  C  C39  1  0.03170000  0.43350000  0.33263000  1
  C  C40  1  0.03170000  0.59820000  0.50070000  1
  C  C41  1  1.00000000  0.52600000  0.16667000  1
  O  O42  1  0.92000000  0.29950000  0.29793000  1
  O  O43  1  0.92000000  0.62050000  0.53540000  1
  O  O44  1  0.88620000  0.33720000  0.63230000  1
  O  O45  1  0.88620000  0.54900000  0.20103000  1
  O  O46  1  0.85740000  0.27750000  0.96610000  1
  O  O47  1  0.85740000  0.57990000  0.86723000  1
  O  O48  1  0.72250000  0.14260000  0.53390000  1
  O  O49  1  0.72250000  0.57990000  0.29943000  1
  O  O50  1  0.70050000  0.08000000  0.20207000  1
  O  O51  1  0.70050000  0.62050000  0.63127000  1
  O  O52  1  0.66280000  0.11380000  0.86770000  1
  O  O53  1  0.66280000  0.54900000  0.96563000  1
  O  O54  1  0.62050000  0.70050000  0.36873000  1
  O  O55  1  0.62050000  0.92000000  0.46460000  1
  O  O56  1  0.57990000  0.72250000  0.70057000  1
  O  O57  1  0.57990000  0.85740000  0.13277000  1
  O  O58  1  0.54900000  0.66280000  0.03437000  1
  O  O59  1  0.54900000  0.88620000  0.79897000  1
  O  O60  1  0.45100000  0.11380000  0.29897000  1
  O  O61  1  0.45100000  0.33720000  0.53437000  1
  O  O62  1  0.42010000  0.14260000  0.63277000  1
  O  O63  1  0.42010000  0.27750000  0.20057000  1
  O  O64  1  0.37950000  0.08000000  0.96460000  1
  O  O65  1  0.37950000  0.29950000  0.86873000  1
  O  O66  1  0.33720000  0.45100000  0.46563000  1
  O  O67  1  0.33720000  0.88620000  0.36770000  1
  O  O68  1  0.29950000  0.37950000  0.13127000  1
  O  O69  1  0.29950000  0.92000000  0.70207000  1
  O  O70  1  0.27750000  0.42010000  0.79943000  1
  O  O71  1  0.27750000  0.85740000  0.03390000  1
  O  O72  1  0.14260000  0.42010000  0.36723000  1
  O  O73  1  0.14260000  0.72250000  0.46610000  1
  O  O74  1  0.11380000  0.45100000  0.70103000  1
  O  O75  1  0.11380000  0.66280000  0.13230000  1
  O  O76  1  0.08000000  0.37950000  0.03540000  1
  O  O77  1  0.08000000  0.70050000  0.79793000  1
