# generated using pymatgen
data_EuH8(C2O)8
_symmetry_space_group_name_H-M   'P 1'
_cell_length_a   11.04600000
_cell_length_b   11.63300000
_cell_length_c   16.24600000
_cell_angle_alpha   78.69000000
_cell_angle_beta   73.81000000
_cell_angle_gamma   88.58000000
_symmetry_Int_Tables_number   1
_chemical_formula_structural   EuH8(C2O)8
_chemical_formula_sum   'Eu4 H32 C64 O32'
_cell_volume   1964.86850113
_cell_formula_units_Z   4
loop_
 _symmetry_equiv_pos_site_id
 _symmetry_equiv_pos_as_xyz
  1  'x, y, z'
loop_
 _atom_site_type_symbol
 _atom_site_label
 _atom_site_symmetry_multiplicity
 _atom_site_fract_x
 _atom_site_fract_y
 _atom_site_fract_z
 _atom_site_occupancy
  Eu  Eu0  1  0.06566000  0.06192000  0.80583000  1
  Eu  Eu1  1  0.45074000  0.44702000  0.69042000  1
  Eu  Eu2  1  0.54926000  0.55298000  0.30958000  1
  Eu  Eu3  1  0.93434000  0.93808000  0.19417000  1
  H  H4  1  0.01610000  0.27000000  0.26430000  1
  H  H5  1  0.07500000  0.97430000  0.52320000  1
  H  H6  1  0.10770000  0.64650000  0.28770000  1
  H  H7  1  0.13300000  0.88550000  0.40360000  1
  H  H8  1  0.13770000  0.58840000  0.73180000  1
  H  H9  1  0.17960000  0.72900000  0.11690000  1
  H  H10  1  0.20700000  0.73890000  0.86450000  1
  H  H11  1  0.20710000  0.31520000  0.28040000  1
  H  H12  1  0.27640000  0.73820000  0.39810000  1
  H  H13  1  0.27970000  0.18040000  0.20820000  1
  H  H14  1  0.30320000  0.76590000  0.63560000  1
  H  H15  1  0.32740000  0.58340000  0.11420000  1
  H  H16  1  0.36730000  0.91320000  0.79090000  1
  H  H17  1  0.37050000  0.84310000  0.22570000  1
  H  H18  1  0.40230000  0.50700000  0.98860000  1
  H  H19  1  0.48420000  0.23330000  0.20310000  1
  H  H20  1  0.51580000  0.76670000  0.79690000  1
  H  H21  1  0.59770000  0.49300000  0.01140000  1
  H  H22  1  0.62950000  0.15690000  0.77430000  1
  H  H23  1  0.63270000  0.08680000  0.20910000  1
  H  H24  1  0.67260000  0.41660000  0.88580000  1
  H  H25  1  0.69680000  0.23410000  0.36440000  1
  H  H26  1  0.72030000  0.81960000  0.79180000  1
  H  H27  1  0.72360000  0.26180000  0.60190000  1
  H  H28  1  0.79290000  0.68480000  0.71960000  1
  H  H29  1  0.79300000  0.26110000  0.13550000  1
  H  H30  1  0.82040000  0.27100000  0.88310000  1
  H  H31  1  0.86230000  0.41160000  0.26820000  1
  H  H32  1  0.86700000  0.11450000  0.59640000  1
  H  H33  1  0.89230000  0.35350000  0.71230000  1
  H  H34  1  0.92500000  0.02570000  0.47680000  1
  H  H35  1  0.98390000  0.73000000  0.73570000  1
  C  C36  1  0.03060000  0.45830000  0.72120000  1
  C  C37  1  0.03310000  0.34510000  0.27090000  1
  C  C38  1  0.05830000  0.56970000  0.72800000  1
  C  C39  1  0.08790000  0.84750000  0.99330000  1
  C  C40  1  0.08800000  0.57030000  0.28500000  1
  C  C41  1  0.13130000  0.36740000  0.71860000  1
  C  C42  1  0.13360000  0.91530000  0.52140000  1
  C  C43  1  0.14730000  0.37280000  0.27950000  1
  C  C44  1  0.15310000  0.94780000  0.66390000  1
  C  C45  1  0.16820000  0.86210000  0.44970000  1
  C  C46  1  0.17640000  0.48370000  0.28690000  1
  C  C47  1  0.17790000  0.98070000  0.20570000  1
  C  C48  1  0.17900000  0.74940000  0.99090000  1
  C  C49  1  0.18530000  0.88170000  0.59070000  1
  C  C50  1  0.21420000  0.70140000  0.06560000  1
  C  C51  1  0.22840000  0.70580000  0.91530000  1
  C  C52  1  0.25440000  0.77460000  0.44610000  1
  C  C53  1  0.27120000  0.79170000  0.58820000  1
  C  C54  1  0.30060000  0.61250000  0.06480000  1
  C  C55  1  0.30420000  0.51040000  0.29740000  1
  C  C56  1  0.30630000  0.00800000  0.21360000  1
  C  C57  1  0.30920000  0.74040000  0.51480000  1
  C  C58  1  0.31010000  0.61260000  0.91510000  1
  C  C59  1  0.33970000  0.12310000  0.20940000  1
  C  C60  1  0.34630000  0.56800000  0.98920000  1
  C  C61  1  0.35870000  0.55860000  0.83630000  1
  C  C62  1  0.38450000  0.14150000  0.78190000  1
  C  C63  1  0.39400000  0.92110000  0.21980000  1
  C  C64  1  0.40930000  0.64990000  0.50850000  1
  C  C65  1  0.44930000  0.93260000  0.78920000  1
  C  C66  1  0.46220000  0.15540000  0.20710000  1
  C  C67  1  0.48420000  0.04980000  0.78280000  1
  C  C68  1  0.51580000  0.95020000  0.21720000  1
  C  C69  1  0.53780000  0.84460000  0.79290000  1
  C  C70  1  0.55070000  0.06740000  0.21080000  1
  C  C71  1  0.59070000  0.35010000  0.49150000  1
  C  C72  1  0.60600000  0.07890000  0.78020000  1
  C  C73  1  0.61550000  0.85850000  0.21810000  1
  C  C74  1  0.64130000  0.44140000  0.16370000  1
  C  C75  1  0.65370000  0.43200000  0.01080000  1
  C  C76  1  0.66030000  0.87690000  0.79060000  1
  C  C77  1  0.68990000  0.38740000  0.08490000  1
  C  C78  1  0.69080000  0.25960000  0.48520000  1
  C  C79  1  0.69370000  0.99200000  0.78640000  1
  C  C80  1  0.69580000  0.48960000  0.70260000  1
  C  C81  1  0.69940000  0.38750000  0.93520000  1
  C  C82  1  0.72880000  0.20830000  0.41180000  1
  C  C83  1  0.74560000  0.22540000  0.55390000  1
  C  C84  1  0.77160000  0.29420000  0.08470000  1
  C  C85  1  0.78580000  0.29860000  0.93440000  1
  C  C86  1  0.81470000  0.11830000  0.40930000  1
  C  C87  1  0.82100000  0.25060000  0.00910000  1
  C  C88  1  0.82210000  0.01930000  0.79430000  1
  C  C89  1  0.82360000  0.51630000  0.71310000  1
  C  C90  1  0.83180000  0.13790000  0.55030000  1
  C  C91  1  0.84690000  0.05220000  0.33610000  1
  C  C92  1  0.85270000  0.62720000  0.72050000  1
  C  C93  1  0.86640000  0.08470000  0.47860000  1
  C  C94  1  0.86870000  0.63260000  0.28140000  1
  C  C95  1  0.91200000  0.42970000  0.71500000  1
  C  C96  1  0.91210000  0.15250000  0.00670000  1
  C  C97  1  0.94170000  0.43030000  0.27200000  1
  C  C98  1  0.96690000  0.65490000  0.72910000  1
  C  C99  1  0.96940000  0.54170000  0.27880000  1
  O  O100  1  0.02400000  0.86360000  0.06670000  1
  O  O101  1  0.07770000  0.90380000  0.92260000  1
  O  O102  1  0.09650000  0.26070000  0.73480000  1
  O  O103  1  0.09680000  0.04380000  0.65390000  1
  O  O104  1  0.11170000  0.06550000  0.18550000  1
  O  O105  1  0.14220000  0.87710000  0.21790000  1
  O  O106  1  0.17830000  0.90560000  0.73410000  1
  O  O107  1  0.24200000  0.40300000  0.69670000  1
  O  O108  1  0.27310000  0.10670000  0.80350000  1
  O  O109  1  0.34000000  0.60490000  0.76500000  1
  O  O110  1  0.34200000  0.61420000  0.28620000  1
  O  O111  1  0.37060000  0.42550000  0.31770000  1
  O  O112  1  0.41580000  0.46240000  0.84470000  1
  O  O113  1  0.42090000  0.24630000  0.76220000  1
  O  O114  1  0.43550000  0.60320000  0.57610000  1
  O  O115  1  0.46480000  0.63230000  0.43420000  1
  O  O116  1  0.53520000  0.36770000  0.56580000  1
  O  O117  1  0.56450000  0.39680000  0.42390000  1
  O  O118  1  0.57910000  0.75370000  0.23780000  1
  O  O119  1  0.58420000  0.53760000  0.15530000  1
  O  O120  1  0.62940000  0.57450000  0.68230000  1
  O  O121  1  0.65800000  0.38580000  0.71380000  1
  O  O122  1  0.66000000  0.39510000  0.23500000  1
  O  O123  1  0.72690000  0.89330000  0.19650000  1
  O  O124  1  0.75800000  0.59700000  0.30330000  1
  O  O125  1  0.82170000  0.09440000  0.26590000  1
  O  O126  1  0.85780000  0.12290000  0.78210000  1
  O  O127  1  0.88830000  0.93450000  0.81450000  1
  O  O128  1  0.90320000  0.95620000  0.34610000  1
  O  O129  1  0.90350000  0.73930000  0.26520000  1
  O  O130  1  0.92230000  0.09620000  0.07740000  1
  O  O131  1  0.97600000  0.13640000  0.93330000  1
