# generated using pymatgen
data_GdH18C24(NO3)2
_symmetry_space_group_name_H-M   'P 1'
_cell_length_a   10.04000000
_cell_length_b   17.78800000
_cell_length_c   19.78600000
_cell_angle_alpha   90.00000000
_cell_angle_beta   90.00000000
_cell_angle_gamma   90.00000000
_symmetry_Int_Tables_number   1
_chemical_formula_structural   GdH18C24(NO3)2
_chemical_formula_sum   'Gd4 H72 C96 N8 O24'
_cell_volume   3533.61181472
_cell_formula_units_Z   4
loop_
 _symmetry_equiv_pos_site_id
 _symmetry_equiv_pos_as_xyz
  1  'x, y, z'
loop_
 _atom_site_type_symbol
 _atom_site_label
 _atom_site_symmetry_multiplicity
 _atom_site_fract_x
 _atom_site_fract_y
 _atom_site_fract_z
 _atom_site_occupancy
  Gd  Gd0  1  0.03047000  0.75000000  0.75000000  1
  Gd  Gd1  1  0.46953000  0.25000000  0.25000000  1
  Gd  Gd2  1  0.53047000  0.75000000  0.75000000  1
  Gd  Gd3  1  0.96953000  0.25000000  0.25000000  1
  H  H4  1  0.01290000  0.72510000  0.05490000  1
  H  H5  1  0.01290000  0.77490000  0.44510000  1
  H  H6  1  0.02790000  0.24480000  0.44060000  1
  H  H7  1  0.02790000  0.25520000  0.05940000  1
  H  H8  1  0.05170000  0.06190000  0.31510000  1
  H  H9  1  0.05170000  0.43810000  0.18490000  1
  H  H10  1  0.12320000  0.50660000  0.09360000  1
  H  H11  1  0.12320000  0.99340000  0.40640000  1
  H  H12  1  0.12390000  0.63660000  0.54110000  1
  H  H13  1  0.12390000  0.86340000  0.95890000  1
  H  H14  1  0.13870000  0.16070000  0.61980000  1
  H  H15  1  0.13870000  0.33930000  0.88020000  1
  H  H16  1  0.16980000  0.61490000  0.42830000  1
  H  H17  1  0.16980000  0.88510000  0.07170000  1
  H  H18  1  0.19450000  0.56180000  0.00880000  1
  H  H19  1  0.19450000  0.93820000  0.49120000  1
  H  H20  1  0.23860000  0.12900000  0.08150000  1
  H  H21  1  0.23860000  0.37100000  0.41850000  1
  H  H22  1  0.26140000  0.62900000  0.91850000  1
  H  H23  1  0.26140000  0.87100000  0.58150000  1
  H  H24  1  0.30550000  0.06180000  0.99120000  1
  H  H25  1  0.30550000  0.43820000  0.50880000  1
  H  H26  1  0.33020000  0.11490000  0.57170000  1
  H  H27  1  0.33020000  0.38510000  0.92830000  1
  H  H28  1  0.36130000  0.66070000  0.38020000  1
  H  H29  1  0.36130000  0.83930000  0.11980000  1
  H  H30  1  0.37610000  0.13660000  0.45890000  1
  H  H31  1  0.37610000  0.36340000  0.04110000  1
  H  H32  1  0.37680000  0.00660000  0.90640000  1
  H  H33  1  0.37680000  0.49340000  0.59360000  1
  H  H34  1  0.44830000  0.56190000  0.68490000  1
  H  H35  1  0.44830000  0.93810000  0.81510000  1
  H  H36  1  0.47210000  0.74480000  0.55940000  1
  H  H37  1  0.47210000  0.75520000  0.94060000  1
  H  H38  1  0.48710000  0.22510000  0.94510000  1
  H  H39  1  0.48710000  0.27490000  0.55490000  1
  H  H40  1  0.51290000  0.72510000  0.44510000  1
  H  H41  1  0.51290000  0.77490000  0.05490000  1
  H  H42  1  0.52790000  0.24480000  0.05940000  1
  H  H43  1  0.52790000  0.25520000  0.44060000  1
  H  H44  1  0.55170000  0.06190000  0.18490000  1
  H  H45  1  0.55170000  0.43810000  0.31510000  1
  H  H46  1  0.62320000  0.50660000  0.40640000  1
  H  H47  1  0.62320000  0.99340000  0.09360000  1
  H  H48  1  0.62390000  0.63660000  0.95890000  1
  H  H49  1  0.62390000  0.86340000  0.54110000  1
  H  H50  1  0.63870000  0.16070000  0.88020000  1
  H  H51  1  0.63870000  0.33930000  0.61980000  1
  H  H52  1  0.66980000  0.61490000  0.07170000  1
  H  H53  1  0.66980000  0.88510000  0.42830000  1
  H  H54  1  0.69450000  0.56180000  0.49120000  1
  H  H55  1  0.69450000  0.93820000  0.00880000  1
  H  H56  1  0.73860000  0.12900000  0.41850000  1
  H  H57  1  0.73860000  0.37100000  0.08150000  1
  H  H58  1  0.76140000  0.62900000  0.58150000  1
  H  H59  1  0.76140000  0.87100000  0.91850000  1
  H  H60  1  0.80550000  0.06180000  0.50880000  1
  H  H61  1  0.80550000  0.43820000  0.99120000  1
  H  H62  1  0.83020000  0.11490000  0.92830000  1
  H  H63  1  0.83020000  0.38510000  0.57170000  1
  H  H64  1  0.86130000  0.66070000  0.11980000  1
  H  H65  1  0.86130000  0.83930000  0.38020000  1
  H  H66  1  0.87610000  0.13660000  0.04110000  1
  H  H67  1  0.87610000  0.36340000  0.45890000  1
  H  H68  1  0.87680000  0.00660000  0.59360000  1
  H  H69  1  0.87680000  0.49340000  0.90640000  1
  H  H70  1  0.94830000  0.56190000  0.81510000  1
  H  H71  1  0.94830000  0.93810000  0.68490000  1
  H  H72  1  0.97210000  0.74480000  0.94060000  1
  H  H73  1  0.97210000  0.75520000  0.55940000  1
  H  H74  1  0.98710000  0.22510000  0.55490000  1
  H  H75  1  0.98710000  0.27490000  0.94510000  1
  C  C76  1  0.00260000  0.06260000  0.35500000  1
  C  C77  1  0.00260000  0.43740000  0.14500000  1
  C  C78  1  0.02350000  0.52140000  0.96920000  1
  C  C79  1  0.02350000  0.97860000  0.53080000  1
  C  C80  1  0.04540000  0.02160000  0.40990000  1
  C  C81  1  0.04540000  0.47840000  0.09010000  1
  C  C82  1  0.06510000  0.20700000  0.53540000  1
  C  C83  1  0.06510000  0.29300000  0.96460000  1
  C  C84  1  0.08980000  0.21910000  0.46690000  1
  C  C85  1  0.08980000  0.28090000  0.03310000  1
  C  C86  1  0.14210000  0.56220000  0.97000000  1
  C  C87  1  0.14210000  0.93780000  0.53000000  1
  C  C88  1  0.15530000  0.16860000  0.57410000  1
  C  C89  1  0.15530000  0.33140000  0.92590000  1
  C  C90  1  0.18230000  0.60180000  0.91650000  1
  C  C91  1  0.18230000  0.89820000  0.58350000  1
  C  C92  1  0.20280000  0.65420000  0.52230000  1
  C  C93  1  0.20280000  0.84580000  0.97770000  1
  C  C94  1  0.20610000  0.19300000  0.43820000  1
  C  C95  1  0.20610000  0.30700000  0.06180000  1
  C  C96  1  0.22990000  0.20440000  0.36310000  1
  C  C97  1  0.22990000  0.29560000  0.13690000  1
  C  C98  1  0.23000000  0.64170000  0.45460000  1
  C  C99  1  0.23000000  0.85830000  0.04540000  1
  C  C100  1  0.27000000  0.14170000  0.54540000  1
  C  C101  1  0.27000000  0.35830000  0.95460000  1
  C  C102  1  0.27010000  0.70440000  0.63690000  1
  C  C103  1  0.27010000  0.79560000  0.86310000  1
  C  C104  1  0.29390000  0.69300000  0.56180000  1
  C  C105  1  0.29390000  0.80700000  0.93820000  1
  C  C106  1  0.29720000  0.15420000  0.47770000  1
  C  C107  1  0.29720000  0.34580000  0.02230000  1
  C  C108  1  0.31770000  0.10180000  0.08350000  1
  C  C109  1  0.31770000  0.39820000  0.41650000  1
  C  C110  1  0.34470000  0.66860000  0.42590000  1
  C  C111  1  0.34470000  0.83140000  0.07410000  1
  C  C112  1  0.35790000  0.06220000  0.03000000  1
  C  C113  1  0.35790000  0.43780000  0.47000000  1
  C  C114  1  0.41020000  0.71910000  0.53310000  1
  C  C115  1  0.41020000  0.78090000  0.96690000  1
  C  C116  1  0.43490000  0.70700000  0.46460000  1
  C  C117  1  0.43490000  0.79300000  0.03540000  1
  C  C118  1  0.45460000  0.52160000  0.59010000  1
  C  C119  1  0.45460000  0.97840000  0.90990000  1
  C  C120  1  0.47650000  0.02140000  0.03080000  1
  C  C121  1  0.47650000  0.47860000  0.46920000  1
  C  C122  1  0.49740000  0.56260000  0.64500000  1
  C  C123  1  0.49740000  0.93740000  0.85500000  1
  C  C124  1  0.50260000  0.06260000  0.14500000  1
  C  C125  1  0.50260000  0.43740000  0.35500000  1
  C  C126  1  0.52350000  0.52140000  0.53080000  1
  C  C127  1  0.52350000  0.97860000  0.96920000  1
  C  C128  1  0.54540000  0.02160000  0.09010000  1
  C  C129  1  0.54540000  0.47840000  0.40990000  1
  C  C130  1  0.56510000  0.20700000  0.96460000  1
  C  C131  1  0.56510000  0.29300000  0.53540000  1
  C  C132  1  0.58980000  0.21910000  0.03310000  1
  C  C133  1  0.58980000  0.28090000  0.46690000  1
  C  C134  1  0.64210000  0.56220000  0.53000000  1
  C  C135  1  0.64210000  0.93780000  0.97000000  1
  C  C136  1  0.65530000  0.16860000  0.92590000  1
  C  C137  1  0.65530000  0.33140000  0.57410000  1
  C  C138  1  0.68230000  0.60180000  0.58350000  1
  C  C139  1  0.68230000  0.89820000  0.91650000  1
  C  C140  1  0.70280000  0.65420000  0.97770000  1
  C  C141  1  0.70280000  0.84580000  0.52230000  1
  C  C142  1  0.70610000  0.19300000  0.06180000  1
  C  C143  1  0.70610000  0.30700000  0.43820000  1
  C  C144  1  0.72990000  0.20440000  0.13690000  1
  C  C145  1  0.72990000  0.29560000  0.36310000  1
  C  C146  1  0.73000000  0.64170000  0.04540000  1
  C  C147  1  0.73000000  0.85830000  0.45460000  1
  C  C148  1  0.77000000  0.14170000  0.95460000  1
  C  C149  1  0.77000000  0.35830000  0.54540000  1
  C  C150  1  0.77010000  0.70440000  0.86310000  1
  C  C151  1  0.77010000  0.79560000  0.63690000  1
  C  C152  1  0.79390000  0.69300000  0.93820000  1
  C  C153  1  0.79390000  0.80700000  0.56180000  1
  C  C154  1  0.79720000  0.15420000  0.02230000  1
  C  C155  1  0.79720000  0.34580000  0.47770000  1
  C  C156  1  0.81770000  0.10180000  0.41650000  1
  C  C157  1  0.81770000  0.39820000  0.08350000  1
  C  C158  1  0.84470000  0.66860000  0.07410000  1
  C  C159  1  0.84470000  0.83140000  0.42590000  1
  C  C160  1  0.85790000  0.06220000  0.47000000  1
  C  C161  1  0.85790000  0.43780000  0.03000000  1
  C  C162  1  0.91020000  0.71910000  0.96690000  1
  C  C163  1  0.91020000  0.78090000  0.53310000  1
  C  C164  1  0.93490000  0.70700000  0.03540000  1
  C  C165  1  0.93490000  0.79300000  0.46460000  1
  C  C166  1  0.95460000  0.52160000  0.90990000  1
  C  C167  1  0.95460000  0.97840000  0.59010000  1
  C  C168  1  0.97650000  0.02140000  0.46920000  1
  C  C169  1  0.97650000  0.47860000  0.03080000  1
  C  C170  1  0.99740000  0.56260000  0.85500000  1
  C  C171  1  0.99740000  0.93740000  0.64500000  1
  N  N172  1  0.10700000  0.60260000  0.85850000  1
  N  N173  1  0.10700000  0.89740000  0.64150000  1
  N  N174  1  0.39300000  0.10260000  0.14150000  1
  N  N175  1  0.39300000  0.39740000  0.35850000  1
  N  N176  1  0.60700000  0.60260000  0.64150000  1
  N  N177  1  0.60700000  0.89740000  0.85850000  1
  N  N178  1  0.89300000  0.10260000  0.35850000  1
  N  N179  1  0.89300000  0.39740000  0.14150000  1
  O  O180  1  0.12970000  0.21980000  0.32811000  1
  O  O181  1  0.12970000  0.28020000  0.17189000  1
  O  O182  1  0.14750000  0.64490000  0.80575000  1
  O  O183  1  0.14750000  0.85510000  0.69425000  1
  O  O184  1  0.15500000  0.69820000  0.65915000  1
  O  O185  1  0.15500000  0.80180000  0.84085000  1
  O  O186  1  0.34500000  0.19820000  0.34085000  1
  O  O187  1  0.34500000  0.30180000  0.15915000  1
  O  O188  1  0.35250000  0.14490000  0.19425000  1
  O  O189  1  0.35250000  0.35510000  0.30575000  1
  O  O190  1  0.37030000  0.71980000  0.67189000  1
  O  O191  1  0.37030000  0.78020000  0.82811000  1
  O  O192  1  0.62970000  0.21980000  0.17189000  1
  O  O193  1  0.62970000  0.28020000  0.32811000  1
  O  O194  1  0.64750000  0.64490000  0.69425000  1
  O  O195  1  0.64750000  0.85510000  0.80575000  1
  O  O196  1  0.65500000  0.69820000  0.84085000  1
  O  O197  1  0.65500000  0.80180000  0.65915000  1
  O  O198  1  0.84500000  0.19820000  0.15915000  1
  O  O199  1  0.84500000  0.30180000  0.34085000  1
  O  O200  1  0.85250000  0.14490000  0.30575000  1
  O  O201  1  0.85250000  0.35510000  0.19425000  1
  O  O202  1  0.87030000  0.71980000  0.82811000  1
  O  O203  1  0.87030000  0.78020000  0.67189000  1
