# generated using pymatgen
data_CdH8C19(NO3)2
_symmetry_space_group_name_H-M   'P 1'
_cell_length_a   4.97380000
_cell_length_b   20.66300000
_cell_length_c   24.83600000
_cell_angle_alpha   90.00000000
_cell_angle_beta   90.00000000
_cell_angle_gamma   95.90300000
_symmetry_Int_Tables_number   1
_chemical_formula_structural   CdH8C19(NO3)2
_chemical_formula_sum   'Cd4 H32 C76 N8 O24'
_cell_volume   2538.95113389
_cell_formula_units_Z   4
loop_
 _symmetry_equiv_pos_site_id
 _symmetry_equiv_pos_as_xyz
  1  'x, y, z'
loop_
 _atom_site_type_symbol
 _atom_site_label
 _atom_site_symmetry_multiplicity
 _atom_site_fract_x
 _atom_site_fract_y
 _atom_site_fract_z
 _atom_site_occupancy
  Cd  Cd0  1  0.82280000  0.94051000  0.54236000  1
  Cd  Cd1  1  0.67720000  0.55949000  0.04236000  1
  Cd  Cd2  1  0.32280000  0.44051000  0.95764000  1
  Cd  Cd3  1  0.17720000  0.05950000  0.45764000  1
  H  H4  1  0.99770000  0.25060000  0.54120000  1
  H  H5  1  0.98210000  0.95180000  0.36050000  1
  H  H6  1  0.93140000  0.12800000  0.70260000  1
  H  H7  1  0.93110000  0.32270000  0.61180000  1
  H  H8  1  0.89590000  0.55510000  0.16350000  1
  H  H9  1  0.88650000  0.60810000  0.24600000  1
  H  H10  1  0.84340000  0.15540000  0.39530000  1
  H  H11  1  0.82440000  0.21300000  0.31560000  1
  H  H12  1  0.67560000  0.28700000  0.81560000  1
  H  H13  1  0.65660000  0.34460000  0.89530000  1
  H  H14  1  0.61350000  0.89190000  0.74600000  1
  H  H15  1  0.60410000  0.94490000  0.66350000  1
  H  H16  1  0.56890000  0.17730000  0.11180000  1
  H  H17  1  0.56860000  0.37200000  0.20260000  1
  H  H18  1  0.51790000  0.54820000  0.86050000  1
  H  H19  1  0.50230000  0.24940000  0.04120000  1
  H  H20  1  0.49770000  0.75060000  0.95880000  1
  H  H21  1  0.48210000  0.45180000  0.13950000  1
  H  H22  1  0.43140000  0.62800000  0.79740000  1
  H  H23  1  0.43110000  0.82270000  0.88820000  1
  H  H24  1  0.39590000  0.05510000  0.33650000  1
  H  H25  1  0.38650000  0.10810000  0.25400000  1
  H  H26  1  0.34340000  0.65540000  0.10470000  1
  H  H27  1  0.32440000  0.71300000  0.18440000  1
  H  H28  1  0.17560000  0.78700000  0.68440000  1
  H  H29  1  0.15660000  0.84460000  0.60470000  1
  H  H30  1  0.11350000  0.39190000  0.75400000  1
  H  H31  1  0.10410000  0.44490000  0.83650000  1
  H  H32  1  0.06890000  0.67730000  0.38820000  1
  H  H33  1  0.06860000  0.87200000  0.29740000  1
  H  H34  1  0.01790000  0.04820000  0.63950000  1
  H  H35  1  0.00230000  0.74940000  0.45880000  1
  C  C36  1  0.99510000  0.66160000  0.89850000  1
  C  C37  1  0.96000000  0.14640000  0.36660000  1
  C  C38  1  0.95240000  0.70770000  0.85737000  1
  C  C39  1  0.94710000  0.18100000  0.31930000  1
  C  C40  1  0.92140000  0.86410000  0.32170000  1
  C  C41  1  0.90770000  0.18730000  0.19130000  1
  C  C42  1  0.89880000  0.54200000  0.92927000  1
  C  C43  1  0.88610000  0.83180000  0.72190000  1
  C  C44  1  0.88120000  0.23280000  0.14600000  1
  C  C45  1  0.87240000  0.91130000  0.36010000  1
  C  C46  1  0.85900000  0.23940000  0.56690000  1
  C  C47  1  0.83350000  0.60030000  0.89719000  1
  C  C48  1  0.81920000  0.28270000  0.60900000  1
  C  C49  1  0.79990000  0.31960000  0.06200000  1
  C  C50  1  0.79930000  0.76110000  0.27560000  1
  C  C51  1  0.77850000  0.58830000  0.16760000  1
  C  C52  1  0.77730000  0.61990000  0.21700000  1
  C  C53  1  0.75780000  0.80670000  0.31920000  1
  C  C54  1  0.75280000  0.14240000  0.51195000  1
  C  C55  1  0.74720000  0.35760000  0.01195000  1
  C  C56  1  0.74220000  0.69330000  0.81920000  1
  C  C57  1  0.72270000  0.88010000  0.71700000  1
  C  C58  1  0.72150000  0.91170000  0.66760000  1
  C  C59  1  0.70070000  0.73890000  0.77560000  1
  C  C60  1  0.70010000  0.18040000  0.56200000  1
  C  C61  1  0.68080000  0.21730000  0.10900000  1
  C  C62  1  0.66650000  0.89970000  0.39719000  1
  C  C63  1  0.64100000  0.26060000  0.06690000  1
  C  C64  1  0.62760000  0.58870000  0.86010000  1
  C  C65  1  0.61880000  0.26720000  0.64600000  1
  C  C66  1  0.61390000  0.66820000  0.22190000  1
  C  C67  1  0.60120000  0.95800000  0.42927000  1
  C  C68  1  0.59230000  0.31270000  0.69130000  1
  C  C69  1  0.57860000  0.63590000  0.82170000  1
  C  C70  1  0.55290000  0.31900000  0.81930000  1
  C  C71  1  0.54760000  0.79230000  0.35737000  1
  C  C72  1  0.54000000  0.35360000  0.86660000  1
  C  C73  1  0.50490000  0.83840000  0.39850000  1
  C  C74  1  0.49510000  0.16160000  0.60150000  1
  C  C75  1  0.46000000  0.64640000  0.13340000  1
  C  C76  1  0.45240000  0.20770000  0.64263000  1
  C  C77  1  0.44710000  0.68100000  0.18070000  1
  C  C78  1  0.42140000  0.36410000  0.17830000  1
  C  C79  1  0.40770000  0.68730000  0.30870000  1
  C  C80  1  0.39880000  0.04200000  0.57073000  1
  C  C81  1  0.38610000  0.33180000  0.77810000  1
  C  C82  1  0.38120000  0.73280000  0.35400000  1
  C  C83  1  0.37240000  0.41130000  0.13990000  1
  C  C84  1  0.35900000  0.73940000  0.93310000  1
  C  C85  1  0.33350000  0.10030000  0.60281000  1
  C  C86  1  0.31920000  0.78270000  0.89100000  1
  C  C87  1  0.29990000  0.81960000  0.43800000  1
  C  C88  1  0.29930000  0.26110000  0.22440000  1
  C  C89  1  0.27850000  0.08830000  0.33240000  1
  C  C90  1  0.27730000  0.11990000  0.28300000  1
  C  C91  1  0.25780000  0.30670000  0.18080000  1
  C  C92  1  0.25280000  0.64240000  0.98805000  1
  C  C93  1  0.24720000  0.85760000  0.48805000  1
  C  C94  1  0.24220000  0.19330000  0.68080000  1
  C  C95  1  0.22270000  0.38010000  0.78300000  1
  C  C96  1  0.22150000  0.41170000  0.83240000  1
  C  C97  1  0.20070000  0.23890000  0.72440000  1
  C  C98  1  0.20010000  0.68040000  0.93800000  1
  C  C99  1  0.18080000  0.71730000  0.39100000  1
  C  C100  1  0.16650000  0.39970000  0.10281000  1
  C  C101  1  0.14100000  0.76060000  0.43310000  1
  C  C102  1  0.12760000  0.08870000  0.63990000  1
  C  C103  1  0.11880000  0.76720000  0.85400000  1
  C  C104  1  0.11390000  0.16820000  0.27810000  1
  C  C105  1  0.10120000  0.45800000  0.07073000  1
  C  C106  1  0.09230000  0.81270000  0.80870000  1
  C  C107  1  0.07860000  0.13590000  0.67830000  1
  C  C108  1  0.05290000  0.81900000  0.68070000  1
  C  C109  1  0.04760000  0.29230000  0.14263000  1
  C  C110  1  0.04000000  0.85360000  0.63340000  1
  C  C111  1  0.00490000  0.33840000  0.10150000  1
  N  N112  1  0.89060000  0.79410000  0.77081000  1
  N  N113  1  0.87220000  0.89870000  0.62627000  1
  N  N114  1  0.62780000  0.60130000  0.12627000  1
  N  N115  1  0.60940000  0.70590000  0.27081000  1
  N  N116  1  0.39060000  0.29410000  0.72919000  1
  N  N117  1  0.37220000  0.39870000  0.87373000  1
  N  N118  1  0.12780000  0.10130000  0.37373000  1
  N  N119  1  0.10940000  0.20590000  0.22919000  1
  O  O120  1  0.99740000  0.13789000  0.50155000  1
  O  O121  1  0.98310000  0.76970000  0.24278000  1
  O  O122  1  0.94320000  0.37813000  0.98257000  1
  O  O123  1  0.87140000  0.47595000  0.07872000  1
  O  O124  1  0.78220000  0.98795000  0.45895000  1
  O  O125  1  0.76370000  0.13660000  0.19706000  1
  O  O126  1  0.73630000  0.36340000  0.69706000  1
  O  O127  1  0.71780000  0.51205000  0.95895000  1
  O  O128  1  0.62860000  0.02405000  0.57872000  1
  O  O129  1  0.55680000  0.12187000  0.48257000  1
  O  O130  1  0.51690000  0.73030000  0.74278000  1
  O  O131  1  0.50260000  0.36211000  0.00155000  1
  O  O132  1  0.49740000  0.63789000  0.99845000  1
  O  O133  1  0.48310000  0.26970000  0.25722000  1
  O  O134  1  0.44320000  0.87813000  0.51743000  1
  O  O135  1  0.37140000  0.97595000  0.42128000  1
  O  O136  1  0.28220000  0.48795000  0.04105000  1
  O  O137  1  0.26370000  0.63660000  0.30294000  1
  O  O138  1  0.23630000  0.86340000  0.80294000  1
  O  O139  1  0.21780000  0.01205000  0.54105000  1
  O  O140  1  0.12860000  0.52405000  0.92128000  1
  O  O141  1  0.05680000  0.62187000  0.01743000  1
  O  O142  1  0.01690000  0.23030000  0.75722000  1
  O  O143  1  0.00260000  0.86211000  0.49845000  1
