# generated using pymatgen
data_MnH4(C2O)4
_symmetry_space_group_name_H-M   'P 1'
_cell_length_a   10.68430000
_cell_length_b   13.48410000
_cell_length_c   14.37890000
_cell_angle_alpha   76.88040000
_cell_angle_beta   68.19010000
_cell_angle_gamma   66.66030000
_symmetry_Int_Tables_number   1
_chemical_formula_structural   MnH4(C2O)4
_chemical_formula_sum   'Mn6 H24 C48 O24'
_cell_volume   1758.13464575
_cell_formula_units_Z   6
loop_
 _symmetry_equiv_pos_site_id
 _symmetry_equiv_pos_as_xyz
  1  'x, y, z'
loop_
 _atom_site_type_symbol
 _atom_site_label
 _atom_site_symmetry_multiplicity
 _atom_site_fract_x
 _atom_site_fract_y
 _atom_site_fract_z
 _atom_site_occupancy
  Mn  Mn0  1  0.14335000  0.96079000  0.89067000  1
  Mn  Mn1  1  0.21861000  0.75000000  0.75000000  1
  Mn  Mn2  1  0.49481000  0.53921000  0.60933000  1
  Mn  Mn3  1  0.50519000  0.46079000  0.39067000  1
  Mn  Mn4  1  0.78139000  0.25000000  0.25000000  1
  Mn  Mn5  1  0.85665000  0.03921000  0.10933000  1
  H  H6  1  0.04680000  0.45780000  0.09240000  1
  H  H7  1  0.09700000  0.04220000  0.40760000  1
  H  H8  1  0.13580000  0.59100000  0.99060000  1
  H  H9  1  0.13690000  0.81350000  0.25250000  1
  H  H10  1  0.20120000  0.18130000  0.84670000  1
  H  H11  1  0.21740000  0.90900000  0.50940000  1
  H  H12  1  0.27080000  0.68130000  0.34670000  1
  H  H13  1  0.29710000  0.31350000  0.75250000  1
  H  H14  1  0.34000000  0.62530000  0.11470000  1
  H  H15  1  0.34630000  0.66210000  0.94790000  1
  H  H16  1  0.42000000  0.12530000  0.61470000  1
  H  H17  1  0.45630000  0.83790000  0.55210000  1
  H  H18  1  0.54370000  0.16210000  0.44790000  1
  H  H19  1  0.58000000  0.87470000  0.38530000  1
  H  H20  1  0.65370000  0.33790000  0.05210000  1
  H  H21  1  0.66000000  0.37470000  0.88530000  1
  H  H22  1  0.70290000  0.68650000  0.24750000  1
  H  H23  1  0.72920000  0.31870000  0.65330000  1
  H  H24  1  0.78260000  0.09100000  0.49060000  1
  H  H25  1  0.79880000  0.81870000  0.15330000  1
  H  H26  1  0.86310000  0.18650000  0.74750000  1
  H  H27  1  0.86420000  0.40900000  0.00940000  1
  H  H28  1  0.90300000  0.95780000  0.59240000  1
  H  H29  1  0.95320000  0.54220000  0.90760000  1
  C  C30  1  0.00468000  0.46954000  0.89670000  1
  C  C31  1  0.01333000  0.02562000  0.26032000  1
  C  C32  1  0.02445000  0.28174000  0.93916000  1
  C  C33  1  0.03220000  0.80446000  0.99574000  1
  C  C34  1  0.04966000  0.61035000  0.04293000  1
  C  C35  1  0.10352000  0.94093000  0.32063000  1
  C  C36  1  0.12908000  0.96954000  0.39670000  1
  C  C37  1  0.13492000  0.44093000  0.82063000  1
  C  C38  1  0.15290000  0.25332000  0.86068000  1
  C  C39  1  0.15480000  0.83292000  0.30308000  1
  C  C40  1  0.20073000  0.52562000  0.76032000  1
  C  C41  1  0.20294000  0.88965000  0.45707000  1
  C  C42  1  0.20920000  0.33292000  0.80308000  1
  C  C43  1  0.23310000  0.75332000  0.36068000  1
  C  C44  1  0.25465000  0.78174000  0.43916000  1
  C  C45  1  0.33240000  0.69554000  0.50426000  1
  C  C46  1  0.34010000  0.95602000  0.70658000  1
  C  C47  1  0.40438000  0.57513000  0.06871000  1
  C  C48  1  0.40786000  0.59687000  0.96881000  1
  C  C49  1  0.42445000  0.97830000  0.59980000  1
  C  C50  1  0.45178000  0.07513000  0.56871000  1
  C  C51  1  0.47354000  0.90313000  0.53119000  1
  C  C52  1  0.49730000  0.45602000  0.20658000  1
  C  C53  1  0.49745000  0.47830000  0.09980000  1
  C  C54  1  0.50255000  0.52170000  0.90020000  1
  C  C55  1  0.50270000  0.54398000  0.79342000  1
  C  C56  1  0.52646000  0.09687000  0.46881000  1
  C  C57  1  0.54822000  0.92487000  0.43129000  1
  C  C58  1  0.57555000  0.02170000  0.40020000  1
  C  C59  1  0.59214000  0.40313000  0.03119000  1
  C  C60  1  0.59562000  0.42487000  0.93129000  1
  C  C61  1  0.65990000  0.04398000  0.29342000  1
  C  C62  1  0.66760000  0.30446000  0.49574000  1
  C  C63  1  0.74535000  0.21826000  0.56084000  1
  C  C64  1  0.76690000  0.24668000  0.63932000  1
  C  C65  1  0.79080000  0.66708000  0.19692000  1
  C  C66  1  0.79706000  0.11035000  0.54293000  1
  C  C67  1  0.79927000  0.47438000  0.23968000  1
  C  C68  1  0.84520000  0.16708000  0.69692000  1
  C  C69  1  0.84710000  0.74668000  0.13932000  1
  C  C70  1  0.86508000  0.55907000  0.17937000  1
  C  C71  1  0.87092000  0.03046000  0.60330000  1
  C  C72  1  0.89648000  0.05907000  0.67937000  1
  C  C73  1  0.95034000  0.38965000  0.95707000  1
  C  C74  1  0.96780000  0.19554000  0.00426000  1
  C  C75  1  0.97555000  0.71826000  0.06084000  1
  C  C76  1  0.98667000  0.97438000  0.73968000  1
  C  C77  1  0.99532000  0.53046000  0.10330000  1
  O  O78  1  0.00138000  0.00832000  0.80792000  1
  O  O79  1  0.01830000  0.10116000  0.97604000  1
  O  O80  1  0.04245000  0.87835000  0.71615000  1
  O  O81  1  0.13234000  0.78325000  0.91367000  1
  O  O82  1  0.13695000  0.62165000  0.78385000  1
  O  O83  1  0.29080000  0.02747000  0.76573000  1
  O  O84  1  0.31762000  0.49168000  0.69208000  1
  O  O85  1  0.32005000  0.86647000  0.73483000  1
  O  O86  1  0.32926000  0.71675000  0.58633000  1
  O  O87  1  0.40450000  0.60116000  0.47604000  1
  O  O88  1  0.41600000  0.52747000  0.26573000  1
  O  O89  1  0.42135000  0.63353000  0.76517000  1
  O  O90  1  0.57865000  0.36647000  0.23483000  1
  O  O91  1  0.58400000  0.47253000  0.73427000  1
  O  O92  1  0.59550000  0.39884000  0.52396000  1
  O  O93  1  0.67074000  0.28325000  0.41367000  1
  O  O94  1  0.67995000  0.13353000  0.26517000  1
  O  O95  1  0.68238000  0.50832000  0.30792000  1
  O  O96  1  0.70920000  0.97253000  0.23427000  1
  O  O97  1  0.86305000  0.37835000  0.21615000  1
  O  O98  1  0.86766000  0.21675000  0.08633000  1
  O  O99  1  0.95755000  0.12165000  0.28385000  1
  O  O100  1  0.98170000  0.89884000  0.02396000  1
  O  O101  1  0.99862000  0.99168000  0.19208000  1
