# generated using pymatgen
data_CeH9C17O8
_symmetry_space_group_name_H-M   'P 1'
_cell_length_a   4.87300000
_cell_length_b   13.13300000
_cell_length_c   13.29970000
_cell_angle_alpha   90.00000000
_cell_angle_beta   100.55200000
_cell_angle_gamma   90.00000000
_symmetry_Int_Tables_number   1
_chemical_formula_structural   CeH9C17O8
_chemical_formula_sum   'Ce2 H18 C34 O16'
_cell_volume   836.74877669
_cell_formula_units_Z   2
loop_
 _symmetry_equiv_pos_site_id
 _symmetry_equiv_pos_as_xyz
  1  'x, y, z'
loop_
 _atom_site_type_symbol
 _atom_site_label
 _atom_site_symmetry_multiplicity
 _atom_site_fract_x
 _atom_site_fract_y
 _atom_site_fract_z
 _atom_site_occupancy
  Ce  Ce0  1  0.26424000  0.89626000  0.78802000  1
  Ce  Ce1  1  0.73576000  0.39626000  0.21198000  1
  H  H2  1  0.08600000  0.38720000  0.62250000  1
  H  H3  1  0.15250000  0.65640000  0.49900000  1
  H  H4  1  0.18970000  0.10200000  0.27350000  1
  H  H5  1  0.22470000  0.48120000  0.68610000  1
  H  H6  1  0.24770000  0.71340000  0.05250000  1
  H  H7  1  0.28400000  0.93330000  0.51280000  1
  H  H8  1  0.29380000  0.42150000  0.87090000  1
  H  H9  1  0.31570000  0.79480000  0.34620000  1
  H  H10  1  0.44280000  0.15660000  0.64570000  1
  H  H11  1  0.55720000  0.65660000  0.35430000  1
  H  H12  1  0.68430000  0.29480000  0.65380000  1
  H  H13  1  0.70620000  0.92150000  0.12910000  1
  H  H14  1  0.71600000  0.43330000  0.48720000  1
  H  H15  1  0.75230000  0.21340000  0.94750000  1
  H  H16  1  0.77530000  0.98120000  0.31390000  1
  H  H17  1  0.81030000  0.60200000  0.72650000  1
  H  H18  1  0.84750000  0.15640000  0.50100000  1
  H  H19  1  0.91400000  0.88720000  0.37750000  1
  C  C20  1  0.01430000  0.32520000  0.92460000  1
  C  C21  1  0.02700000  0.90700000  0.25170000  1
  C  C22  1  0.05340000  0.44240000  0.66740000  1
  C  C23  1  0.12170000  0.39000000  0.85060000  1
  C  C24  1  0.16320000  0.34290000  0.03480000  1
  C  C25  1  0.18410000  0.01070000  0.38510000  1
  C  C26  1  0.19600000  0.75450000  0.10280000  1
  C  C27  1  0.24490000  0.80850000  0.27780000  1
  C  C28  1  0.26300000  0.50200000  0.37390000  1
  C  C29  1  0.28510000  0.08620000  0.33880000  1
  C  C30  1  0.31530000  0.62190000  0.52680000  1
  C  C31  1  0.33140000  0.74330000  0.20280000  1
  C  C32  1  0.34260000  0.98850000  0.47840000  1
  C  C33  1  0.40040000  0.73140000  0.68410000  1
  C  C34  1  0.43330000  0.53550000  0.47500000  1
  C  C35  1  0.46560000  0.17340000  0.76900000  1
  C  C36  1  0.48270000  0.64510000  0.62450000  1
  C  C37  1  0.51730000  0.14510000  0.37550000  1
  C  C38  1  0.53440000  0.67340000  0.23100000  1
  C  C39  1  0.56670000  0.03550000  0.52500000  1
  C  C40  1  0.59960000  0.23140000  0.31590000  1
  C  C41  1  0.65740000  0.48850000  0.52160000  1
  C  C42  1  0.66860000  0.24330000  0.79720000  1
  C  C43  1  0.68470000  0.12190000  0.47320000  1
  C  C44  1  0.71490000  0.58620000  0.66120000  1
  C  C45  1  0.73700000  0.00200000  0.62610000  1
  C  C46  1  0.75510000  0.30850000  0.72220000  1
  C  C47  1  0.80400000  0.25450000  0.89720000  1
  C  C48  1  0.81590000  0.51070000  0.61490000  1
  C  C49  1  0.83680000  0.84290000  0.96520000  1
  C  C50  1  0.87830000  0.89000000  0.14940000  1
  C  C51  1  0.94660000  0.94240000  0.33260000  1
  C  C52  1  0.97300000  0.40700000  0.74830000  1
  C  C53  1  0.98570000  0.82520000  0.07540000  1
  O  O54  1  0.01500000  0.02550000  0.64800000  1
  O  O55  1  0.02500000  0.31210000  0.10870000  1
  O  O56  1  0.18150000  0.78700000  0.64490000  1
  O  O57  1  0.32560000  0.18310000  0.67810000  1
  O  O58  1  0.37250000  0.44900000  0.31930000  1
  O  O59  1  0.38950000  0.39280000  0.05410000  1
  O  O60  1  0.41310000  0.09890000  0.82230000  1
  O  O61  1  0.47550000  0.25280000  0.22780000  1
  O  O62  1  0.52450000  0.75280000  0.77220000  1
  O  O63  1  0.58690000  0.59890000  0.17770000  1
  O  O64  1  0.61050000  0.89280000  0.94590000  1
  O  O65  1  0.62750000  0.94900000  0.68070000  1
  O  O66  1  0.67440000  0.68310000  0.32190000  1
  O  O67  1  0.81850000  0.28700000  0.35510000  1
  O  O68  1  0.97500000  0.81210000  0.89130000  1
  O  O69  1  0.98500000  0.52550000  0.35200000  1
