# generated using pymatgen
data_TbH9C19O6
_symmetry_space_group_name_H-M   'P 1'
_cell_length_a   13.74140000
_cell_length_b   14.40380000
_cell_length_c   16.12437887
_cell_angle_alpha   116.52873995
_cell_angle_beta   97.74762096
_cell_angle_gamma   90.00000000
_symmetry_Int_Tables_number   1
_chemical_formula_structural   TbH9C19O6
_chemical_formula_sum   'Tb4 H36 C76 O24'
_cell_volume   2822.84417696
_cell_formula_units_Z   4
loop_
 _symmetry_equiv_pos_site_id
 _symmetry_equiv_pos_as_xyz
  1  'x, y, z'
loop_
 _atom_site_type_symbol
 _atom_site_label
 _atom_site_symmetry_multiplicity
 _atom_site_fract_x
 _atom_site_fract_y
 _atom_site_fract_z
 _atom_site_occupancy
  C  C0  1  0.10930000  0.61193000  0.99366000  1
  C  C1  1  0.60930000  0.38173000  0.99366000  1
  C  C2  1  0.12530000  0.76440000  0.96720000  1
  C  C3  1  0.62530000  0.20280000  0.96720000  1
  C  C4  1  0.11530000  0.50320000  0.95980000  1
  C  C5  1  0.61530000  0.45660000  0.95980000  1
  C  C6  1  0.40760000  0.77350000  0.94940000  1
  C  C7  1  0.90760000  0.17590000  0.94940000  1
  C  C8  1  0.13280000  0.65620000  0.93620000  1
  C  C9  1  0.63280000  0.28000000  0.93620000  1
  C  C10  1  0.42460000  0.59623000  0.92106000  1
  C  C11  1  0.92460000  0.32483000  0.92106000  1
  C  C12  1  0.43450000  0.67256000  0.89372000  1
  C  C13  1  0.93450000  0.22116000  0.89372000  1
  C  C14  1  0.13890000  0.44165000  0.87270000  1
  C  C15  1  0.63890000  0.43105000  0.87270000  1
  C  C16  1  0.16030000  0.59107000  0.84774000  1
  C  C17  1  0.66030000  0.25667000  0.84774000  1
  C  C18  1  0.16190000  0.48552000  0.81464000  1
  C  C19  1  0.66190000  0.32912000  0.81464000  1
  C  C20  1  0.47480000  0.65020000  0.80500000  1
  C  C21  1  0.97480000  0.15480000  0.80500000  1
  C  C22  1  0.18330000  0.41947000  0.71894000  1
  C  C23  1  0.68330000  0.29947000  0.71894000  1
  C  C24  1  0.25050000  0.45437000  0.67894000  1
  C  C25  1  0.75050000  0.22457000  0.67894000  1
  C  C26  1  0.63140000  0.33929000  0.66218000  1
  C  C27  1  0.13140000  0.32289000  0.66218000  1
  C  C28  1  0.26390000  0.39730000  0.58620000  1
  C  C29  1  0.76390000  0.18890000  0.58620000  1
  C  C30  1  0.64450000  0.30313000  0.56886000  1
  C  C31  1  0.14450000  0.26573000  0.56886000  1
  C  C32  1  0.33960000  0.43762000  0.54764000  1
  C  C33  1  0.83960000  0.11002000  0.54764000  1
  C  C34  1  0.20960000  0.30330000  0.53080000  1
  C  C35  1  0.70960000  0.22750000  0.53080000  1
  C  C36  1  0.58630000  0.34461000  0.50842000  1
  C  C37  1  0.08630000  0.16381000  0.50842000  1
  C  C38  1  0.41370000  0.65539000  0.49158000  1
  C  C39  1  0.91370000  0.83619000  0.49158000  1
  C  C40  1  0.79040000  0.69670000  0.46920000  1
  C  C41  1  0.29040000  0.77250000  0.46920000  1
  C  C42  1  0.66040000  0.56238000  0.45236000  1
  C  C43  1  0.16040000  0.88998000  0.45236000  1
  C  C44  1  0.35550000  0.69687000  0.43114000  1
  C  C45  1  0.85550000  0.73427000  0.43114000  1
  C  C46  1  0.73610000  0.60270000  0.41380000  1
  C  C47  1  0.23610000  0.81110000  0.41380000  1
  C  C48  1  0.36860000  0.66071000  0.33782000  1
  C  C49  1  0.86860000  0.67711000  0.33782000  1
  C  C50  1  0.74950000  0.54563000  0.32106000  1
  C  C51  1  0.24950000  0.77543000  0.32106000  1
  C  C52  1  0.81670000  0.58053000  0.28106000  1
  C  C53  1  0.31670000  0.70053000  0.28106000  1
  C  C54  1  0.52520000  0.34980000  0.19500000  1
  C  C55  1  0.02520000  0.84520000  0.19500000  1
  C  C56  1  0.83810000  0.51448000  0.18536000  1
  C  C57  1  0.33810000  0.67088000  0.18536000  1
  C  C58  1  0.83970000  0.40893000  0.15226000  1
  C  C59  1  0.33970000  0.74333000  0.15226000  1
  C  C60  1  0.86110000  0.55835000  0.12730000  1
  C  C61  1  0.36110000  0.56895000  0.12730000  1
  C  C62  1  0.56550000  0.32744000  0.10628000  1
  C  C63  1  0.06550000  0.77884000  0.10628000  1
  C  C64  1  0.57540000  0.40377000  0.07894000  1
  C  C65  1  0.07540000  0.67517000  0.07894000  1
  C  C66  1  0.86720000  0.34380000  0.06380000  1
  C  C67  1  0.36720000  0.72000000  0.06380000  1
  C  C68  1  0.59240000  0.22650000  0.05060000  1
  C  C69  1  0.09240000  0.82410000  0.05060000  1
  C  C70  1  0.88470000  0.49680000  0.04020000  1
  C  C71  1  0.38470000  0.54340000  0.04020000  1
  C  C72  1  0.87470000  0.23560000  0.03280000  1
  C  C73  1  0.37470000  0.79720000  0.03280000  1
  C  C74  1  0.89070000  0.38807000  0.00634000  1
  C  C75  1  0.39070000  0.61827000  0.00634000  1
  H  H76  1  0.60280000  0.52500000  0.99780000  1
  H  H77  1  0.10280000  0.47280000  0.99780000  1
  H  H78  1  0.14290000  0.79510000  0.93100000  1
  H  H79  1  0.64290000  0.13590000  0.93100000  1
  H  H80  1  0.41220000  0.82470000  0.92960000  1
  H  H81  1  0.91220000  0.10490000  0.92960000  1
  H  H82  1  0.44040000  0.52900000  0.88300000  1
  H  H83  1  0.94040000  0.35400000  0.88300000  1
  H  H84  1  0.63990000  0.48140000  0.85160000  1
  H  H85  1  0.13990000  0.37020000  0.85160000  1
  H  H86  1  0.17790000  0.62100000  0.81100000  1
  H  H87  1  0.67790000  0.19000000  0.81100000  1
  H  H88  1  0.28700000  0.51740000  0.71560000  1
  H  H89  1  0.78700000  0.19820000  0.71560000  1
  H  H90  1  0.58770000  0.39050000  0.68720000  1
  H  H91  1  0.08770000  0.29670000  0.68720000  1
  H  H92  1  0.78300000  0.73450000  0.53200000  1
  H  H93  1  0.28300000  0.79750000  0.53200000  1
  H  H94  1  0.21700000  0.26550000  0.46800000  1
  H  H95  1  0.71700000  0.20250000  0.46800000  1
  H  H96  1  0.41230000  0.60950000  0.31280000  1
  H  H97  1  0.91230000  0.70330000  0.31280000  1
  H  H98  1  0.71300000  0.48260000  0.28440000  1
  H  H99  1  0.21300000  0.80180000  0.28440000  1
  H  H100  1  0.82210000  0.37900000  0.18900000  1
  H  H101  1  0.32210000  0.81000000  0.18900000  1
  H  H102  1  0.36010000  0.51860000  0.14840000  1
  H  H103  1  0.86010000  0.62980000  0.14840000  1
  H  H104  1  0.55960000  0.47100000  0.11700000  1
  H  H105  1  0.05960000  0.64600000  0.11700000  1
  H  H106  1  0.58780000  0.17530000  0.07040000  1
  H  H107  1  0.08780000  0.89510000  0.07040000  1
  H  H108  1  0.85710000  0.20490000  0.06900000  1
  H  H109  1  0.35710000  0.86410000  0.06900000  1
  H  H110  1  0.39720000  0.47500000  0.00220000  1
  H  H111  1  0.89720000  0.52720000  0.00220000  1
  O  O112  1  0.46590000  0.71585000  0.77310000  1
  O  O113  1  0.96590000  0.05725000  0.77310000  1
  O  O114  1  0.51720000  0.56849000  0.76518000  1
  O  O115  1  0.01720000  0.19669000  0.76518000  1
  O  O116  1  0.37970000  0.52625000  0.60050000  1
  O  O117  1  0.87970000  0.07425000  0.60050000  1
  O  O118  1  0.43230000  0.71161000  0.57802000  1
  O  O119  1  0.93230000  0.86641000  0.57802000  1
  O  O120  1  0.55540000  0.43480000  0.54640000  1
  O  O121  1  0.05540000  0.11160000  0.54640000  1
  O  O122  1  0.64620000  0.61929000  0.53438000  1
  O  O123  1  0.14620000  0.91509000  0.53438000  1
  O  O124  1  0.35380000  0.38071000  0.46562000  1
  O  O125  1  0.85380000  0.08491000  0.46562000  1
  O  O126  1  0.44460000  0.56520000  0.45360000  1
  O  O127  1  0.94460000  0.88840000  0.45360000  1
  O  O128  1  0.56770000  0.28839000  0.42198000  1
  O  O129  1  0.06770000  0.13359000  0.42198000  1
  O  O130  1  0.62030000  0.47375000  0.39950000  1
  O  O131  1  0.12030000  0.92575000  0.39950000  1
  O  O132  1  0.48280000  0.43151000  0.23482000  1
  O  O133  1  0.98280000  0.80331000  0.23482000  1
  O  O134  1  0.53410000  0.28415000  0.22690000  1
  O  O135  1  0.03410000  0.94275000  0.22690000  1
  Tb  Tb136  1  0.53688000  0.61037000  0.63416000  1
  Tb  Tb137  1  0.03688000  0.02379000  0.63416000  1
  Tb  Tb138  1  0.46312000  0.38963000  0.36584000  1
  Tb  Tb139  1  0.96312000  0.97621000  0.36584000  1
