# generated using pymatgen
data_CoBH16C15(N4O)2
_symmetry_space_group_name_H-M   'P 1'
_cell_length_a   13.61680000
_cell_length_b   14.74298820
_cell_length_c   15.75005516
_cell_angle_alpha   68.49493357
_cell_angle_beta   64.38779461
_cell_angle_gamma   62.49629488
_symmetry_Int_Tables_number   1
_chemical_formula_structural   CoBH16C15(N4O)2
_chemical_formula_sum   'Co4 B4 H64 C60 N32 O8'
_cell_volume   2473.23090253
_cell_formula_units_Z   4
loop_
 _symmetry_equiv_pos_site_id
 _symmetry_equiv_pos_as_xyz
  1  'x, y, z'
loop_
 _atom_site_type_symbol
 _atom_site_label
 _atom_site_symmetry_multiplicity
 _atom_site_fract_x
 _atom_site_fract_y
 _atom_site_fract_z
 _atom_site_occupancy
  B  B0  1  0.01850000  0.24470000  0.48370000  1
  B  B1  1  0.25310000  0.74470000  0.98370000  1
  B  B2  1  0.98150000  0.75530000  0.51630000  1
  B  B3  1  0.74690000  0.25530000  0.01630000  1
  C  C4  1  0.79840000  0.51210000  0.47850000  1
  C  C5  1  0.21100000  0.01210000  0.97850000  1
  C  C6  1  0.85210000  0.37810000  0.58490000  1
  C  C7  1  0.18490000  0.87810000  0.08490000  1
  C  C8  1  0.55170000  0.45300000  0.48580000  1
  C  C9  1  0.50950000  0.95300000  0.98580000  1
  C  C10  1  0.88370000  0.43640000  0.43220000  1
  C  C11  1  0.24770000  0.93640000  0.93220000  1
  C  C12  1  0.59360000  0.45500000  0.38060000  1
  C  C13  1  0.57080000  0.95500000  0.88060000  1
  C  C14  1  0.04710000  0.09100000  0.72240000  1
  C  C15  1  0.13950000  0.59100000  0.22240000  1
  C  C16  1  0.07500000  0.16000000  0.64040000  1
  C  C17  1  0.12460000  0.66000000  0.14040000  1
  C  C18  1  0.69640000  0.94950000  0.84910000  1
  C  C19  1  0.50500000  0.44950000  0.34910000  1
  C  C20  1  0.08810000  0.84600000  0.90700000  1
  C  C21  1  0.15890000  0.34600000  0.40700000  1
  C  C22  1  0.96170000  0.10160000  0.63180000  1
  C  C23  1  0.30490000  0.60160000  0.13180000  1
  C  C24  1  0.89120000  0.20220000  0.43040000  1
  C  C25  1  0.47620000  0.70220000  0.93040000  1
  C  C26  1  0.07200000  0.72400000  0.87720000  1
  C  C27  1  0.32680000  0.22400000  0.37720000  1
  C  C28  1  0.15880000  0.67790000  0.91690000  1
  C  C29  1  0.24640000  0.17790000  0.41690000  1
  C  C30  1  0.91030000  0.16110000  0.35990000  1
  C  C31  1  0.56870000  0.66110000  0.85990000  1
  C  C32  1  0.07250000  0.16280000  0.34100000  1
  C  C33  1  0.42370000  0.66280000  0.84100000  1
  C  C34  1  0.92750000  0.83720000  0.65900000  1
  C  C35  1  0.57630000  0.33720000  0.15900000  1
  C  C36  1  0.08970000  0.83890000  0.64010000  1
  C  C37  1  0.43130000  0.33890000  0.14010000  1
  C  C38  1  0.84120000  0.32210000  0.08310000  1
  C  C39  1  0.75360000  0.82210000  0.58310000  1
  C  C40  1  0.92800000  0.27600000  0.12280000  1
  C  C41  1  0.67320000  0.77600000  0.62280000  1
  C  C42  1  0.10880000  0.79780000  0.56960000  1
  C  C43  1  0.52380000  0.29780000  0.06960000  1
  C  C44  1  0.03830000  0.89840000  0.36820000  1
  C  C45  1  0.69510000  0.39840000  0.86820000  1
  C  C46  1  0.91190000  0.15400000  0.09300000  1
  C  C47  1  0.84110000  0.65400000  0.59300000  1
  C  C48  1  0.30360000  0.05050000  0.15090000  1
  C  C49  1  0.49500000  0.55050000  0.65090000  1
  C  C50  1  0.92500000  0.84000000  0.35960000  1
  C  C51  1  0.87540000  0.34000000  0.85960000  1
  C  C52  1  0.95290000  0.90900000  0.27760000  1
  C  C53  1  0.86050000  0.40900000  0.77760000  1
  C  C54  1  0.40640000  0.54500000  0.61940000  1
  C  C55  1  0.42920000  0.04500000  0.11940000  1
  C  C56  1  0.11630000  0.56360000  0.56780000  1
  C  C57  1  0.75230000  0.06360000  0.06780000  1
  C  C58  1  0.44830000  0.54700000  0.51420000  1
  C  C59  1  0.49050000  0.04700000  0.01420000  1
  C  C60  1  0.14790000  0.62190000  0.41510000  1
  C  C61  1  0.81510000  0.12190000  0.91510000  1
  C  C62  1  0.20160000  0.48790000  0.52150000  1
  C  C63  1  0.78900000  0.98790000  0.02150000  1
  Co  Co64  1  0.89957000  0.94259000  0.81157000  1
  Co  Co65  1  0.34627000  0.44259000  0.31157000  1
  Co  Co66  1  0.10043000  0.05741000  0.18843000  1
  Co  Co67  1  0.65373000  0.55741000  0.68843000  1
  H  H68  1  0.85620000  0.33260000  0.64540000  1
  H  H69  1  0.16580000  0.83260000  0.14540000  1
  H  H70  1  0.78690000  0.91970000  0.05170000  1
  H  H71  1  0.24170000  0.41970000  0.55170000  1
  H  H72  1  0.61600000  0.44770000  0.50350000  1
  H  H73  1  0.43280000  0.94770000  0.00350000  1
  H  H74  1  0.55610000  0.88980000  0.02260000  1
  H  H75  1  0.53150000  0.38980000  0.52260000  1
  H  H76  1  0.60980000  0.51990000  0.34370000  1
  H  H77  1  0.52660000  0.01990000  0.84370000  1
  H  H78  1  0.07310000  0.07150000  0.77590000  1
  H  H79  1  0.07950000  0.57150000  0.27590000  1
  H  H80  1  0.07540000  0.91310000  0.91210000  1
  H  H81  1  0.09940000  0.41310000  0.41210000  1
  H  H82  1  0.05330000  0.69650000  0.12590000  1
  H  H83  1  0.12430000  0.19650000  0.62590000  1
  H  H84  1  0.91350000  0.44150000  0.36450000  1
  H  H85  1  0.28050000  0.94150000  0.86450000  1
  H  H86  1  0.66780000  0.39490000  0.36530000  1
  H  H87  1  0.57200000  0.89490000  0.86530000  1
  H  H88  1  0.81890000  0.22610000  0.47870000  1
  H  H89  1  0.47630000  0.72610000  0.97870000  1
  H  H90  1  0.91550000  0.09070000  0.60810000  1
  H  H91  1  0.38570000  0.59070000  0.10810000  1
  H  H92  1  0.04580000  0.68850000  0.85670000  1
  H  H93  1  0.40900000  0.18850000  0.35670000  1
  H  H94  1  0.20360000  0.60520000  0.92960000  1
  H  H95  1  0.26160000  0.10520000  0.42960000  1
  H  H96  1  0.84750000  0.84490000  0.68450000  1
  H  H97  1  0.62310000  0.34490000  0.18450000  1
  H  H98  1  0.85240000  0.15080000  0.35000000  1
  H  H99  1  0.64680000  0.65080000  0.85000000  1
  H  H100  1  0.14760000  0.84920000  0.65000000  1
  H  H101  1  0.35320000  0.34920000  0.15000000  1
  H  H102  1  0.15250000  0.15510000  0.31550000  1
  H  H103  1  0.37690000  0.65510000  0.81550000  1
  H  H104  1  0.79640000  0.39480000  0.07040000  1
  H  H105  1  0.73840000  0.89480000  0.57040000  1
  H  H106  1  0.95420000  0.31150000  0.14330000  1
  H  H107  1  0.59100000  0.81150000  0.64330000  1
  H  H108  1  0.08450000  0.90930000  0.39190000  1
  H  H109  1  0.61430000  0.40930000  0.89190000  1
  H  H110  1  0.18110000  0.77390000  0.52130000  1
  H  H111  1  0.52370000  0.27390000  0.02130000  1
  H  H112  1  0.33220000  0.60510000  0.63470000  1
  H  H113  1  0.42800000  0.10510000  0.13470000  1
  H  H114  1  0.08650000  0.55850000  0.63550000  1
  H  H115  1  0.71950000  0.05850000  0.13550000  1
  H  H116  1  0.94670000  0.30350000  0.87410000  1
  H  H117  1  0.87570000  0.80350000  0.37410000  1
  H  H118  1  0.92460000  0.08690000  0.08790000  1
  H  H119  1  0.90060000  0.58690000  0.58790000  1
  H  H120  1  0.92690000  0.92850000  0.22410000  1
  H  H121  1  0.92050000  0.42850000  0.72410000  1
  H  H122  1  0.39020000  0.48010000  0.65630000  1
  H  H123  1  0.47340000  0.98010000  0.15630000  1
  H  H124  1  0.44390000  0.11020000  0.97740000  1
  H  H125  1  0.46850000  0.61020000  0.47740000  1
  H  H126  1  0.38400000  0.55230000  0.49650000  1
  H  H127  1  0.56720000  0.05230000  0.99650000  1
  H  H128  1  0.21310000  0.08030000  0.94830000  1
  H  H129  1  0.75830000  0.58030000  0.44830000  1
  H  H130  1  0.14380000  0.66740000  0.35460000  1
  H  H131  1  0.83420000  0.16740000  0.85460000  1
  N  N132  1  0.82970000  0.02310000  0.92470000  1
  N  N133  1  0.22250000  0.52310000  0.42470000  1
  N  N134  1  0.92040000  0.34970000  0.50050000  1
  N  N135  1  0.22940000  0.84970000  0.00050000  1
  N  N136  1  0.97550000  0.05370000  0.71670000  1
  N  N137  1  0.25410000  0.55370000  0.21670000  1
  N  N138  1  0.01970000  0.16810000  0.58170000  1
  N  N139  1  0.23050000  0.66810000  0.08170000  1
  N  N140  1  0.02780000  0.82970000  0.87090000  1
  N  N141  1  0.27160000  0.32970000  0.37090000  1
  N  N142  1  0.13760000  0.25720000  0.43560000  1
  N  N143  1  0.16960000  0.75720000  0.93560000  1
  N  N144  1  0.99740000  0.20330000  0.41990000  1
  N  N145  1  0.37940000  0.70330000  0.91990000  1
  N  N146  1  0.97480000  0.86450000  0.69650000  1
  N  N147  1  0.46420000  0.36450000  0.19650000  1
  N  N148  1  0.02520000  0.13550000  0.30350000  1
  N  N149  1  0.53580000  0.63550000  0.80350000  1
  N  N150  1  0.00260000  0.79670000  0.58010000  1
  N  N151  1  0.62060000  0.29670000  0.08010000  1
  N  N152  1  0.86240000  0.74280000  0.56440000  1
  N  N153  1  0.83040000  0.24280000  0.06440000  1
  N  N154  1  0.97220000  0.17030000  0.12910000  1
  N  N155  1  0.72840000  0.67030000  0.62910000  1
  N  N156  1  0.98030000  0.83190000  0.41830000  1
  N  N157  1  0.76950000  0.33190000  0.91830000  1
  N  N158  1  0.02450000  0.94630000  0.28330000  1
  N  N159  1  0.74590000  0.44630000  0.78330000  1
  N  N160  1  0.07960000  0.65030000  0.49950000  1
  N  N161  1  0.77060000  0.15030000  0.99950000  1
  N  N162  1  0.17030000  0.97690000  0.07530000  1
  N  N163  1  0.77750000  0.47690000  0.57530000  1
  O  O164  1  0.72850000  0.01940000  0.78540000  1
  O  O165  1  0.46670000  0.51940000  0.28540000  1
  O  O166  1  0.76560000  0.87340000  0.88880000  1
  O  O167  1  0.47220000  0.37340000  0.38880000  1
  O  O168  1  0.23440000  0.12660000  0.11120000  1
  O  O169  1  0.52780000  0.62660000  0.61120000  1
  O  O170  1  0.27150000  0.98060000  0.21460000  1
  O  O171  1  0.53330000  0.48060000  0.71460000  1
