# generated using pymatgen
data_SrEu2H2C8O17
_symmetry_space_group_name_H-M   'P 1'
_cell_length_a   11.45200000
_cell_length_b   12.68500000
_cell_length_c   15.82900000
_cell_angle_alpha   90.00000000
_cell_angle_beta   90.00000000
_cell_angle_gamma   90.00000000
_symmetry_Int_Tables_number   1
_chemical_formula_structural   SrEu2H2C8O17
_chemical_formula_sum   'Sr4 Eu8 H8 C32 O68'
_cell_volume   2299.45698598
_cell_formula_units_Z   4
loop_
 _symmetry_equiv_pos_site_id
 _symmetry_equiv_pos_as_xyz
  1  'x, y, z'
loop_
 _atom_site_type_symbol
 _atom_site_label
 _atom_site_symmetry_multiplicity
 _atom_site_fract_x
 _atom_site_fract_y
 _atom_site_fract_z
 _atom_site_occupancy
  Sr  Sr0  1  0.75000000  0.62894000  0.67211000  1
  Sr  Sr1  1  0.75000000  0.87106000  0.17211000  1
  Sr  Sr2  1  0.25000000  0.12894000  0.82789000  1
  Sr  Sr3  1  0.25000000  0.37106000  0.32789000  1
  Eu  Eu4  1  0.75000000  0.97728000  0.92558000  1
  Eu  Eu5  1  0.75000000  0.47706000  0.92234000  1
  Eu  Eu6  1  0.75000000  0.52272000  0.42558000  1
  Eu  Eu7  1  0.75000000  0.02294000  0.42234000  1
  Eu  Eu8  1  0.25000000  0.97706000  0.57766000  1
  Eu  Eu9  1  0.25000000  0.47728000  0.57442000  1
  Eu  Eu10  1  0.25000000  0.52294000  0.07766000  1
  Eu  Eu11  1  0.25000000  0.02272000  0.07442000  1
  H  H12  1  0.81060000  0.40950000  0.75220000  1
  H  H13  1  0.81060000  0.09050000  0.25220000  1
  H  H14  1  0.68940000  0.40950000  0.75220000  1
  H  H15  1  0.68940000  0.09050000  0.25220000  1
  H  H16  1  0.31060000  0.90950000  0.74780000  1
  H  H17  1  0.31060000  0.59050000  0.24780000  1
  H  H18  1  0.18940000  0.90950000  0.74780000  1
  H  H19  1  0.18940000  0.59050000  0.24780000  1
  C  C20  1  0.97690000  0.02290000  0.54230000  1
  C  C21  1  0.97690000  0.47710000  0.04230000  1
  C  C22  1  0.97520000  0.48030000  0.54250000  1
  C  C23  1  0.97520000  0.01970000  0.04250000  1
  C  C24  1  0.81680000  0.22620000  0.90690000  1
  C  C25  1  0.81680000  0.27380000  0.40690000  1
  C  C26  1  0.75000000  0.72690000  0.97290000  1
  C  C27  1  0.75000000  0.73040000  0.87540000  1
  C  C28  1  0.75000000  0.77310000  0.47290000  1
  C  C29  1  0.75000000  0.76960000  0.37540000  1
  C  C30  1  0.68320000  0.22620000  0.90690000  1
  C  C31  1  0.68320000  0.27380000  0.40690000  1
  C  C32  1  0.52480000  0.48030000  0.54250000  1
  C  C33  1  0.52480000  0.01970000  0.04250000  1
  C  C34  1  0.52310000  0.02290000  0.54230000  1
  C  C35  1  0.52310000  0.47710000  0.04230000  1
  C  C36  1  0.47690000  0.52290000  0.95770000  1
  C  C37  1  0.47690000  0.97710000  0.45770000  1
  C  C38  1  0.47520000  0.98030000  0.95750000  1
  C  C39  1  0.47520000  0.51970000  0.45750000  1
  C  C40  1  0.31680000  0.72620000  0.59310000  1
  C  C41  1  0.31680000  0.77380000  0.09310000  1
  C  C42  1  0.25000000  0.23040000  0.62460000  1
  C  C43  1  0.25000000  0.22690000  0.52710000  1
  C  C44  1  0.25000000  0.26960000  0.12460000  1
  C  C45  1  0.25000000  0.27310000  0.02710000  1
  C  C46  1  0.18320000  0.72620000  0.59310000  1
  C  C47  1  0.18320000  0.77380000  0.09310000  1
  C  C48  1  0.02480000  0.98030000  0.95750000  1
  C  C49  1  0.02480000  0.51970000  0.45750000  1
  C  C50  1  0.02310000  0.52290000  0.95770000  1
  C  C51  1  0.02310000  0.97710000  0.45770000  1
  O  O52  1  0.95530000  0.93490000  0.90820000  1
  O  O53  1  0.95530000  0.56510000  0.40820000  1
  O  O54  1  0.94960000  0.53100000  0.89870000  1
  O  O55  1  0.94960000  0.96900000  0.39870000  1
  O  O56  1  0.87330000  0.04640000  0.54580000  1
  O  O57  1  0.87330000  0.45360000  0.04580000  1
  O  O58  1  0.86820000  0.49640000  0.55500000  1
  O  O59  1  0.86820000  0.00360000  0.05500000  1
  O  O60  1  0.86640000  0.31460000  0.90700000  1
  O  O61  1  0.86640000  0.18540000  0.40700000  1
  O  O62  1  0.86560000  0.13820000  0.90470000  1
  O  O63  1  0.86560000  0.36180000  0.40470000  1
  O  O64  1  0.75000000  0.81790000  0.84180000  1
  O  O65  1  0.75000000  0.64230000  0.83830000  1
  O  O66  1  0.75000000  0.44320000  0.76460000  1
  O  O67  1  0.75000000  0.68560000  0.50890000  1
  O  O68  1  0.75000000  0.86010000  0.50790000  1
  O  O69  1  0.75000000  0.68210000  0.34180000  1
  O  O70  1  0.75000000  0.85770000  0.33830000  1
  O  O71  1  0.75000000  0.05680000  0.26460000  1
  O  O72  1  0.75000000  0.81440000  0.00890000  1
  O  O73  1  0.75000000  0.63990000  0.00790000  1
  O  O74  1  0.63440000  0.13820000  0.90470000  1
  O  O75  1  0.63440000  0.36180000  0.40470000  1
  O  O76  1  0.63360000  0.31460000  0.90700000  1
  O  O77  1  0.63360000  0.18540000  0.40700000  1
  O  O78  1  0.63180000  0.49640000  0.55500000  1
  O  O79  1  0.63180000  0.00360000  0.05500000  1
  O  O80  1  0.62670000  0.04640000  0.54580000  1
  O  O81  1  0.62670000  0.45360000  0.04580000  1
  O  O82  1  0.55040000  0.53100000  0.89870000  1
  O  O83  1  0.55040000  0.96900000  0.39870000  1
  O  O84  1  0.54470000  0.93490000  0.90820000  1
  O  O85  1  0.54470000  0.56510000  0.40820000  1
  O  O86  1  0.45530000  0.43490000  0.59180000  1
  O  O87  1  0.45530000  0.06510000  0.09180000  1
  O  O88  1  0.44960000  0.03100000  0.60130000  1
  O  O89  1  0.44960000  0.46900000  0.10130000  1
  O  O90  1  0.37330000  0.54640000  0.95420000  1
  O  O91  1  0.37330000  0.95360000  0.45420000  1
  O  O92  1  0.36820000  0.99640000  0.94500000  1
  O  O93  1  0.36820000  0.50360000  0.44500000  1
  O  O94  1  0.36640000  0.81460000  0.59300000  1
  O  O95  1  0.36640000  0.68540000  0.09300000  1
  O  O96  1  0.36560000  0.63820000  0.59530000  1
  O  O97  1  0.36560000  0.86180000  0.09530000  1
  O  O98  1  0.25000000  0.36010000  0.99210000  1
  O  O99  1  0.25000000  0.18560000  0.99110000  1
  O  O100  1  0.25000000  0.94320000  0.73540000  1
  O  O101  1  0.25000000  0.14230000  0.66170000  1
  O  O102  1  0.25000000  0.31790000  0.65820000  1
  O  O103  1  0.25000000  0.13990000  0.49210000  1
  O  O104  1  0.25000000  0.31440000  0.49110000  1
  O  O105  1  0.25000000  0.55680000  0.23540000  1
  O  O106  1  0.25000000  0.35770000  0.16170000  1
  O  O107  1  0.25000000  0.18210000  0.15820000  1
  O  O108  1  0.13440000  0.63820000  0.59530000  1
  O  O109  1  0.13440000  0.86180000  0.09530000  1
  O  O110  1  0.13360000  0.81460000  0.59300000  1
  O  O111  1  0.13360000  0.68540000  0.09300000  1
  O  O112  1  0.13180000  0.99640000  0.94500000  1
  O  O113  1  0.13180000  0.50360000  0.44500000  1
  O  O114  1  0.12670000  0.54640000  0.95420000  1
  O  O115  1  0.12670000  0.95360000  0.45420000  1
  O  O116  1  0.05040000  0.03100000  0.60130000  1
  O  O117  1  0.05040000  0.46900000  0.10130000  1
  O  O118  1  0.04470000  0.43490000  0.59180000  1
  O  O119  1  0.04470000  0.06510000  0.09180000  1
