# generated using pymatgen
data_Cu9(C19O9)4
_symmetry_space_group_name_H-M   'P 1'
_cell_length_a   21.09349026
_cell_length_b   21.09349026
_cell_length_c   21.09349026
_cell_angle_alpha   60.00000000
_cell_angle_beta   60.00000000
_cell_angle_gamma   60.00000000
_symmetry_Int_Tables_number   1
_chemical_formula_structural   Cu9(C19O9)4
_chemical_formula_sum   'Cu18 C152 O72'
_cell_volume   6636.36619289
_cell_formula_units_Z   2
loop_
 _symmetry_equiv_pos_site_id
 _symmetry_equiv_pos_as_xyz
  1  'x, y, z'
loop_
 _atom_site_type_symbol
 _atom_site_label
 _atom_site_symmetry_multiplicity
 _atom_site_fract_x
 _atom_site_fract_y
 _atom_site_fract_z
 _atom_site_occupancy
  C  C0  1  0.02460000  0.85020000  0.61280000  1
  C  C1  1  0.48760000  0.38720000  0.14980000  1
  C  C2  1  0.02460000  0.85020000  0.51240000  1
  C  C3  1  0.38720000  0.48760000  0.14980000  1
  C  C4  1  0.85020000  0.02460000  0.61280000  1
  C  C5  1  0.48760000  0.38720000  0.97540000  1
  C  C6  1  0.85020000  0.02460000  0.51240000  1
  C  C7  1  0.38720000  0.48760000  0.97540000  1
  C  C8  1  0.02820000  0.76920000  0.65500000  1
  C  C9  1  0.45240000  0.34500000  0.23080000  1
  C  C10  1  0.02820000  0.76920000  0.54760000  1
  C  C11  1  0.34500000  0.45240000  0.23080000  1
  C  C12  1  0.76920000  0.02820000  0.65500000  1
  C  C13  1  0.45240000  0.34500000  0.97180000  1
  C  C14  1  0.76920000  0.02820000  0.54760000  1
  C  C15  1  0.34500000  0.45240000  0.97180000  1
  C  C16  1  0.03280000  0.73360000  0.61680000  1
  C  C17  1  0.38320000  0.38320000  0.26640000  1
  C  C18  1  0.73360000  0.03280000  0.61680000  1
  C  C19  1  0.38320000  0.38320000  0.96720000  1
  C  C20  1  0.01700000  0.73600000  0.73600000  1
  C  C21  1  0.48900000  0.26400000  0.26400000  1
  C  C22  1  0.01700000  0.73600000  0.51100000  1
  C  C23  1  0.26400000  0.48900000  0.26400000  1
  C  C24  1  0.73600000  0.01700000  0.73600000  1
  C  C25  1  0.48900000  0.26400000  0.98300000  1
  C  C26  1  0.73600000  0.01700000  0.51100000  1
  C  C27  1  0.26400000  0.48900000  0.98300000  1
  C  C28  1  0.02660000  0.65780000  0.65780000  1
  C  C29  1  0.34220000  0.34220000  0.34220000  1
  C  C30  1  0.65780000  0.02660000  0.65780000  1
  C  C31  1  0.34220000  0.34220000  0.97340000  1
  C  C32  1  0.02820000  0.65500000  0.76920000  1
  C  C33  1  0.45240000  0.23080000  0.34500000  1
  C  C34  1  0.02820000  0.65500000  0.54760000  1
  C  C35  1  0.23080000  0.45240000  0.34500000  1
  C  C36  1  0.65500000  0.02820000  0.76920000  1
  C  C37  1  0.45240000  0.23080000  0.97180000  1
  C  C38  1  0.65500000  0.02820000  0.54760000  1
  C  C39  1  0.23080000  0.45240000  0.97180000  1
  C  C40  1  0.03280000  0.61680000  0.73360000  1
  C  C41  1  0.38320000  0.26640000  0.38320000  1
  C  C42  1  0.03280000  0.61680000  0.61680000  1
  C  C43  1  0.26640000  0.38320000  0.38320000  1
  C  C44  1  0.61680000  0.03280000  0.73360000  1
  C  C45  1  0.38320000  0.26640000  0.96720000  1
  C  C46  1  0.61680000  0.03280000  0.61680000  1
  C  C47  1  0.26640000  0.38320000  0.96720000  1
  C  C48  1  0.02460000  0.61280000  0.85020000  1
  C  C49  1  0.48760000  0.14980000  0.38720000  1
  C  C50  1  0.02460000  0.61280000  0.51240000  1
  C  C51  1  0.14980000  0.48760000  0.38720000  1
  C  C52  1  0.61280000  0.02460000  0.85020000  1
  C  C53  1  0.48760000  0.14980000  0.97540000  1
  C  C54  1  0.61280000  0.02460000  0.51240000  1
  C  C55  1  0.14980000  0.48760000  0.97540000  1
  C  C56  1  0.02820000  0.54760000  0.76920000  1
  C  C57  1  0.34500000  0.23080000  0.45240000  1
  C  C58  1  0.02820000  0.54760000  0.65500000  1
  C  C59  1  0.23080000  0.34500000  0.45240000  1
  C  C60  1  0.54760000  0.02820000  0.76920000  1
  C  C61  1  0.34500000  0.23080000  0.97180000  1
  C  C62  1  0.54760000  0.02820000  0.65500000  1
  C  C63  1  0.23080000  0.34500000  0.97180000  1
  C  C64  1  0.02460000  0.51240000  0.85020000  1
  C  C65  1  0.38720000  0.14980000  0.48760000  1
  C  C66  1  0.02460000  0.51240000  0.61280000  1
  C  C67  1  0.14980000  0.38720000  0.48760000  1
  C  C68  1  0.51240000  0.02460000  0.85020000  1
  C  C69  1  0.38720000  0.14980000  0.97540000  1
  C  C70  1  0.51240000  0.02460000  0.61280000  1
  C  C71  1  0.14980000  0.38720000  0.97540000  1
  C  C72  1  0.01700000  0.51100000  0.73600000  1
  C  C73  1  0.26400000  0.26400000  0.48900000  1
  C  C74  1  0.51100000  0.01700000  0.73600000  1
  C  C75  1  0.26400000  0.26400000  0.98300000  1
  C  C76  1  0.73600000  0.73600000  0.01700000  1
  C  C77  1  0.48900000  0.98300000  0.26400000  1
  C  C78  1  0.73600000  0.73600000  0.51100000  1
  C  C79  1  0.98300000  0.48900000  0.26400000  1
  C  C80  1  0.85020000  0.61280000  0.02460000  1
  C  C81  1  0.48760000  0.97540000  0.38720000  1
  C  C82  1  0.61280000  0.85020000  0.02460000  1
  C  C83  1  0.48760000  0.97540000  0.14980000  1
  C  C84  1  0.85020000  0.61280000  0.51240000  1
  C  C85  1  0.97540000  0.48760000  0.38720000  1
  C  C86  1  0.61280000  0.85020000  0.51240000  1
  C  C87  1  0.97540000  0.48760000  0.14980000  1
  C  C88  1  0.76920000  0.65500000  0.02820000  1
  C  C89  1  0.45240000  0.97180000  0.34500000  1
  C  C90  1  0.65500000  0.76920000  0.02820000  1
  C  C91  1  0.45240000  0.97180000  0.23080000  1
  C  C92  1  0.76920000  0.65500000  0.54760000  1
  C  C93  1  0.97180000  0.45240000  0.34500000  1
  C  C94  1  0.65500000  0.76920000  0.54760000  1
  C  C95  1  0.97180000  0.45240000  0.23080000  1
  C  C96  1  0.85020000  0.51240000  0.02460000  1
  C  C97  1  0.38720000  0.97540000  0.48760000  1
  C  C98  1  0.51240000  0.85020000  0.02460000  1
  C  C99  1  0.38720000  0.97540000  0.14980000  1
  C  C100  1  0.85020000  0.51240000  0.61280000  1
  C  C101  1  0.97540000  0.38720000  0.48760000  1
  C  C102  1  0.51240000  0.85020000  0.61280000  1
  C  C103  1  0.97540000  0.38720000  0.14980000  1
  C  C104  1  0.73360000  0.61680000  0.03280000  1
  C  C105  1  0.38320000  0.96720000  0.38320000  1
  C  C106  1  0.61680000  0.73360000  0.03280000  1
  C  C107  1  0.38320000  0.96720000  0.26640000  1
  C  C108  1  0.73360000  0.61680000  0.61680000  1
  C  C109  1  0.96720000  0.38320000  0.38320000  1
  C  C110  1  0.61680000  0.73360000  0.61680000  1
  C  C111  1  0.96720000  0.38320000  0.26640000  1
  C  C112  1  0.76920000  0.54760000  0.02820000  1
  C  C113  1  0.34500000  0.97180000  0.45240000  1
  C  C114  1  0.54760000  0.76920000  0.02820000  1
  C  C115  1  0.34500000  0.97180000  0.23080000  1
  C  C116  1  0.76920000  0.54760000  0.65500000  1
  C  C117  1  0.97180000  0.34500000  0.45240000  1
  C  C118  1  0.54760000  0.76920000  0.65500000  1
  C  C119  1  0.97180000  0.34500000  0.23080000  1
  C  C120  1  0.65780000  0.65780000  0.02660000  1
  C  C121  1  0.34220000  0.97340000  0.34220000  1
  C  C122  1  0.65780000  0.65780000  0.65780000  1
  C  C123  1  0.97340000  0.34220000  0.34220000  1
  C  C124  1  0.73600000  0.51100000  0.01700000  1
  C  C125  1  0.26400000  0.98300000  0.48900000  1
  C  C126  1  0.51100000  0.73600000  0.01700000  1
  C  C127  1  0.26400000  0.98300000  0.26400000  1
  C  C128  1  0.73600000  0.51100000  0.73600000  1
  C  C129  1  0.98300000  0.26400000  0.48900000  1
  C  C130  1  0.51100000  0.73600000  0.73600000  1
  C  C131  1  0.98300000  0.26400000  0.26400000  1
  C  C132  1  0.61680000  0.61680000  0.03280000  1
  C  C133  1  0.26640000  0.96720000  0.38320000  1
  C  C134  1  0.61680000  0.61680000  0.73360000  1
  C  C135  1  0.96720000  0.26640000  0.38320000  1
  C  C136  1  0.65500000  0.54760000  0.02820000  1
  C  C137  1  0.23080000  0.97180000  0.45240000  1
  C  C138  1  0.54760000  0.65500000  0.02820000  1
  C  C139  1  0.23080000  0.97180000  0.34500000  1
  C  C140  1  0.65500000  0.54760000  0.76920000  1
  C  C141  1  0.97180000  0.23080000  0.45240000  1
  C  C142  1  0.54760000  0.65500000  0.76920000  1
  C  C143  1  0.97180000  0.23080000  0.34500000  1
  C  C144  1  0.61280000  0.51240000  0.02460000  1
  C  C145  1  0.14980000  0.97540000  0.48760000  1
  C  C146  1  0.51240000  0.61280000  0.02460000  1
  C  C147  1  0.14980000  0.97540000  0.38720000  1
  C  C148  1  0.61280000  0.51240000  0.85020000  1
  C  C149  1  0.97540000  0.14980000  0.48760000  1
  C  C150  1  0.51240000  0.61280000  0.85020000  1
  C  C151  1  0.97540000  0.14980000  0.38720000  1
  Cu  Cu152  1  1.00000000  0.00000000  0.61230000  1
  Cu  Cu153  1  0.61230000  0.38770000  0.00000000  1
  Cu  Cu154  1  1.00000000  1.00000000  0.50000000  1
  Cu  Cu155  1  0.50000000  0.50000000  0.00000000  1
  Cu  Cu156  1  1.00000000  0.00000000  0.38770000  1
  Cu  Cu157  1  0.38770000  0.61230000  0.00000000  1
  Cu  Cu158  1  0.00000000  0.61230000  1.00000000  1
  Cu  Cu159  1  0.61230000  0.00000000  0.38770000  1
  Cu  Cu160  1  0.61230000  1.00000000  1.00000000  1
  Cu  Cu161  1  0.00000000  0.61230000  0.38770000  1
  Cu  Cu162  1  0.00000000  0.50000000  1.00000000  1
  Cu  Cu163  1  0.50000000  1.00000000  0.50000000  1
  Cu  Cu164  1  0.50000000  1.00000000  1.00000000  1
  Cu  Cu165  1  0.00000000  0.50000000  0.50000000  1
  Cu  Cu166  1  1.00000000  0.38770000  0.00000000  1
  Cu  Cu167  1  0.38770000  1.00000000  0.61230000  1
  Cu  Cu168  1  0.00000000  0.38770000  0.61230000  1
  Cu  Cu169  1  0.38770000  0.00000000  0.00000000  1
  O  O170  1  0.01880000  0.90040000  0.64360000  1
  O  O171  1  0.56280000  0.35640000  0.09960000  1
  O  O172  1  0.90040000  0.01880000  0.64360000  1
  O  O173  1  0.56280000  0.35640000  0.98120000  1
  O  O174  1  0.01880000  0.90040000  0.43720000  1
  O  O175  1  0.35640000  0.56280000  0.09960000  1
  O  O176  1  0.90040000  0.01880000  0.43720000  1
  O  O177  1  0.35640000  0.56280000  0.98120000  1
  O  O178  1  0.01770000  0.89490000  0.54370000  1
  O  O179  1  0.45630000  0.45630000  0.10510000  1
  O  O180  1  0.89490000  0.01770000  0.54370000  1
  O  O181  1  0.45630000  0.45630000  0.98230000  1
  O  O182  1  0.01880000  0.64360000  0.90040000  1
  O  O183  1  0.56280000  0.09960000  0.35640000  1
  O  O184  1  0.64360000  0.01880000  0.90040000  1
  O  O185  1  0.56280000  0.09960000  0.98120000  1
  O  O186  1  0.01880000  0.64360000  0.43720000  1
  O  O187  1  0.09960000  0.56280000  0.35640000  1
  O  O188  1  0.64360000  0.01880000  0.43720000  1
  O  O189  1  0.09960000  0.56280000  0.98120000  1
  O  O190  1  0.01770000  0.54370000  0.89490000  1
  O  O191  1  0.45630000  0.10510000  0.45630000  1
  O  O192  1  0.01770000  0.54370000  0.54370000  1
  O  O193  1  0.10510000  0.45630000  0.45630000  1
  O  O194  1  0.54370000  0.01770000  0.89490000  1
  O  O195  1  0.45630000  0.10510000  0.98230000  1
  O  O196  1  0.54370000  0.01770000  0.54370000  1
  O  O197  1  0.10510000  0.45630000  0.98230000  1
  O  O198  1  0.90040000  0.64360000  0.01880000  1
  O  O199  1  0.56280000  0.98120000  0.35640000  1
  O  O200  1  0.64360000  0.90040000  0.01880000  1
  O  O201  1  0.56280000  0.98120000  0.09960000  1
  O  O202  1  0.90040000  0.64360000  0.43720000  1
  O  O203  1  0.98120000  0.56280000  0.35640000  1
  O  O204  1  0.64360000  0.90040000  0.43720000  1
  O  O205  1  0.98120000  0.56280000  0.09960000  1
  O  O206  1  0.01880000  0.43720000  0.90040000  1
  O  O207  1  0.35640000  0.09960000  0.56280000  1
  O  O208  1  0.01880000  0.43720000  0.64360000  1
  O  O209  1  0.09960000  0.35640000  0.56280000  1
  O  O210  1  0.43720000  0.01880000  0.90040000  1
  O  O211  1  0.35640000  0.09960000  0.98120000  1
  O  O212  1  0.43720000  0.01880000  0.64360000  1
  O  O213  1  0.09960000  0.35640000  0.98120000  1
  O  O214  1  0.89490000  0.54370000  0.01770000  1
  O  O215  1  0.45630000  0.98230000  0.45630000  1
  O  O216  1  0.54370000  0.89490000  0.01770000  1
  O  O217  1  0.45630000  0.98230000  0.10510000  1
  O  O218  1  0.89490000  0.54370000  0.54370000  1
  O  O219  1  0.98230000  0.45630000  0.45630000  1
  O  O220  1  0.54370000  0.89490000  0.54370000  1
  O  O221  1  0.98230000  0.45630000  0.10510000  1
  O  O222  1  0.90040000  0.43720000  0.01880000  1
  O  O223  1  0.35640000  0.98120000  0.56280000  1
  O  O224  1  0.90040000  0.43720000  0.64360000  1
  O  O225  1  0.98120000  0.35640000  0.56280000  1
  O  O226  1  0.43720000  0.90040000  0.01880000  1
  O  O227  1  0.35640000  0.98120000  0.09960000  1
  O  O228  1  0.43720000  0.90040000  0.64360000  1
  O  O229  1  0.98120000  0.35640000  0.09960000  1
  O  O230  1  0.54370000  0.54370000  0.01770000  1
  O  O231  1  0.10510000  0.98230000  0.45630000  1
  O  O232  1  0.54370000  0.54370000  0.89490000  1
  O  O233  1  0.98230000  0.10510000  0.45630000  1
  O  O234  1  0.64360000  0.43720000  0.01880000  1
  O  O235  1  0.09960000  0.98120000  0.56280000  1
  O  O236  1  0.64360000  0.43720000  0.90040000  1
  O  O237  1  0.98120000  0.09960000  0.56280000  1
  O  O238  1  0.43720000  0.64360000  0.01880000  1
  O  O239  1  0.09960000  0.98120000  0.35640000  1
  O  O240  1  0.43720000  0.64360000  0.90040000  1
  O  O241  1  0.98120000  0.09960000  0.35640000  1
