# generated using pymatgen
data_CaHC3SO4
_symmetry_space_group_name_H-M   'P 1'
_cell_length_a   12.88000000
_cell_length_b   16.87000000
_cell_length_c   17.40700000
_cell_angle_alpha   90.00000000
_cell_angle_beta   90.00000000
_cell_angle_gamma   90.00000000
_symmetry_Int_Tables_number   1
_chemical_formula_structural   CaHC3SO4
_chemical_formula_sum   'Ca16 H16 C48 S16 O64'
_cell_volume   3782.29043920
_cell_formula_units_Z   16
loop_
 _symmetry_equiv_pos_site_id
 _symmetry_equiv_pos_as_xyz
  1  'x, y, z'
loop_
 _atom_site_type_symbol
 _atom_site_label
 _atom_site_symmetry_multiplicity
 _atom_site_fract_x
 _atom_site_fract_y
 _atom_site_fract_z
 _atom_site_occupancy
  Ca  Ca0  1  0.12570000  0.03199000  0.04155000  1
  Ca  Ca1  1  0.12570000  0.53199000  0.95845000  1
  Ca  Ca2  1  0.23855000  0.14185000  0.86429000  1
  Ca  Ca3  1  0.23855000  0.64185000  0.13571000  1
  Ca  Ca4  1  0.26145000  0.14185000  0.36429000  1
  Ca  Ca5  1  0.26145000  0.64185000  0.63571000  1
  Ca  Ca6  1  0.37430000  0.03199000  0.54155000  1
  Ca  Ca7  1  0.37430000  0.53199000  0.45845000  1
  Ca  Ca8  1  0.62570000  0.46801000  0.54155000  1
  Ca  Ca9  1  0.62570000  0.96801000  0.45845000  1
  Ca  Ca10  1  0.73855000  0.35815000  0.36429000  1
  Ca  Ca11  1  0.73855000  0.85815000  0.63571000  1
  Ca  Ca12  1  0.76145000  0.35815000  0.86429000  1
  Ca  Ca13  1  0.76145000  0.85815000  0.13571000  1
  Ca  Ca14  1  0.87430000  0.46801000  0.04155000  1
  Ca  Ca15  1  0.87430000  0.96801000  0.95845000  1
  H  H16  1  0.09650000  0.27780000  0.94230000  1
  H  H17  1  0.09650000  0.77780000  0.05770000  1
  H  H18  1  0.20360000  0.31600000  0.19440000  1
  H  H19  1  0.20360000  0.81600000  0.80560000  1
  H  H20  1  0.29640000  0.31600000  0.69440000  1
  H  H21  1  0.29640000  0.81600000  0.30560000  1
  H  H22  1  0.40350000  0.27780000  0.44230000  1
  H  H23  1  0.40350000  0.77780000  0.55770000  1
  H  H24  1  0.59650000  0.22220000  0.44230000  1
  H  H25  1  0.59650000  0.72220000  0.55770000  1
  H  H26  1  0.70360000  0.18400000  0.69440000  1
  H  H27  1  0.70360000  0.68400000  0.30560000  1
  H  H28  1  0.79640000  0.18400000  0.19440000  1
  H  H29  1  0.79640000  0.68400000  0.80560000  1
  H  H30  1  0.90350000  0.22220000  0.94230000  1
  H  H31  1  0.90350000  0.72220000  0.05770000  1
  C  C32  1  0.09216000  0.35647000  0.02875000  1
  C  C33  1  0.09216000  0.85647000  0.97125000  1
  C  C34  1  0.11665000  0.28498000  0.99310000  1
  C  C35  1  0.11665000  0.78498000  0.00690000  1
  C  C36  1  0.12730000  0.36682000  0.10606000  1
  C  C37  1  0.12730000  0.86682000  0.89394000  1
  C  C38  1  0.17011000  0.22303000  0.02981000  1
  C  C39  1  0.17011000  0.72303000  0.97019000  1
  C  C40  1  0.18130000  0.30787000  0.14416000  1
  C  C41  1  0.18130000  0.80787000  0.85584000  1
  C  C42  1  0.20230000  0.23640000  0.10736000  1
  C  C43  1  0.20230000  0.73640000  0.89264000  1
  C  C44  1  0.29770000  0.23640000  0.60736000  1
  C  C45  1  0.29770000  0.73640000  0.39264000  1
  C  C46  1  0.31870000  0.30787000  0.64416000  1
  C  C47  1  0.31870000  0.80787000  0.35584000  1
  C  C48  1  0.32989000  0.22303000  0.52981000  1
  C  C49  1  0.32989000  0.72303000  0.47019000  1
  C  C50  1  0.37270000  0.36682000  0.60606000  1
  C  C51  1  0.37270000  0.86682000  0.39394000  1
  C  C52  1  0.38335000  0.28498000  0.49310000  1
  C  C53  1  0.38335000  0.78498000  0.50690000  1
  C  C54  1  0.40784000  0.35647000  0.52875000  1
  C  C55  1  0.40784000  0.85647000  0.47125000  1
  C  C56  1  0.59216000  0.14353000  0.52875000  1
  C  C57  1  0.59216000  0.64353000  0.47125000  1
  C  C58  1  0.61665000  0.21502000  0.49310000  1
  C  C59  1  0.61665000  0.71502000  0.50690000  1
  C  C60  1  0.62730000  0.13318000  0.60606000  1
  C  C61  1  0.62730000  0.63318000  0.39394000  1
  C  C62  1  0.67011000  0.27697000  0.52981000  1
  C  C63  1  0.67011000  0.77697000  0.47019000  1
  C  C64  1  0.68130000  0.19213000  0.64416000  1
  C  C65  1  0.68130000  0.69213000  0.35584000  1
  C  C66  1  0.70230000  0.26360000  0.60736000  1
  C  C67  1  0.70230000  0.76360000  0.39264000  1
  C  C68  1  0.79770000  0.26360000  0.10736000  1
  C  C69  1  0.79770000  0.76360000  0.89264000  1
  C  C70  1  0.81870000  0.19213000  0.14416000  1
  C  C71  1  0.81870000  0.69213000  0.85584000  1
  C  C72  1  0.82989000  0.27697000  0.02981000  1
  C  C73  1  0.82989000  0.77697000  0.97019000  1
  C  C74  1  0.87270000  0.13318000  0.10606000  1
  C  C75  1  0.87270000  0.63318000  0.89394000  1
  C  C76  1  0.88335000  0.21502000  0.99310000  1
  C  C77  1  0.88335000  0.71502000  0.00690000  1
  C  C78  1  0.90784000  0.14353000  0.02875000  1
  C  C79  1  0.90784000  0.64353000  0.97125000  1
  S  S80  1  0.10479000  0.45834000  0.14932000  1
  S  S81  1  0.10479000  0.95834000  0.85068000  1
  S  S82  1  0.22250000  0.16419000  0.65259000  1
  S  S83  1  0.22250000  0.66419000  0.34741000  1
  S  S84  1  0.27750000  0.16419000  0.15259000  1
  S  S85  1  0.27750000  0.66419000  0.84741000  1
  S  S86  1  0.39521000  0.45834000  0.64932000  1
  S  S87  1  0.39521000  0.95834000  0.35068000  1
  S  S88  1  0.60479000  0.04166000  0.64932000  1
  S  S89  1  0.60479000  0.54166000  0.35068000  1
  S  S90  1  0.72250000  0.33581000  0.15259000  1
  S  S91  1  0.72250000  0.83581000  0.84741000  1
  S  S92  1  0.77750000  0.33581000  0.65259000  1
  S  S93  1  0.77750000  0.83581000  0.34741000  1
  S  S94  1  0.89521000  0.04166000  0.14932000  1
  S  S95  1  0.89521000  0.54166000  0.85068000  1
  O  O96  1  0.00725000  0.02748000  0.14931000  1
  O  O97  1  0.00725000  0.52748000  0.85069000  1
  O  O98  1  0.03933000  0.41310000  0.99289000  1
  O  O99  1  0.03933000  0.91310000  0.00711000  1
  O  O100  1  0.12258000  0.16135000  0.61272000  1
  O  O101  1  0.12258000  0.66135000  0.38728000  1
  O  O102  1  0.14818000  0.45619000  0.22645000  1
  O  O103  1  0.14818000  0.95619000  0.77355000  1
  O  O104  1  0.15918000  0.01707000  0.89934000  1
  O  O105  1  0.15918000  0.51707000  0.10066000  1
  O  O106  1  0.19000000  0.15588000  0.99484000  1
  O  O107  1  0.19000000  0.65588000  0.00516000  1
  O  O108  1  0.20997000  0.18839000  0.73266000  1
  O  O109  1  0.20997000  0.68839000  0.26734000  1
  O  O110  1  0.22280000  0.08852000  0.14644000  1
  O  O111  1  0.22280000  0.58852000  0.85356000  1
  O  O112  1  0.27720000  0.08852000  0.64644000  1
  O  O113  1  0.27720000  0.58852000  0.35356000  1
  O  O114  1  0.29003000  0.18839000  0.23266000  1
  O  O115  1  0.29003000  0.68839000  0.76734000  1
  O  O116  1  0.31000000  0.15588000  0.49484000  1
  O  O117  1  0.31000000  0.65588000  0.50516000  1
  O  O118  1  0.34082000  0.01707000  0.39934000  1
  O  O119  1  0.34082000  0.51707000  0.60066000  1
  O  O120  1  0.35182000  0.45619000  0.72645000  1
  O  O121  1  0.35182000  0.95619000  0.27355000  1
  O  O122  1  0.37742000  0.16135000  0.11272000  1
  O  O123  1  0.37742000  0.66135000  0.88728000  1
  O  O124  1  0.46067000  0.41310000  0.49289000  1
  O  O125  1  0.46067000  0.91310000  0.50711000  1
  O  O126  1  0.49275000  0.02748000  0.64931000  1
  O  O127  1  0.49275000  0.52748000  0.35069000  1
  O  O128  1  0.50725000  0.47252000  0.64931000  1
  O  O129  1  0.50725000  0.97252000  0.35069000  1
  O  O130  1  0.53933000  0.08690000  0.49289000  1
  O  O131  1  0.53933000  0.58690000  0.50711000  1
  O  O132  1  0.62258000  0.33865000  0.11272000  1
  O  O133  1  0.62258000  0.83865000  0.88728000  1
  O  O134  1  0.64818000  0.04381000  0.72645000  1
  O  O135  1  0.64818000  0.54381000  0.27355000  1
  O  O136  1  0.65918000  0.48293000  0.39934000  1
  O  O137  1  0.65918000  0.98293000  0.60066000  1
  O  O138  1  0.69000000  0.34412000  0.49484000  1
  O  O139  1  0.69000000  0.84412000  0.50516000  1
  O  O140  1  0.70997000  0.31161000  0.23266000  1
  O  O141  1  0.70997000  0.81161000  0.76734000  1
  O  O142  1  0.72280000  0.41148000  0.64644000  1
  O  O143  1  0.72280000  0.91148000  0.35356000  1
  O  O144  1  0.77720000  0.41148000  0.14644000  1
  O  O145  1  0.77720000  0.91148000  0.85356000  1
  O  O146  1  0.79003000  0.31161000  0.73266000  1
  O  O147  1  0.79003000  0.81161000  0.26734000  1
  O  O148  1  0.81000000  0.34412000  0.99484000  1
  O  O149  1  0.81000000  0.84412000  0.00516000  1
  O  O150  1  0.84082000  0.48293000  0.89934000  1
  O  O151  1  0.84082000  0.98293000  0.10066000  1
  O  O152  1  0.85182000  0.04381000  0.22645000  1
  O  O153  1  0.85182000  0.54381000  0.77355000  1
  O  O154  1  0.87742000  0.33865000  0.61272000  1
  O  O155  1  0.87742000  0.83865000  0.38728000  1
  O  O156  1  0.96067000  0.08690000  0.99289000  1
  O  O157  1  0.96067000  0.58690000  0.00711000  1
  O  O158  1  0.99275000  0.47252000  0.14931000  1
  O  O159  1  0.99275000  0.97252000  0.85069000  1
