# generated using pymatgen
data_Co7H28C54(N3O14)2
_symmetry_space_group_name_H-M   'P 1'
_cell_length_a   21.74677763
_cell_length_b   21.74677763
_cell_length_c   30.27830000
_cell_angle_alpha   90.00000000
_cell_angle_beta   90.00000000
_cell_angle_gamma   111.05919986
_symmetry_Int_Tables_number   1
_chemical_formula_structural   Co7H28C54(N3O14)2
_chemical_formula_sum   'Co28 H112 C216 N24 O112'
_cell_volume   13362.89440512
_cell_formula_units_Z   4
loop_
 _symmetry_equiv_pos_site_id
 _symmetry_equiv_pos_as_xyz
  1  'x, y, z'
loop_
 _atom_site_type_symbol
 _atom_site_label
 _atom_site_symmetry_multiplicity
 _atom_site_fract_x
 _atom_site_fract_y
 _atom_site_fract_z
 _atom_site_occupancy
  C  C0  1  0.89268000  0.10732000  0.28864000  1
  C  C1  1  0.88067000  0.11933000  0.92311000  1
  C  C2  1  0.61933000  0.38067000  0.42311000  1
  C  C3  1  0.60732000  0.39268000  0.78864000  1
  C  C4  1  0.39268000  0.60732000  0.21136000  1
  C  C5  1  0.38067000  0.61933000  0.57689000  1
  C  C6  1  0.11933000  0.88067000  0.07689000  1
  C  C7  1  0.10732000  0.89268000  0.71136000  1
  C  C8  1  0.90940000  0.03506000  0.32721000  1
  C  C9  1  0.53506000  0.40940000  0.82721000  1
  C  C10  1  0.40940000  0.53506000  0.17279000  1
  C  C11  1  0.03506000  0.90940000  0.67279000  1
  C  C12  1  0.89734000  0.04656000  0.88312000  1
  C  C13  1  0.54656000  0.39734000  0.38312000  1
  C  C14  1  0.39734000  0.54656000  0.61688000  1
  C  C15  1  0.04656000  0.89734000  0.11688000  1
  C  C16  1  0.79485000  0.96983000  0.12094000  1
  C  C17  1  0.46983000  0.29485000  0.62094000  1
  C  C18  1  0.29485000  0.46983000  0.37906000  1
  C  C19  1  0.96983000  0.79485000  0.87906000  1
  C  C20  1  0.78332000  0.96892000  0.07524000  1
  C  C21  1  0.46892000  0.28332000  0.57524000  1
  C  C22  1  0.28332000  0.46892000  0.42476000  1
  C  C23  1  0.96892000  0.78332000  0.92476000  1
  C  C24  1  0.62974000  0.11096000  0.86462000  1
  C  C25  1  0.61096000  0.12974000  0.36462000  1
  C  C26  1  0.12974000  0.61096000  0.63538000  1
  C  C27  1  0.11096000  0.62974000  0.13538000  1
  C  C28  1  0.64580000  0.09360000  0.34504000  1
  C  C29  1  0.59360000  0.14580000  0.84504000  1
  C  C30  1  0.14580000  0.59360000  0.15496000  1
  C  C31  1  0.09360000  0.64580000  0.65496000  1
  C  C32  1  0.75456000  0.96378000  0.19739000  1
  C  C33  1  0.46378000  0.25456000  0.69739000  1
  C  C34  1  0.25456000  0.46378000  0.30261000  1
  C  C35  1  0.96378000  0.75456000  0.80261000  1
  C  C36  1  0.74315000  0.95831000  0.14936000  1
  C  C37  1  0.45831000  0.24315000  0.64936000  1
  C  C38  1  0.24315000  0.45831000  0.35064000  1
  C  C39  1  0.95831000  0.74315000  0.85064000  1
  C  C40  1  0.72220000  0.95462000  0.05903000  1
  C  C41  1  0.45462000  0.22220000  0.55903000  1
  C  C42  1  0.22220000  0.45462000  0.44097000  1
  C  C43  1  0.95462000  0.72220000  0.94097000  1
  C  C44  1  0.71022000  0.95544000  0.00973000  1
  C  C45  1  0.45544000  0.21022000  0.50973000  1
  C  C46  1  0.21022000  0.45544000  0.49027000  1
  C  C47  1  0.95544000  0.71022000  0.99027000  1
  C  C48  1  0.60163000  0.04383000  0.87027000  1
  C  C49  1  0.54383000  0.10163000  0.37027000  1
  C  C50  1  0.10163000  0.54383000  0.62973000  1
  C  C51  1  0.04383000  0.60163000  0.12973000  1
  C  C52  1  0.63927000  0.00573000  0.89235000  1
  C  C53  1  0.50573000  0.13927000  0.39235000  1
  C  C54  1  0.13927000  0.50573000  0.60765000  1
  C  C55  1  0.00573000  0.63927000  0.10765000  1
  C  C56  1  0.61228000  0.02986000  0.33348000  1
  C  C57  1  0.52986000  0.11228000  0.83348000  1
  C  C58  1  0.11228000  0.52986000  0.16652000  1
  C  C59  1  0.02986000  0.61228000  0.66652000  1
  C  C60  1  0.64754000  0.98940000  0.31172000  1
  C  C61  1  0.48940000  0.14754000  0.81172000  1
  C  C62  1  0.14754000  0.48940000  0.18828000  1
  C  C63  1  0.98940000  0.64754000  0.68828000  1
  C  C64  1  0.68002000  0.94272000  0.13282000  1
  C  C65  1  0.44272000  0.18002000  0.63282000  1
  C  C66  1  0.18002000  0.44272000  0.36718000  1
  C  C67  1  0.94272000  0.68002000  0.86718000  1
  C  C68  1  0.80720000  0.80788000  0.35309000  1
  C  C69  1  0.30788000  0.30720000  0.85309000  1
  C  C70  1  0.30720000  0.30788000  0.14691000  1
  C  C71  1  0.80788000  0.80720000  0.64691000  1
  C  C72  1  0.66940000  0.94032000  0.08750000  1
  C  C73  1  0.44032000  0.16940000  0.58750000  1
  C  C74  1  0.16940000  0.44032000  0.41250000  1
  C  C75  1  0.94032000  0.66940000  0.91250000  1
  C  C76  1  0.78804000  0.81714000  0.85339000  1
  C  C77  1  0.31714000  0.28804000  0.35339000  1
  C  C78  1  0.28804000  0.31714000  0.64661000  1
  C  C79  1  0.81714000  0.78804000  0.14661000  1
  C  C80  1  0.73556000  0.85102000  0.30827000  1
  C  C81  1  0.35102000  0.23556000  0.80827000  1
  C  C82  1  0.23556000  0.35102000  0.19173000  1
  C  C83  1  0.85102000  0.73556000  0.69173000  1
  C  C84  1  0.71709000  0.86125000  0.89910000  1
  C  C85  1  0.36125000  0.21709000  0.39910000  1
  C  C86  1  0.21709000  0.36125000  0.60090000  1
  C  C87  1  0.86125000  0.71709000  0.10090000  1
  C  C88  1  0.75584000  0.81758000  0.62385000  1
  C  C89  1  0.31758000  0.25584000  0.12385000  1
  C  C90  1  0.25584000  0.31758000  0.87615000  1
  C  C91  1  0.81758000  0.75584000  0.37615000  1
  C  C92  1  0.76630000  0.79800000  0.16918000  1
  C  C93  1  0.29800000  0.26630000  0.66918000  1
  C  C94  1  0.26630000  0.29800000  0.33082000  1
  C  C95  1  0.79800000  0.76630000  0.83082000  1
  C  C96  1  0.53826000  0.01078000  0.85824000  1
  C  C97  1  0.51078000  0.03826000  0.35824000  1
  C  C98  1  0.03826000  0.51078000  0.64176000  1
  C  C99  1  0.01078000  0.53826000  0.14176000  1
  C  C100  1  0.54539000  0.00181000  0.34079000  1
  C  C101  1  0.50181000  0.04539000  0.84079000  1
  C  C102  1  0.04539000  0.50181000  0.15921000  1
  C  C103  1  0.00181000  0.54539000  0.65921000  1
  C  C104  1  0.74875000  0.79593000  0.33150000  1
  C  C105  1  0.29593000  0.24875000  0.83150000  1
  C  C106  1  0.24875000  0.29593000  0.16850000  1
  C  C107  1  0.79593000  0.74875000  0.66850000  1
  C  C108  1  0.72939000  0.80555000  0.87570000  1
  C  C109  1  0.30555000  0.22939000  0.37570000  1
  C  C110  1  0.22939000  0.30555000  0.62430000  1
  C  C111  1  0.80555000  0.72939000  0.12430000  1
  C  C112  1  0.69445000  0.77061000  0.62430000  1
  C  C113  1  0.27061000  0.19445000  0.12430000  1
  C  C114  1  0.19445000  0.27061000  0.87570000  1
  C  C115  1  0.77061000  0.69445000  0.37570000  1
  C  C116  1  0.70407000  0.75125000  0.16850000  1
  C  C117  1  0.25125000  0.20407000  0.66850000  1
  C  C118  1  0.20407000  0.25125000  0.33150000  1
  C  C119  1  0.75125000  0.70407000  0.83150000  1
  C  C120  1  0.49819000  0.95461000  0.15921000  1
  C  C121  1  0.45461000  0.99819000  0.65921000  1
  C  C122  1  0.99819000  0.45461000  0.34079000  1
  C  C123  1  0.95461000  0.49819000  0.84079000  1
  C  C124  1  0.48922000  0.96174000  0.64176000  1
  C  C125  1  0.46174000  0.98922000  0.14176000  1
  C  C126  1  0.98922000  0.46174000  0.85824000  1
  C  C127  1  0.96174000  0.48922000  0.35824000  1
  C  C128  1  0.70200000  0.73370000  0.33082000  1
  C  C129  1  0.23370000  0.20200000  0.83082000  1
  C  C130  1  0.20200000  0.23370000  0.16918000  1
  C  C131  1  0.73370000  0.70200000  0.66918000  1
  C  C132  1  0.68242000  0.74416000  0.87615000  1
  C  C133  1  0.24416000  0.18242000  0.37615000  1
  C  C134  1  0.18242000  0.24416000  0.62385000  1
  C  C135  1  0.74416000  0.68242000  0.12385000  1
  C  C136  1  0.63875000  0.78291000  0.60090000  1
  C  C137  1  0.28291000  0.13875000  0.10090000  1
  C  C138  1  0.13875000  0.28291000  0.89910000  1
  C  C139  1  0.78291000  0.63875000  0.39910000  1
  C  C140  1  0.64898000  0.76444000  0.19173000  1
  C  C141  1  0.26444000  0.14898000  0.69173000  1
  C  C142  1  0.14898000  0.26444000  0.30827000  1
  C  C143  1  0.76444000  0.64898000  0.80827000  1
  C  C144  1  0.68286000  0.71196000  0.64661000  1
  C  C145  1  0.21196000  0.18286000  0.14661000  1
  C  C146  1  0.18286000  0.21196000  0.85339000  1
  C  C147  1  0.71196000  0.68286000  0.35339000  1
  C  C148  1  0.55968000  0.83060000  0.41250000  1
  C  C149  1  0.33060000  0.05968000  0.91250000  1
  C  C150  1  0.05968000  0.33060000  0.08750000  1
  C  C151  1  0.83060000  0.55968000  0.58750000  1
  C  C152  1  0.69212000  0.69280000  0.14691000  1
  C  C153  1  0.19280000  0.19212000  0.64691000  1
  C  C154  1  0.19212000  0.19280000  0.35309000  1
  C  C155  1  0.69280000  0.69212000  0.85309000  1
  C  C156  1  0.55728000  0.81998000  0.36718000  1
  C  C157  1  0.31998000  0.05728000  0.86718000  1
  C  C158  1  0.05728000  0.31998000  0.13282000  1
  C  C159  1  0.81998000  0.55728000  0.63282000  1
  C  C160  1  0.51060000  0.85246000  0.18828000  1
  C  C161  1  0.35246000  0.01060000  0.68828000  1
  C  C162  1  0.01060000  0.35246000  0.31172000  1
  C  C163  1  0.85246000  0.51060000  0.81172000  1
  C  C164  1  0.47014000  0.88772000  0.16652000  1
  C  C165  1  0.38772000  0.97014000  0.66652000  1
  C  C166  1  0.97014000  0.38772000  0.33348000  1
  C  C167  1  0.88772000  0.47014000  0.83348000  1
  C  C168  1  0.49427000  0.86073000  0.60765000  1
  C  C169  1  0.36073000  0.99427000  0.10765000  1
  C  C170  1  0.99427000  0.36073000  0.89235000  1
  C  C171  1  0.86073000  0.49427000  0.39235000  1
  C  C172  1  0.45617000  0.89837000  0.62973000  1
  C  C173  1  0.39837000  0.95617000  0.12973000  1
  C  C174  1  0.95617000  0.39837000  0.87027000  1
  C  C175  1  0.89837000  0.45617000  0.37027000  1
  C  C176  1  0.54456000  0.78978000  0.49027000  1
  C  C177  1  0.28978000  0.04456000  0.99027000  1
  C  C178  1  0.04456000  0.28978000  0.00973000  1
  C  C179  1  0.78978000  0.54456000  0.50973000  1
  C  C180  1  0.54538000  0.77780000  0.44097000  1
  C  C181  1  0.27780000  0.04538000  0.94097000  1
  C  C182  1  0.04538000  0.27780000  0.05903000  1
  C  C183  1  0.77780000  0.54538000  0.55903000  1
  C  C184  1  0.54169000  0.75685000  0.35064000  1
  C  C185  1  0.25685000  0.04169000  0.85064000  1
  C  C186  1  0.04169000  0.25685000  0.14936000  1
  C  C187  1  0.75685000  0.54169000  0.64936000  1
  C  C188  1  0.53622000  0.74544000  0.30261000  1
  C  C189  1  0.24544000  0.03622000  0.80261000  1
  C  C190  1  0.03622000  0.24544000  0.19739000  1
  C  C191  1  0.74544000  0.53622000  0.69739000  1
  C  C192  1  0.40640000  0.85420000  0.15496000  1
  C  C193  1  0.35420000  0.90640000  0.65496000  1
  C  C194  1  0.90640000  0.35420000  0.34504000  1
  C  C195  1  0.85420000  0.40640000  0.84504000  1
  C  C196  1  0.38904000  0.87026000  0.63538000  1
  C  C197  1  0.37026000  0.88904000  0.13538000  1
  C  C198  1  0.88904000  0.37026000  0.86462000  1
  C  C199  1  0.87026000  0.38904000  0.36462000  1
  C  C200  1  0.53108000  0.71668000  0.42476000  1
  C  C201  1  0.21668000  0.03108000  0.92476000  1
  C  C202  1  0.03108000  0.21668000  0.07524000  1
  C  C203  1  0.71668000  0.53108000  0.57524000  1
  C  C204  1  0.53017000  0.70515000  0.37906000  1
  C  C205  1  0.20515000  0.03017000  0.87906000  1
  C  C206  1  0.03017000  0.20515000  0.12094000  1
  C  C207  1  0.70515000  0.53017000  0.62094000  1
  C  C208  1  0.45344000  0.60266000  0.61688000  1
  C  C209  1  0.10266000  0.95344000  0.11688000  1
  C  C210  1  0.95344000  0.10266000  0.88312000  1
  C  C211  1  0.60266000  0.45344000  0.38312000  1
  C  C212  1  0.46494000  0.59060000  0.17279000  1
  C  C213  1  0.09060000  0.96494000  0.67279000  1
  C  C214  1  0.96494000  0.09060000  0.32721000  1
  C  C215  1  0.59060000  0.46494000  0.82721000  1
  Co  Co216  1  0.77367000  0.98635000  0.27935000  1
  Co  Co217  1  0.48635000  0.27367000  0.77935000  1
  Co  Co218  1  0.27367000  0.48635000  0.22065000  1
  Co  Co219  1  0.98635000  0.77367000  0.72065000  1
  Co  Co220  1  0.75810000  0.99726000  0.92383000  1
  Co  Co221  1  0.49726000  0.25810000  0.42383000  1
  Co  Co222  1  0.25810000  0.49726000  0.57617000  1
  Co  Co223  1  0.99726000  0.75810000  0.07617000  1
  Co  Co224  1  0.62332000  0.90386000  0.55304000  1
  Co  Co225  1  0.40386000  0.12332000  0.05304000  1
  Co  Co226  1  0.12332000  0.40386000  0.94696000  1
  Co  Co227  1  0.90386000  0.62332000  0.44696000  1
  Co  Co228  1  0.62750000  0.87250000  0.25000000  1
  Co  Co229  1  0.37250000  0.12750000  0.75000000  1
  Co  Co230  1  0.12750000  0.37250000  0.25000000  1
  Co  Co231  1  0.87250000  0.62750000  0.75000000  1
  Co  Co232  1  0.59614000  0.87668000  0.94696000  1
  Co  Co233  1  0.37668000  0.09614000  0.44696000  1
  Co  Co234  1  0.09614000  0.37668000  0.55304000  1
  Co  Co235  1  0.87668000  0.59614000  0.05304000  1
  Co  Co236  1  0.50274000  0.74190000  0.57617000  1
  Co  Co237  1  0.24190000  0.00274000  0.07617000  1
  Co  Co238  1  0.00274000  0.24190000  0.92383000  1
  Co  Co239  1  0.74190000  0.50274000  0.42383000  1
  Co  Co240  1  0.51365000  0.72633000  0.22065000  1
  Co  Co241  1  0.22633000  0.01365000  0.72065000  1
  Co  Co242  1  0.01365000  0.22633000  0.27935000  1
  Co  Co243  1  0.72633000  0.51365000  0.77935000  1
  H  H244  1  0.90450000  0.99590000  0.34170000  1
  H  H245  1  0.49590000  0.40450000  0.84170000  1
  H  H246  1  0.40450000  0.49590000  0.15830000  1
  H  H247  1  0.99590000  0.90450000  0.65830000  1
  H  H248  1  0.89230000  0.00770000  0.86810000  1
  H  H249  1  0.50770000  0.39230000  0.36810000  1
  H  H250  1  0.39230000  0.50770000  0.63190000  1
  H  H251  1  0.00770000  0.89230000  0.13190000  1
  H  H252  1  0.83710000  0.97810000  0.13170000  1
  H  H253  1  0.47810000  0.33710000  0.63170000  1
  H  H254  1  0.33710000  0.47810000  0.36830000  1
  H  H255  1  0.97810000  0.83710000  0.86830000  1
  H  H256  1  0.67280000  0.13340000  0.87380000  1
  H  H257  1  0.63340000  0.17280000  0.37380000  1
  H  H258  1  0.17280000  0.63340000  0.62620000  1
  H  H259  1  0.13340000  0.67280000  0.12620000  1
  H  H260  1  0.69090000  0.11290000  0.34010000  1
  H  H261  1  0.61290000  0.19090000  0.84010000  1
  H  H262  1  0.19090000  0.61290000  0.15990000  1
  H  H263  1  0.11290000  0.69090000  0.65990000  1
  H  H264  1  0.81860000  0.97840000  0.05580000  1
  H  H265  1  0.47840000  0.31860000  0.55580000  1
  H  H266  1  0.31860000  0.47840000  0.44420000  1
  H  H267  1  0.97840000  0.81860000  0.94420000  1
  H  H268  1  0.83970000  0.84970000  0.35260000  1
  H  H269  1  0.34970000  0.33970000  0.85260000  1
  H  H270  1  0.33970000  0.34970000  0.14740000  1
  H  H271  1  0.84970000  0.83970000  0.64740000  1
  H  H272  1  0.82060000  0.85900000  0.85360000  1
  H  H273  1  0.35900000  0.32060000  0.35360000  1
  H  H274  1  0.32060000  0.35900000  0.64640000  1
  H  H275  1  0.85900000  0.82060000  0.14640000  1
  H  H276  1  0.76360000  0.85660000  0.60840000  1
  H  H277  1  0.35660000  0.26360000  0.10840000  1
  H  H278  1  0.26360000  0.35660000  0.89160000  1
  H  H279  1  0.85660000  0.76360000  0.39160000  1
  H  H280  1  0.77440000  0.83680000  0.18500000  1
  H  H281  1  0.33680000  0.27440000  0.68500000  1
  H  H282  1  0.27440000  0.33680000  0.31500000  1
  H  H283  1  0.83680000  0.77440000  0.81500000  1
  H  H284  1  0.64460000  0.93380000  0.15210000  1
  H  H285  1  0.43380000  0.14460000  0.65210000  1
  H  H286  1  0.14460000  0.43380000  0.34790000  1
  H  H287  1  0.93380000  0.64460000  0.84790000  1
  H  H288  1  0.62690000  0.92910000  0.07640000  1
  H  H289  1  0.42910000  0.12690000  0.57640000  1
  H  H290  1  0.12690000  0.42910000  0.42360000  1
  H  H291  1  0.92910000  0.62690000  0.92360000  1
  H  H292  1  0.54230000  0.97670000  0.16610000  1
  H  H293  1  0.47670000  0.04230000  0.66610000  1
  H  H294  1  0.04230000  0.47670000  0.33390000  1
  H  H295  1  0.97670000  0.54230000  0.83390000  1
  H  H296  1  0.53470000  0.98050000  0.63830000  1
  H  H297  1  0.48050000  0.03470000  0.13830000  1
  H  H298  1  0.03470000  0.48050000  0.86170000  1
  H  H299  1  0.98050000  0.53470000  0.36170000  1
  H  H300  1  0.51950000  0.96530000  0.86170000  1
  H  H301  1  0.46530000  0.01950000  0.36170000  1
  H  H302  1  0.01950000  0.46530000  0.63830000  1
  H  H303  1  0.96530000  0.51950000  0.13830000  1
  H  H304  1  0.52330000  0.95770000  0.33390000  1
  H  H305  1  0.45770000  0.02330000  0.83390000  1
  H  H306  1  0.02330000  0.45770000  0.16610000  1
  H  H307  1  0.95770000  0.52330000  0.66610000  1
  H  H308  1  0.57090000  0.87310000  0.42360000  1
  H  H309  1  0.37310000  0.07090000  0.92360000  1
  H  H310  1  0.07090000  0.37310000  0.07640000  1
  H  H311  1  0.87310000  0.57090000  0.57640000  1
  H  H312  1  0.56620000  0.85540000  0.34790000  1
  H  H313  1  0.35540000  0.06620000  0.84790000  1
  H  H314  1  0.06620000  0.35540000  0.15210000  1
  H  H315  1  0.85540000  0.56620000  0.65210000  1
  H  H316  1  0.66320000  0.72560000  0.31500000  1
  H  H317  1  0.22560000  0.16320000  0.81500000  1
  H  H318  1  0.16320000  0.22560000  0.18500000  1
  H  H319  1  0.72560000  0.66320000  0.68500000  1
  H  H320  1  0.64340000  0.73640000  0.89160000  1
  H  H321  1  0.23640000  0.14340000  0.39160000  1
  H  H322  1  0.14340000  0.23640000  0.60840000  1
  H  H323  1  0.73640000  0.64340000  0.10840000  1
  H  H324  1  0.64100000  0.67940000  0.64640000  1
  H  H325  1  0.17940000  0.14100000  0.14640000  1
  H  H326  1  0.14100000  0.17940000  0.85360000  1
  H  H327  1  0.67940000  0.64100000  0.35360000  1
  H  H328  1  0.65030000  0.66030000  0.14740000  1
  H  H329  1  0.16030000  0.15030000  0.64740000  1
  H  H330  1  0.15030000  0.16030000  0.35260000  1
  H  H331  1  0.66030000  0.65030000  0.85260000  1
  H  H332  1  0.52160000  0.68140000  0.44420000  1
  H  H333  1  0.18140000  0.02160000  0.94420000  1
  H  H334  1  0.02160000  0.18140000  0.05580000  1
  H  H335  1  0.68140000  0.52160000  0.55580000  1
  H  H336  1  0.38710000  0.80910000  0.15990000  1
  H  H337  1  0.30910000  0.88710000  0.65990000  1
  H  H338  1  0.88710000  0.30910000  0.34010000  1
  H  H339  1  0.80910000  0.38710000  0.84010000  1
  H  H340  1  0.36660000  0.82720000  0.62620000  1
  H  H341  1  0.32720000  0.86660000  0.12620000  1
  H  H342  1  0.86660000  0.32720000  0.87380000  1
  H  H343  1  0.82720000  0.36660000  0.37380000  1
  H  H344  1  0.52190000  0.66290000  0.36830000  1
  H  H345  1  0.16290000  0.02190000  0.86830000  1
  H  H346  1  0.02190000  0.16290000  0.13170000  1
  H  H347  1  0.66290000  0.52190000  0.63170000  1
  H  H348  1  0.49230000  0.60770000  0.63190000  1
  H  H349  1  0.10770000  0.99230000  0.13190000  1
  H  H350  1  0.99230000  0.10770000  0.86810000  1
  H  H351  1  0.60770000  0.49230000  0.36810000  1
  H  H352  1  0.50410000  0.59550000  0.15830000  1
  H  H353  1  0.09550000  0.00410000  0.65830000  1
  H  H354  1  0.00410000  0.09550000  0.34170000  1
  H  H355  1  0.59550000  0.50410000  0.84170000  1
  N  N356  1  0.86179000  0.13821000  0.26133000  1
  N  N357  1  0.84985000  0.15015000  0.95049000  1
  N  N358  1  0.65015000  0.34985000  0.45049000  1
  N  N359  1  0.63821000  0.36179000  0.76133000  1
  N  N360  1  0.36179000  0.63821000  0.23867000  1
  N  N361  1  0.34985000  0.65015000  0.54951000  1
  N  N362  1  0.15015000  0.84985000  0.04951000  1
  N  N363  1  0.13821000  0.86179000  0.73867000  1
  N  N364  1  0.86254000  0.04640000  0.30265000  1
  N  N365  1  0.54640000  0.36254000  0.80265000  1
  N  N366  1  0.36254000  0.54640000  0.19735000  1
  N  N367  1  0.04640000  0.86254000  0.69735000  1
  N  N368  1  0.85087000  0.05737000  0.90857000  1
  N  N369  1  0.55737000  0.35087000  0.40857000  1
  N  N370  1  0.35087000  0.55737000  0.59143000  1
  N  N371  1  0.05737000  0.85087000  0.09143000  1
  N  N372  1  0.44263000  0.64913000  0.59143000  1
  N  N373  1  0.14913000  0.94263000  0.09143000  1
  N  N374  1  0.94263000  0.14913000  0.90857000  1
  N  N375  1  0.64913000  0.44263000  0.40857000  1
  N  N376  1  0.45360000  0.63746000  0.19735000  1
  N  N377  1  0.13746000  0.95360000  0.69735000  1
  N  N378  1  0.95360000  0.13746000  0.30265000  1
  N  N379  1  0.63746000  0.45360000  0.80265000  1
  O  O380  1  0.79258000  0.11824000  0.96200000  1
  O  O381  1  0.61824000  0.29258000  0.46200000  1
  O  O382  1  0.29258000  0.61824000  0.53800000  1
  O  O383  1  0.11824000  0.79258000  0.03800000  1
  O  O384  1  0.80349000  0.10681000  0.25012000  1
  O  O385  1  0.60681000  0.30349000  0.75012000  1
  O  O386  1  0.30349000  0.60681000  0.24988000  1
  O  O387  1  0.10681000  0.80349000  0.74988000  1
  O  O388  1  0.81191000  0.97867000  0.21196000  1
  O  O389  1  0.47867000  0.31191000  0.71196000  1
  O  O390  1  0.31191000  0.47867000  0.28804000  1
  O  O391  1  0.97867000  0.81191000  0.78804000  1
  O  O392  1  0.70205000  0.03781000  0.89735000  1
  O  O393  1  0.53781000  0.20205000  0.39735000  1
  O  O394  1  0.20205000  0.53781000  0.60265000  1
  O  O395  1  0.03781000  0.70205000  0.10265000  1
  O  O396  1  0.76112000  0.97742000  0.98606000  1
  O  O397  1  0.47742000  0.26112000  0.48606000  1
  O  O398  1  0.26112000  0.47742000  0.51394000  1
  O  O399  1  0.97742000  0.76112000  0.01394000  1
  O  O400  1  0.71023000  0.01265000  0.31385000  1
  O  O401  1  0.51265000  0.21023000  0.81385000  1
  O  O402  1  0.21023000  0.51265000  0.18615000  1
  O  O403  1  0.01265000  0.71023000  0.68615000  1
  O  O404  1  0.78240000  0.90528000  0.30565000  1
  O  O405  1  0.40528000  0.28240000  0.80565000  1
  O  O406  1  0.28240000  0.40528000  0.19435000  1
  O  O407  1  0.90528000  0.78240000  0.69435000  1
  O  O408  1  0.75706000  0.91836000  0.89201000  1
  O  O409  1  0.41836000  0.25706000  0.39201000  1
  O  O410  1  0.25706000  0.41836000  0.60799000  1
  O  O411  1  0.91836000  0.75706000  0.10799000  1
  O  O412  1  0.70811000  0.95671000  0.22457000  1
  O  O413  1  0.45671000  0.20811000  0.72457000  1
  O  O414  1  0.20811000  0.45671000  0.27543000  1
  O  O415  1  0.95671000  0.70811000  0.77543000  1
  O  O416  1  0.65210000  0.93570000  0.99622000  1
  O  O417  1  0.43570000  0.15210000  0.49622000  1
  O  O418  1  0.15210000  0.43570000  0.50378000  1
  O  O419  1  0.93570000  0.65210000  0.00378000  1
  O  O420  1  0.61029000  0.94765000  0.90129000  1
  O  O421  1  0.44765000  0.11029000  0.40129000  1
  O  O422  1  0.11029000  0.44765000  0.59871000  1
  O  O423  1  0.94765000  0.61029000  0.09871000  1
  O  O424  1  0.61309000  0.93781000  0.29276000  1
  O  O425  1  0.43781000  0.11309000  0.79276000  1
  O  O426  1  0.11309000  0.43781000  0.20724000  1
  O  O427  1  0.93781000  0.61309000  0.70724000  1
  O  O428  1  0.67874000  0.83988000  0.29489000  1
  O  O429  1  0.33988000  0.17874000  0.79489000  1
  O  O430  1  0.17874000  0.33988000  0.20511000  1
  O  O431  1  0.83988000  0.67874000  0.70511000  1
  O  O432  1  0.66870000  0.84656000  0.92435000  1
  O  O433  1  0.34656000  0.16870000  0.42435000  1
  O  O434  1  0.16870000  0.34656000  0.57565000  1
  O  O435  1  0.84656000  0.66870000  0.07565000  1
  O  O436  1  0.65344000  0.83130000  0.57565000  1
  O  O437  1  0.33130000  0.15344000  0.07565000  1
  O  O438  1  0.15344000  0.33130000  0.92435000  1
  O  O439  1  0.83130000  0.65344000  0.42435000  1
  O  O440  1  0.66012000  0.82126000  0.20511000  1
  O  O441  1  0.32126000  0.16012000  0.70511000  1
  O  O442  1  0.16012000  0.32126000  0.29489000  1
  O  O443  1  0.82126000  0.66012000  0.79489000  1
  O  O444  1  0.56219000  0.88691000  0.20724000  1
  O  O445  1  0.38691000  0.06219000  0.70724000  1
  O  O446  1  0.06219000  0.38691000  0.29276000  1
  O  O447  1  0.88691000  0.56219000  0.79276000  1
  O  O448  1  0.55235000  0.88971000  0.59871000  1
  O  O449  1  0.38971000  0.05235000  0.09871000  1
  O  O450  1  0.05235000  0.38971000  0.90129000  1
  O  O451  1  0.88971000  0.55235000  0.40129000  1
  O  O452  1  0.56430000  0.84790000  0.50378000  1
  O  O453  1  0.34790000  0.06430000  0.00378000  1
  O  O454  1  0.06430000  0.34790000  0.99622000  1
  O  O455  1  0.84790000  0.56430000  0.49622000  1
  O  O456  1  0.54329000  0.79189000  0.27543000  1
  O  O457  1  0.29189000  0.04329000  0.77543000  1
  O  O458  1  0.04329000  0.29189000  0.22457000  1
  O  O459  1  0.79189000  0.54329000  0.72457000  1
  O  O460  1  0.58164000  0.74294000  0.60799000  1
  O  O461  1  0.24294000  0.08164000  0.10799000  1
  O  O462  1  0.08164000  0.24294000  0.89201000  1
  O  O463  1  0.74294000  0.58164000  0.39201000  1
  O  O464  1  0.59472000  0.71760000  0.19435000  1
  O  O465  1  0.21760000  0.09472000  0.69435000  1
  O  O466  1  0.09472000  0.21760000  0.30565000  1
  O  O467  1  0.71760000  0.59472000  0.80565000  1
  O  O468  1  0.48735000  0.78977000  0.18615000  1
  O  O469  1  0.28977000  0.98735000  0.68615000  1
  O  O470  1  0.98735000  0.28977000  0.31385000  1
  O  O471  1  0.78977000  0.48735000  0.81385000  1
  O  O472  1  0.52258000  0.73888000  0.51394000  1
  O  O473  1  0.23888000  0.02258000  0.01394000  1
  O  O474  1  0.02258000  0.23888000  0.98606000  1
  O  O475  1  0.73888000  0.52258000  0.48606000  1
  O  O476  1  0.46219000  0.79795000  0.60265000  1
  O  O477  1  0.29795000  0.96219000  0.10265000  1
  O  O478  1  0.96219000  0.29795000  0.89735000  1
  O  O479  1  0.79795000  0.46219000  0.39735000  1
  O  O480  1  0.52133000  0.68809000  0.28804000  1
  O  O481  1  0.18809000  0.02133000  0.78804000  1
  O  O482  1  0.02133000  0.18809000  0.21196000  1
  O  O483  1  0.68809000  0.52133000  0.71196000  1
  O  O484  1  0.39319000  0.69651000  0.24988000  1
  O  O485  1  0.19651000  0.89319000  0.74988000  1
  O  O486  1  0.89319000  0.19651000  0.25012000  1
  O  O487  1  0.69651000  0.39319000  0.75012000  1
  O  O488  1  0.38176000  0.70742000  0.53800000  1
  O  O489  1  0.20742000  0.88176000  0.03800000  1
  O  O490  1  0.88176000  0.20742000  0.96200000  1
  O  O491  1  0.70742000  0.38176000  0.46200000  1
