# generated using pymatgen
data_HoPH7C8NO8
_symmetry_space_group_name_H-M   'P 1'
_cell_length_a   9.72160000
_cell_length_b   10.42730000
_cell_length_c   15.51275646
_cell_angle_alpha   90.00000000
_cell_angle_beta   102.64834996
_cell_angle_gamma   90.00000000
_symmetry_Int_Tables_number   1
_chemical_formula_structural   HoPH7C8NO8
_chemical_formula_sum   'Ho4 P4 H28 C32 N4 O32'
_cell_volume   1534.36713046
_cell_formula_units_Z   4
loop_
 _symmetry_equiv_pos_site_id
 _symmetry_equiv_pos_as_xyz
  1  'x, y, z'
loop_
 _atom_site_type_symbol
 _atom_site_label
 _atom_site_symmetry_multiplicity
 _atom_site_fract_x
 _atom_site_fract_y
 _atom_site_fract_z
 _atom_site_occupancy
  Ho  Ho0  1  0.71497000  0.39640000  0.89293000  1
  Ho  Ho1  1  0.21497000  0.10360000  0.39293000  1
  Ho  Ho2  1  0.78503000  0.89640000  0.60707000  1
  Ho  Ho3  1  0.28503000  0.60360000  0.10707000  1
  P  P4  1  0.15730000  0.84817000  0.23178000  1
  P  P5  1  0.65730000  0.65183000  0.73178000  1
  P  P6  1  0.34270000  0.34817000  0.26822000  1
  P  P7  1  0.84270000  0.15183000  0.76822000  1
  H  H8  1  0.83970000  0.83910000  0.88580000  1
  H  H9  1  0.33970000  0.66090000  0.38580000  1
  H  H10  1  0.00110000  0.85700000  0.09600000  1
  H  H11  1  0.50110000  0.64300000  0.59600000  1
  H  H12  1  0.00170000  0.98850000  0.14490000  1
  H  H13  1  0.50170000  0.51150000  0.64490000  1
  H  H14  1  0.69950000  0.76540000  0.97670000  1
  H  H15  1  0.19950000  0.73460000  0.47670000  1
  H  H16  1  0.02920000  0.82630000  0.31600000  1
  H  H17  1  0.52920000  0.67370000  0.81600000  1
  H  H18  1  0.17890000  0.38160000  0.56970000  1
  H  H19  1  0.67890000  0.11840000  0.06970000  1
  H  H20  1  0.61820000  0.90450000  0.06880000  1
  H  H21  1  0.11820000  0.59550000  0.56880000  1
  H  H22  1  0.88180000  0.40450000  0.43120000  1
  H  H23  1  0.38180000  0.09550000  0.93120000  1
  H  H24  1  0.32110000  0.88160000  0.93030000  1
  H  H25  1  0.82110000  0.61840000  0.43030000  1
  H  H26  1  0.47080000  0.32630000  0.18400000  1
  H  H27  1  0.97080000  0.17370000  0.68400000  1
  H  H28  1  0.80050000  0.26540000  0.52330000  1
  H  H29  1  0.30050000  0.23460000  0.02330000  1
  H  H30  1  0.49830000  0.48850000  0.35510000  1
  H  H31  1  0.99830000  0.01150000  0.85510000  1
  H  H32  1  0.49890000  0.35700000  0.40400000  1
  H  H33  1  0.99890000  0.14300000  0.90400000  1
  H  H34  1  0.66030000  0.33910000  0.61420000  1
  H  H35  1  0.16030000  0.16090000  0.11420000  1
  C  C36  1  0.06160000  0.92100000  0.13050000  1
  C  C37  1  0.56160000  0.57900000  0.63050000  1
  C  C38  1  0.46120000  0.96900000  0.53300000  1
  C  C39  1  0.96120000  0.53100000  0.03300000  1
  C  C40  1  0.34480000  0.47600000  0.42400000  1
  C  C41  1  0.84480000  0.02400000  0.92400000  1
  C  C42  1  0.80750000  0.89580000  0.92330000  1
  C  C43  1  0.30750000  0.60420000  0.42330000  1
  C  C44  1  0.72350000  0.85170000  0.97740000  1
  C  C45  1  0.22350000  0.64830000  0.47740000  1
  C  C46  1  0.21120000  0.43850000  0.53240000  1
  C  C47  1  0.71120000  0.06150000  0.03240000  1
  C  C48  1  0.67510000  0.93420000  0.03210000  1
  C  C49  1  0.17510000  0.56580000  0.53210000  1
  C  C50  1  0.99060000  0.93750000  0.47340000  1
  C  C51  1  0.49060000  0.56250000  0.97340000  1
  C  C52  1  0.50940000  0.43750000  0.02660000  1
  C  C53  1  0.00940000  0.06250000  0.52660000  1
  C  C54  1  0.82490000  0.43420000  0.46790000  1
  C  C55  1  0.32490000  0.06580000  0.96790000  1
  C  C56  1  0.28880000  0.93850000  0.96760000  1
  C  C57  1  0.78880000  0.56150000  0.46760000  1
  C  C58  1  0.77650000  0.35170000  0.52260000  1
  C  C59  1  0.27650000  0.14830000  0.02260000  1
  C  C60  1  0.69250000  0.39580000  0.57670000  1
  C  C61  1  0.19250000  0.10420000  0.07670000  1
  C  C62  1  0.15520000  0.97600000  0.07600000  1
  C  C63  1  0.65520000  0.52400000  0.57600000  1
  C  C64  1  0.03880000  0.46900000  0.96700000  1
  C  C65  1  0.53880000  0.03100000  0.46700000  1
  C  C66  1  0.43840000  0.42100000  0.36950000  1
  C  C67  1  0.93840000  0.07900000  0.86950000  1
  N  N68  1  0.29300000  0.39560000  0.47860000  1
  N  N69  1  0.79300000  0.10440000  0.97860000  1
  N  N70  1  0.20700000  0.89560000  0.02140000  1
  N  N71  1  0.70700000  0.60440000  0.52140000  1
  O  O72  1  0.74829000  0.25380000  0.79009000  1
  O  O73  1  0.24829000  0.24620000  0.29009000  1
  O  O74  1  0.23180000  0.95030000  0.29240000  1
  O  O75  1  0.73180000  0.54970000  0.79240000  1
  O  O76  1  0.53510000  0.91540000  0.59830000  1
  O  O77  1  0.03510000  0.58460000  0.09830000  1
  O  O78  1  0.32950000  0.27250000  0.48220000  1
  O  O79  1  0.82950000  0.22750000  0.98220000  1
  O  O80  1  0.32980000  0.97910000  0.51580000  1
  O  O81  1  0.82980000  0.52090000  0.01580000  1
  O  O82  1  0.03710000  0.78620000  0.27190000  1
  O  O83  1  0.53710000  0.71380000  0.77190000  1
  O  O84  1  0.05150000  0.93320000  0.40990000  1
  O  O85  1  0.55150000  0.56680000  0.90990000  1
  O  O86  1  0.58160000  0.35110000  0.00330000  1
  O  O87  1  0.08160000  0.14890000  0.50330000  1
  O  O88  1  0.91840000  0.85110000  0.49670000  1
  O  O89  1  0.41840000  0.64890000  0.99670000  1
  O  O90  1  0.44850000  0.43320000  0.09010000  1
  O  O91  1  0.94850000  0.06680000  0.59010000  1
  O  O92  1  0.46290000  0.28620000  0.22810000  1
  O  O93  1  0.96290000  0.21380000  0.72810000  1
  O  O94  1  0.17020000  0.47910000  0.98420000  1
  O  O95  1  0.67020000  0.02090000  0.48420000  1
  O  O96  1  0.17050000  0.77250000  0.01780000  1
  O  O97  1  0.67050000  0.72750000  0.51780000  1
  O  O98  1  0.96490000  0.41540000  0.90170000  1
  O  O99  1  0.46490000  0.08460000  0.40170000  1
  O  O100  1  0.26820000  0.45030000  0.20760000  1
  O  O101  1  0.76820000  0.04970000  0.70760000  1
  O  O102  1  0.75171000  0.75380000  0.70991000  1
  O  O103  1  0.25171000  0.74620000  0.20991000  1
