# generated using pymatgen
data_CuH18C30(NO2)4
_symmetry_space_group_name_H-M   'P 1'
_cell_length_a   14.79320000
_cell_length_b   16.78850000
_cell_length_c   17.83258432
_cell_angle_alpha   118.08139271
_cell_angle_beta   114.50546518
_cell_angle_gamma   90.00000000
_symmetry_Int_Tables_number   1
_chemical_formula_structural   CuH18C30(NO2)4
_chemical_formula_sum   'Cu4 H72 C120 N16 O32'
_cell_volume   3448.72848095
_cell_formula_units_Z   4
loop_
 _symmetry_equiv_pos_site_id
 _symmetry_equiv_pos_as_xyz
  1  'x, y, z'
loop_
 _atom_site_type_symbol
 _atom_site_label
 _atom_site_symmetry_multiplicity
 _atom_site_fract_x
 _atom_site_fract_y
 _atom_site_fract_z
 _atom_site_occupancy
  C  C0  1  0.47568000  0.46328000  0.90596000  1
  C  C1  1  0.97568000  0.44268000  0.90596000  1
  C  C2  1  0.56972000  0.05732000  0.09404000  1
  C  C3  1  0.06972000  0.03672000  0.09404000  1
  C  C4  1  0.42601000  0.42611000  0.80062000  1
  C  C5  1  0.92601000  0.37451000  0.80062000  1
  C  C6  1  0.62539000  0.12549000  0.19938000  1
  C  C7  1  0.12539000  0.07389000  0.19938000  1
  C  C8  1  0.40192000  0.59767000  0.71144000  1
  C  C9  1  0.48828000  0.68448000  0.88416000  1
  C  C10  1  0.98828000  0.19968000  0.88416000  1
  C  C11  1  0.90192000  0.11377000  0.71144000  1
  C  C12  1  0.69048000  0.38623000  0.28856000  1
  C  C13  1  0.60412000  0.30032000  0.11584000  1
  C  C14  1  0.10412000  0.81552000  0.11584000  1
  C  C15  1  0.19048000  0.90233000  0.28856000  1
  C  C16  1  0.03406000  0.99556000  0.93852000  1
  C  C17  1  0.53406000  0.94296000  0.93852000  1
  C  C18  1  0.09554000  0.55704000  0.06148000  1
  C  C19  1  0.59554000  0.50444000  0.06148000  1
  C  C20  1  0.77262000  0.76972000  0.40124000  1
  C  C21  1  0.27262000  0.63152000  0.40124000  1
  C  C22  1  0.37138000  0.86848000  0.59876000  1
  C  C23  1  0.87138000  0.73028000  0.59876000  1
  C  C24  1  0.92775000  0.90464000  0.67690000  1
  C  C25  1  0.42775000  0.77226000  0.67690000  1
  C  C26  1  0.25085000  0.72774000  0.32310000  1
  C  C27  1  0.75085000  0.59536000  0.32310000  1
  C  C28  1  0.10705000  0.03255000  0.03310000  1
  C  C29  1  0.60705000  0.00055000  0.03310000  1
  C  C30  1  0.07395000  0.49945000  0.96690000  1
  C  C31  1  0.57395000  0.46745000  0.96690000  1
  C  C32  1  0.49053000  0.63423000  0.79826000  1
  C  C33  1  0.99053000  0.16403000  0.79826000  1
  C  C34  1  0.69227000  0.33597000  0.20174000  1
  C  C35  1  0.19227000  0.86577000  0.20174000  1
  C  C36  1  0.40646000  0.53746000  0.61852000  1
  C  C37  1  0.90646000  0.08106000  0.61852000  1
  C  C38  1  0.78794000  0.41894000  0.38148000  1
  C  C39  1  0.28794000  0.96254000  0.38148000  1
  C  C40  1  0.83027000  0.85757000  0.43954000  1
  C  C41  1  0.33027000  0.58197000  0.43954000  1
  C  C42  1  0.39073000  0.91803000  0.56046000  1
  C  C43  1  0.89073000  0.64243000  0.56046000  1
  C  C44  1  0.04678000  0.97848000  0.85396000  1
  C  C45  1  0.54678000  0.87548000  0.85396000  1
  C  C46  1  0.19282000  0.62452000  0.14604000  1
  C  C47  1  0.69282000  0.52152000  0.14604000  1
  C  C48  1  0.81225000  0.69317000  0.36830000  1
  C  C49  1  0.31225000  0.67513000  0.36830000  1
  C  C50  1  0.44395000  0.82487000  0.63170000  1
  C  C51  1  0.94395000  0.80683000  0.63170000  1
  C  C52  1  0.90679000  0.70749000  0.37458000  1
  C  C53  1  0.40679000  0.66709000  0.37458000  1
  C  C54  1  0.53221000  0.83291000  0.62542000  1
  C  C55  1  0.03221000  0.79251000  0.62542000  1
  C  C56  1  0.54035000  0.38295000  0.58650000  1
  C  C57  1  0.04035000  0.20355000  0.58650000  1
  C  C58  1  0.95385000  0.29645000  0.41350000  1
  C  C59  1  0.45385000  0.11705000  0.41350000  1
  C  C60  1  0.95965000  0.79645000  0.41350000  1
  C  C61  1  0.45965000  0.61705000  0.41350000  1
  C  C62  1  0.54615000  0.88295000  0.58650000  1
  C  C63  1  0.04615000  0.70355000  0.58650000  1
  C  C64  1  0.59321000  0.33291000  0.62542000  1
  C  C65  1  0.09321000  0.29251000  0.62542000  1
  C  C66  1  0.96779000  0.20749000  0.37458000  1
  C  C67  1  0.46779000  0.16709000  0.37458000  1
  C  C68  1  0.68775000  0.32487000  0.63170000  1
  C  C69  1  0.18775000  0.30683000  0.63170000  1
  C  C70  1  0.05605000  0.19317000  0.36830000  1
  C  C71  1  0.55605000  0.17513000  0.36830000  1
  C  C72  1  0.45322000  0.12452000  0.14604000  1
  C  C73  1  0.95322000  0.02152000  0.14604000  1
  C  C74  1  0.30718000  0.47848000  0.85396000  1
  C  C75  1  0.80718000  0.37548000  0.85396000  1
  C  C76  1  0.66973000  0.41803000  0.56046000  1
  C  C77  1  0.16973000  0.14243000  0.56046000  1
  C  C78  1  0.10927000  0.35757000  0.43954000  1
  C  C79  1  0.60927000  0.08197000  0.43954000  1
  C  C80  1  0.09354000  0.91894000  0.38148000  1
  C  C81  1  0.59354000  0.46254000  0.38148000  1
  C  C82  1  0.71206000  0.03746000  0.61852000  1
  C  C83  1  0.21206000  0.58106000  0.61852000  1
  C  C84  1  0.00947000  0.83597000  0.20174000  1
  C  C85  1  0.50947000  0.36577000  0.20174000  1
  C  C86  1  0.80773000  0.13423000  0.79826000  1
  C  C87  1  0.30773000  0.66403000  0.79826000  1
  C  C88  1  0.39295000  0.99945000  0.96690000  1
  C  C89  1  0.89295000  0.96745000  0.96690000  1
  C  C90  1  0.42605000  0.53255000  0.03310000  1
  C  C91  1  0.92605000  0.50055000  0.03310000  1
  C  C92  1  0.57225000  0.22774000  0.32310000  1
  C  C93  1  0.07225000  0.09536000  0.32310000  1
  C  C94  1  0.24915000  0.40464000  0.67690000  1
  C  C95  1  0.74915000  0.27226000  0.67690000  1
  C  C96  1  0.72738000  0.36848000  0.59876000  1
  C  C97  1  0.22738000  0.23028000  0.59876000  1
  C  C98  1  0.12862000  0.26972000  0.40124000  1
  C  C99  1  0.62862000  0.13152000  0.40124000  1
  C  C100  1  0.46594000  0.05704000  0.06148000  1
  C  C101  1  0.96594000  0.00444000  0.06148000  1
  C  C102  1  0.40446000  0.49556000  0.93852000  1
  C  C103  1  0.90446000  0.44296000  0.93852000  1
  C  C104  1  0.09808000  0.88623000  0.28856000  1
  C  C105  1  0.01172000  0.80032000  0.11584000  1
  C  C106  1  0.51172000  0.31552000  0.11584000  1
  C  C107  1  0.59808000  0.40233000  0.28856000  1
  C  C108  1  0.80952000  0.09767000  0.71144000  1
  C  C109  1  0.89588000  0.18448000  0.88416000  1
  C  C110  1  0.39588000  0.69968000  0.88416000  1
  C  C111  1  0.30952000  0.61377000  0.71144000  1
  C  C112  1  0.07399000  0.62549000  0.19938000  1
  C  C113  1  0.57399000  0.57389000  0.19938000  1
  C  C114  1  0.87461000  0.92611000  0.80062000  1
  C  C115  1  0.37461000  0.87451000  0.80062000  1
  C  C116  1  0.02432000  0.55732000  0.09404000  1
  C  C117  1  0.52432000  0.53672000  0.09404000  1
  C  C118  1  0.93028000  0.96328000  0.90596000  1
  C  C119  1  0.43028000  0.94268000  0.90596000  1
  Cu  Cu120  1  0.50000000  0.50000000  0.50000000  1
  Cu  Cu121  1  0.00000000  0.00000000  0.50000000  1
  Cu  Cu122  1  0.50000000  0.00000000  0.50000000  1
  Cu  Cu123  1  1.00000000  0.50000000  0.50000000  1
  H  H124  1  0.70710000  0.76240000  0.39780000  1
  H  H125  1  0.20710000  0.63540000  0.39780000  1
  H  H126  1  0.30930000  0.86460000  0.60220000  1
  H  H127  1  0.80930000  0.73760000  0.60220000  1
  H  H128  1  0.85620000  0.90410000  0.63860000  1
  H  H129  1  0.35620000  0.73450000  0.63860000  1
  H  H130  1  0.21760000  0.76550000  0.36140000  1
  H  H131  1  0.71760000  0.59590000  0.36140000  1
  H  H132  1  0.80250000  0.90980000  0.46180000  1
  H  H133  1  0.30250000  0.55200000  0.46180000  1
  H  H134  1  0.34070000  0.94800000  0.53820000  1
  H  H135  1  0.84070000  0.59020000  0.53820000  1
  H  H136  1  0.54960000  0.70880000  0.94340000  1
  H  H137  1  0.04960000  0.23460000  0.94340000  1
  H  H138  1  0.60620000  0.26540000  0.05660000  1
  H  H139  1  0.10620000  0.79120000  0.05660000  1
  H  H140  1  0.97380000  0.94690000  0.67640000  1
  H  H141  1  0.47380000  0.72950000  0.67640000  1
  H  H142  1  0.29740000  0.77050000  0.32360000  1
  H  H143  1  0.79740000  0.55310000  0.32360000  1
  H  H144  1  0.17760000  0.05350000  0.05480000  1
  H  H145  1  0.67760000  0.00130000  0.05480000  1
  H  H146  1  0.12280000  0.49870000  0.94520000  1
  H  H147  1  0.62280000  0.44650000  0.94520000  1
  H  H148  1  0.55390000  0.62450000  0.79840000  1
  H  H149  1  0.05390000  0.17390000  0.79840000  1
  H  H150  1  0.75550000  0.32610000  0.20160000  1
  H  H151  1  0.25550000  0.87550000  0.20160000  1
  H  H152  1  0.47460000  0.38770000  0.58240000  1
  H  H153  1  0.97460000  0.19470000  0.58240000  1
  H  H154  1  0.89220000  0.30530000  0.41760000  1
  H  H155  1  0.39220000  0.11230000  0.41760000  1
  H  H156  1  0.41640000  0.19590000  0.35220000  1
  H  H157  1  0.91640000  0.15630000  0.35220000  1
  H  H158  1  0.06420000  0.34370000  0.64780000  1
  H  H159  1  0.56420000  0.30410000  0.64780000  1
  H  H160  1  0.08360000  0.84370000  0.64780000  1
  H  H161  1  0.58360000  0.80410000  0.64780000  1
  H  H162  1  0.43580000  0.69590000  0.35220000  1
  H  H163  1  0.93580000  0.65630000  0.35220000  1
  H  H164  1  0.02540000  0.80530000  0.41760000  1
  H  H165  1  0.52540000  0.61230000  0.41760000  1
  H  H166  1  0.60780000  0.88770000  0.58240000  1
  H  H167  1  0.10780000  0.69470000  0.58240000  1
  H  H168  1  0.94610000  0.82610000  0.20160000  1
  H  H169  1  0.44610000  0.37550000  0.20160000  1
  H  H170  1  0.74450000  0.12450000  0.79840000  1
  H  H171  1  0.24450000  0.67390000  0.79840000  1
  H  H172  1  0.32240000  0.99870000  0.94520000  1
  H  H173  1  0.82240000  0.94650000  0.94520000  1
  H  H174  1  0.37720000  0.55350000  0.05480000  1
  H  H175  1  0.87720000  0.50130000  0.05480000  1
  H  H176  1  0.52620000  0.27050000  0.32360000  1
  H  H177  1  0.02620000  0.05310000  0.32360000  1
  H  H178  1  0.20260000  0.44690000  0.67640000  1
  H  H179  1  0.70260000  0.22950000  0.67640000  1
  H  H180  1  0.95040000  0.76540000  0.05660000  1
  H  H181  1  0.45040000  0.29120000  0.05660000  1
  H  H182  1  0.89380000  0.20880000  0.94340000  1
  H  H183  1  0.39380000  0.73460000  0.94340000  1
  H  H184  1  0.69750000  0.44800000  0.53820000  1
  H  H185  1  0.19750000  0.09020000  0.53820000  1
  H  H186  1  0.15930000  0.40980000  0.46180000  1
  H  H187  1  0.65930000  0.05200000  0.46180000  1
  H  H188  1  0.64380000  0.26550000  0.36140000  1
  H  H189  1  0.14380000  0.09590000  0.36140000  1
  H  H190  1  0.28240000  0.40410000  0.63860000  1
  H  H191  1  0.78240000  0.23450000  0.63860000  1
  H  H192  1  0.79290000  0.36460000  0.60220000  1
  H  H193  1  0.29290000  0.23760000  0.60220000  1
  H  H194  1  0.19070000  0.26240000  0.39780000  1
  H  H195  1  0.69070000  0.13540000  0.39780000  1
  N  N196  1  0.94867000  0.93854000  0.77554000  1
  N  N197  1  0.44867000  0.83700000  0.77554000  1
  N  N198  1  0.17313000  0.66300000  0.22446000  1
  N  N199  1  0.67313000  0.56146000  0.22446000  1
  N  N200  1  0.92186000  0.87132000  0.44612000  1
  N  N201  1  0.42186000  0.57480000  0.44612000  1
  N  N202  1  0.47574000  0.92520000  0.55388000  1
  N  N203  1  0.97574000  0.62868000  0.55388000  1
  N  N204  1  0.57814000  0.42520000  0.55388000  1
  N  N205  1  0.07814000  0.12868000  0.55388000  1
  N  N206  1  0.02426000  0.37132000  0.44612000  1
  N  N207  1  0.52426000  0.07480000  0.44612000  1
  N  N208  1  0.55133000  0.16300000  0.22446000  1
  N  N209  1  0.05133000  0.06146000  0.22446000  1
  N  N210  1  0.32687000  0.43854000  0.77554000  1
  N  N211  1  0.82687000  0.33700000  0.77554000  1
  O  O212  1  0.34301000  0.46301000  0.55596000  1
  O  O213  1  0.84301000  0.09295000  0.55596000  1
  O  O214  1  0.78705000  0.40705000  0.44404000  1
  O  O215  1  0.28705000  0.03699000  0.44404000  1
  O  O216  1  0.46077000  0.39119000  0.74506000  1
  O  O217  1  0.96077000  0.35387000  0.74506000  1
  O  O218  1  0.71571000  0.14613000  0.25494000  1
  O  O219  1  0.21571000  0.10881000  0.25494000  1
  O  O220  1  0.98269000  0.04506000  0.61460000  1
  O  O221  1  0.48269000  0.56954000  0.61460000  1
  O  O222  1  0.36809000  0.93046000  0.38540000  1
  O  O223  1  0.86809000  0.45494000  0.38540000  1
  O  O224  1  0.12444000  0.99452000  0.85098000  1
  O  O225  1  0.62444000  0.85646000  0.85098000  1
  O  O226  1  0.27346000  0.64354000  0.14902000  1
  O  O227  1  0.77346000  0.50548000  0.14902000  1
  O  O228  1  0.37556000  0.14354000  0.14902000  1
  O  O229  1  0.87556000  0.00548000  0.14902000  1
  O  O230  1  0.22654000  0.49452000  0.85098000  1
  O  O231  1  0.72654000  0.35646000  0.85098000  1
  O  O232  1  0.51731000  0.43046000  0.38540000  1
  O  O233  1  0.01731000  0.95494000  0.38540000  1
  O  O234  1  0.13191000  0.54506000  0.61460000  1
  O  O235  1  0.63191000  0.06954000  0.61460000  1
  O  O236  1  0.03923000  0.64613000  0.25494000  1
  O  O237  1  0.53923000  0.60881000  0.25494000  1
  O  O238  1  0.78429000  0.89119000  0.74506000  1
  O  O239  1  0.28429000  0.85387000  0.74506000  1
  O  O240  1  0.15699000  0.90705000  0.44404000  1
  O  O241  1  0.65699000  0.53699000  0.44404000  1
  O  O242  1  0.71295000  0.96301000  0.55596000  1
  O  O243  1  0.21295000  0.59295000  0.55596000  1
