# generated using pymatgen
data_Gd2Cu3H84C54(NO2)12
_symmetry_space_group_name_H-M   'P 1'
_cell_length_a   8.84920000
_cell_length_b   17.24500000
_cell_length_c   17.79100000
_cell_angle_alpha   115.27500000
_cell_angle_beta   95.66200000
_cell_angle_gamma   103.86500000
_symmetry_Int_Tables_number   1
_chemical_formula_structural   Gd2Cu3H84C54(NO2)12
_chemical_formula_sum   'Gd2 Cu3 H84 C54 N12 O24'
_cell_volume   2320.24854157
_cell_formula_units_Z   1
loop_
 _symmetry_equiv_pos_site_id
 _symmetry_equiv_pos_as_xyz
  1  'x, y, z'
loop_
 _atom_site_type_symbol
 _atom_site_label
 _atom_site_symmetry_multiplicity
 _atom_site_fract_x
 _atom_site_fract_y
 _atom_site_fract_z
 _atom_site_occupancy
  Gd  Gd0  1  0.18578000  0.21965000  0.37528000  1
  Gd  Gd1  1  0.81422000  0.78035000  0.62472000  1
  Cu  Cu2  1  0.00000000  0.50000000  0.50000000  1
  Cu  Cu3  1  0.50000000  0.00000000  0.00000000  1
  Cu  Cu4  1  0.50000000  0.00000000  0.50000000  1
  H  H5  1  0.01210000  0.46560000  0.27410000  1
  H  H6  1  0.01910000  0.63470000  0.38410000  1
  H  H7  1  0.04770000  0.91530000  0.48150000  1
  H  H8  1  0.06000000  0.41100000  0.31840000  1
  H  H9  1  0.10000000  0.86910000  0.34940000  1
  H  H10  1  0.10920000  0.95880000  0.86780000  1
  H  H11  1  0.12790000  0.01710000  0.96590000  1
  H  H12  1  0.14360000  0.00130000  0.47600000  1
  H  H13  1  0.14540000  0.44120000  0.64750000  1
  H  H14  1  0.16360000  0.69240000  0.65040000  1
  H  H15  1  0.19420000  0.05570000  0.64540000  1
  H  H16  1  0.19720000  0.66050000  0.76800000  1
  H  H17  1  0.20240000  0.83560000  0.39950000  1
  H  H18  1  0.20990000  0.68480000  0.52830000  1
  H  H19  1  0.21950000  0.01610000  0.35600000  1
  H  H20  1  0.22440000  0.04450000  0.09700000  1
  H  H21  1  0.23350000  0.60240000  0.38650000  1
  H  H22  1  0.24200000  0.84220000  0.52550000  1
  H  H23  1  0.24570000  0.14910000  0.06240000  1
  H  H24  1  0.24870000  0.57740000  0.71160000  1
  H  H25  1  0.26390000  0.52710000  0.40790000  1
  H  H26  1  0.28380000  0.13420000  0.92940000  1
  H  H27  1  0.29040000  0.99110000  0.80540000  1
  H  H28  1  0.30140000  0.86070000  0.81480000  1
  H  H29  1  0.30260000  0.10390000  0.60320000  1
  H  H30  1  0.30570000  0.99550000  0.13680000  1
  H  H31  1  0.30700000  0.85790000  0.26600000  1
  H  H32  1  0.32010000  0.50860000  0.59750000  1
  H  H33  1  0.34120000  0.70000000  0.68130000  1
  H  H34  1  0.34300000  0.91210000  0.61730000  1
  H  H35  1  0.35330000  0.50380000  0.51110000  1
  H  H36  1  0.35990000  0.23870000  0.07120000  1
  H  H37  1  0.37930000  0.67110000  0.52830000  1
  H  H38  1  0.38040000  0.82740000  0.32850000  1
  H  H39  1  0.38660000  0.02900000  0.33310000  1
  H  H40  1  0.41670000  0.88110000  0.75910000  1
  H  H41  1  0.41980000  0.79900000  0.88410000  1
  H  H42  1  0.43180000  0.13450000  0.74880000  1
  H  H43  1  0.43780000  0.03550000  0.70640000  1
  H  H44  1  0.46780000  0.15610000  0.96030000  1
  H  H45  1  0.46860000  0.22010000  0.18000000  1
  H  H46  1  0.47410000  0.03640000  0.84730000  1
  H  H47  1  0.52590000  0.96360000  0.15270000  1
  H  H48  1  0.53140000  0.77990000  0.82000000  1
  H  H49  1  0.53220000  0.84390000  0.03970000  1
  H  H50  1  0.56220000  0.96450000  0.29360000  1
  H  H51  1  0.56820000  0.86550000  0.25120000  1
  H  H52  1  0.58020000  0.20100000  0.11590000  1
  H  H53  1  0.58330000  0.11890000  0.24090000  1
  H  H54  1  0.61340000  0.97100000  0.66690000  1
  H  H55  1  0.61960000  0.17260000  0.67150000  1
  H  H56  1  0.62070000  0.32890000  0.47170000  1
  H  H57  1  0.64010000  0.76130000  0.92880000  1
  H  H58  1  0.64670000  0.49620000  0.48890000  1
  H  H59  1  0.65700000  0.08790000  0.38270000  1
  H  H60  1  0.65880000  0.30000000  0.31870000  1
  H  H61  1  0.67990000  0.49140000  0.40250000  1
  H  H62  1  0.69300000  0.14210000  0.73400000  1
  H  H63  1  0.69430000  0.00450000  0.86320000  1
  H  H64  1  0.69740000  0.89610000  0.39680000  1
  H  H65  1  0.69860000  0.13930000  0.18520000  1
  H  H66  1  0.70960000  0.00890000  0.19460000  1
  H  H67  1  0.71620000  0.86580000  0.07060000  1
  H  H68  1  0.73610000  0.47290000  0.59210000  1
  H  H69  1  0.75130000  0.42260000  0.28840000  1
  H  H70  1  0.75430000  0.85090000  0.93760000  1
  H  H71  1  0.75800000  0.15780000  0.47450000  1
  H  H72  1  0.76650000  0.39760000  0.61350000  1
  H  H73  1  0.77560000  0.95550000  0.90300000  1
  H  H74  1  0.78050000  0.98390000  0.64400000  1
  H  H75  1  0.79010000  0.31520000  0.47170000  1
  H  H76  1  0.79760000  0.16440000  0.60050000  1
  H  H77  1  0.80280000  0.33950000  0.23200000  1
  H  H78  1  0.80580000  0.94430000  0.35460000  1
  H  H79  1  0.83640000  0.30760000  0.34960000  1
  H  H80  1  0.85460000  0.55880000  0.35250000  1
  H  H81  1  0.85640000  0.99870000  0.52400000  1
  H  H82  1  0.87210000  0.98290000  0.03410000  1
  H  H83  1  0.89080000  0.04120000  0.13220000  1
  H  H84  1  0.90000000  0.13090000  0.65060000  1
  H  H85  1  0.94000000  0.58900000  0.68160000  1
  H  H86  1  0.95230000  0.08470000  0.51850000  1
  H  H87  1  0.98090000  0.36530000  0.61590000  1
  H  H88  1  0.98790000  0.53440000  0.72590000  1
  C  C89  1  0.00920000  0.55350000  0.68300000  1
  C  C90  1  0.04990000  0.40740000  0.60170000  1
  C  C91  1  0.09740000  0.35450000  0.52130000  1
  C  C92  1  0.10240000  0.87700000  0.61220000  1
  C  C93  1  0.15050000  0.94630000  0.47690000  1
  C  C94  1  0.15530000  0.89470000  0.93570000  1
  C  C95  1  0.17210000  0.97680000  0.92380000  1
  C  C96  1  0.17990000  0.61310000  0.71010000  1
  C  C97  1  0.18720000  0.88870000  0.39750000  1
  C  C98  1  0.20920000  0.57220000  0.42110000  1
  C  C99  1  0.23390000  0.65810000  0.65400000  1
  C  C100  1  0.24810000  0.89750000  0.57530000  1
  C  C101  1  0.26560000  0.64020000  0.51490000  1
  C  C102  1  0.27580000  0.10940000  0.22690000  1
  C  C103  1  0.28980000  0.05880000  0.62300000  1
  C  C104  1  0.31030000  0.05430000  0.14150000  1
  C  C105  1  0.33160000  0.02630000  0.37690000  1
  C  C106  1  0.35110000  0.17680000  0.05760000  1
  C  C107  1  0.35350000  0.54480000  0.56910000  1
  C  C108  1  0.36360000  0.12720000  0.96540000  1
  C  C109  1  0.37720000  0.99440000  0.84570000  1
  C  C110  1  0.38610000  0.87870000  0.31800000  1
  C  C111  1  0.39530000  0.11560000  0.45400000  1
  C  C112  1  0.39780000  0.90300000  0.81620000  1
  C  C113  1  0.44230000  0.08720000  0.69670000  1
  C  C114  1  0.47340000  0.39260000  0.38470000  1
  C  C115  1  0.47510000  0.17790000  0.12390000  1
  C  C116  1  0.52490000  0.82210000  0.87610000  1
  C  C117  1  0.52660000  0.60740000  0.61530000  1
  C  C118  1  0.55770000  0.91280000  0.30330000  1
  C  C119  1  0.60220000  0.09700000  0.18380000  1
  C  C120  1  0.60470000  0.88440000  0.54600000  1
  C  C121  1  0.61390000  0.12130000  0.68200000  1
  C  C122  1  0.62280000  0.00560000  0.15430000  1
  C  C123  1  0.63640000  0.87280000  0.03460000  1
  C  C124  1  0.64650000  0.45520000  0.43090000  1
  C  C125  1  0.64890000  0.82320000  0.94240000  1
  C  C126  1  0.66840000  0.97370000  0.62310000  1
  C  C127  1  0.68970000  0.94570000  0.85850000  1
  C  C128  1  0.71020000  0.94120000  0.37700000  1
  C  C129  1  0.72420000  0.89060000  0.77310000  1
  C  C130  1  0.73440000  0.35980000  0.48510000  1
  C  C131  1  0.75190000  0.10250000  0.42470000  1
  C  C132  1  0.76610000  0.34190000  0.34600000  1
  C  C133  1  0.79080000  0.42780000  0.57890000  1
  C  C134  1  0.81280000  0.11130000  0.60250000  1
  C  C135  1  0.82010000  0.38690000  0.28990000  1
  C  C136  1  0.82790000  0.02320000  0.07620000  1
  C  C137  1  0.84470000  0.10530000  0.06430000  1
  C  C138  1  0.84950000  0.05370000  0.52310000  1
  C  C139  1  0.89760000  0.12300000  0.38780000  1
  C  C140  1  0.90260000  0.64550000  0.47870000  1
  C  C141  1  0.95010000  0.59260000  0.39830000  1
  C  C142  1  0.99080000  0.44650000  0.31700000  1
  N  N143  1  0.03410000  0.52820000  0.40150000  1
  N  N144  1  0.23240000  0.59160000  0.56580000  1
  N  N145  1  0.27260000  0.96910000  0.55010000  1
  N  N146  1  0.34190000  0.02800000  0.93140000  1
  N  N147  1  0.34550000  0.94560000  0.38750000  1
  N  N148  1  0.46260000  0.09040000  0.12320000  1
  N  N149  1  0.53740000  0.90960000  0.87680000  1
  N  N150  1  0.65450000  0.05440000  0.61250000  1
  N  N151  1  0.65810000  0.97200000  0.06860000  1
  N  N152  1  0.72740000  0.03090000  0.44990000  1
  N  N153  1  0.76760000  0.40840000  0.43420000  1
  N  N154  1  0.96590000  0.47180000  0.59850000  1
  O  O155  1  0.01490000  0.09600000  0.39790000  1
  O  O156  1  0.01850000  0.83520000  0.90410000  1
  O  O157  1  0.08570000  0.37010000  0.45980000  1
  O  O158  1  0.10330000  0.82890000  0.64750000  1
  O  O159  1  0.14340000  0.08020000  0.23960000  1
  O  O160  1  0.15190000  0.29080000  0.52070000  1
  O  O161  1  0.27400000  0.88950000  0.97580000  1
  O  O162  1  0.36700000  0.18340000  0.44690000  1
  O  O163  1  0.37800000  0.18260000  0.28390000  1
  O  O164  1  0.39950000  0.35110000  0.42120000  1
  O  O165  1  0.41360000  0.39030000  0.31760000  1
  O  O166  1  0.47160000  0.12350000  0.51390000  1
  O  O167  1  0.52840000  0.87650000  0.48610000  1
  O  O168  1  0.58640000  0.60970000  0.68240000  1
  O  O169  1  0.60050000  0.64890000  0.57880000  1
  O  O170  1  0.62200000  0.81740000  0.71610000  1
  O  O171  1  0.63300000  0.81660000  0.55310000  1
  O  O172  1  0.72600000  0.11050000  0.02420000  1
  O  O173  1  0.84810000  0.70920000  0.47930000  1
  O  O174  1  0.85660000  0.91980000  0.76040000  1
  O  O175  1  0.89670000  0.17110000  0.35250000  1
  O  O176  1  0.91430000  0.62990000  0.54020000  1
  O  O177  1  0.98150000  0.16480000  0.09590000  1
  O  O178  1  0.98510000  0.90400000  0.60210000  1
