# generated using pymatgen
data_GdH14C24(NO3)2
_symmetry_space_group_name_H-M   'P 1'
_cell_length_a   12.61760000
_cell_length_b   14.19800000
_cell_length_c   14.89600000
_cell_angle_alpha   69.22100000
_cell_angle_beta   67.59800000
_cell_angle_gamma   78.39500000
_symmetry_Int_Tables_number   1
_chemical_formula_structural   GdH14C24(NO3)2
_chemical_formula_sum   'Gd4 H56 C96 N8 O24'
_cell_volume   2299.95198423
_cell_formula_units_Z   4
loop_
 _symmetry_equiv_pos_site_id
 _symmetry_equiv_pos_as_xyz
  1  'x, y, z'
loop_
 _atom_site_type_symbol
 _atom_site_label
 _atom_site_symmetry_multiplicity
 _atom_site_fract_x
 _atom_site_fract_y
 _atom_site_fract_z
 _atom_site_occupancy
  Gd  Gd0  1  0.06449000  0.51862000  0.59596000  1
  Gd  Gd1  1  0.44884000  0.94610000  0.90664000  1
  Gd  Gd2  1  0.55116000  0.05390000  0.09336000  1
  Gd  Gd3  1  0.93551000  0.48138000  0.40404000  1
  H  H4  1  0.01200000  0.94620000  0.44810000  1
  H  H5  1  0.01310000  0.31210000  0.94240000  1
  H  H6  1  0.04380000  0.20920000  0.52930000  1
  H  H7  1  0.04460000  0.97810000  0.13510000  1
  H  H8  1  0.04880000  0.90350000  0.71910000  1
  H  H9  1  0.07720000  0.16250000  0.02920000  1
  H  H10  1  0.08280000  0.14420000  0.77790000  1
  H  H11  1  0.09320000  0.20660000  0.19260000  1
  H  H12  1  0.09350000  0.33580000  0.25290000  1
  H  H13  1  0.12180000  0.49640000  0.92460000  1
  H  H14  1  0.14450000  0.57610000  0.12400000  1
  H  H15  1  0.17670000  0.00850000  0.31460000  1
  H  H16  1  0.19120000  0.78960000  0.19780000  1
  H  H17  1  0.20330000  0.42180000  0.05240000  1
  H  H18  1  0.23630000  0.95280000  0.57290000  1
  H  H19  1  0.26270000  0.11650000  0.78850000  1
  H  H20  1  0.27750000  0.27460000  0.56520000  1
  H  H21  1  0.29960000  0.28940000  0.28540000  1
  H  H22  1  0.30480000  0.29240000  0.78300000  1
  H  H23  1  0.31800000  0.56470000  0.38660000  1
  H  H24  1  0.32550000  0.55990000  0.12370000  1
  H  H25  1  0.33060000  0.28030000  0.04750000  1
  H  H26  1  0.37370000  0.92430000  0.43580000  1
  H  H27  1  0.39480000  0.12820000  0.57730000  1
  H  H28  1  0.44170000  0.69160000  0.03490000  1
  H  H29  1  0.46790000  0.66710000  0.28690000  1
  H  H30  1  0.46930000  0.81270000  0.32070000  1
  H  H31  1  0.47240000  0.06510000  0.43900000  1
  H  H32  1  0.52760000  0.93490000  0.56100000  1
  H  H33  1  0.53070000  0.18730000  0.67930000  1
  H  H34  1  0.53210000  0.33290000  0.71310000  1
  H  H35  1  0.55830000  0.30840000  0.96510000  1
  H  H36  1  0.60520000  0.87180000  0.42270000  1
  H  H37  1  0.62630000  0.07570000  0.56420000  1
  H  H38  1  0.66940000  0.71970000  0.95250000  1
  H  H39  1  0.67450000  0.44010000  0.87630000  1
  H  H40  1  0.68200000  0.43530000  0.61340000  1
  H  H41  1  0.69520000  0.70760000  0.21700000  1
  H  H42  1  0.70040000  0.71060000  0.71460000  1
  H  H43  1  0.72250000  0.72540000  0.43480000  1
  H  H44  1  0.73730000  0.88350000  0.21150000  1
  H  H45  1  0.76370000  0.04720000  0.42710000  1
  H  H46  1  0.79670000  0.57820000  0.94760000  1
  H  H47  1  0.80880000  0.21040000  0.80220000  1
  H  H48  1  0.82330000  0.99150000  0.68540000  1
  H  H49  1  0.85550000  0.42390000  0.87600000  1
  H  H50  1  0.87820000  0.50360000  0.07540000  1
  H  H51  1  0.90650000  0.66420000  0.74710000  1
  H  H52  1  0.90680000  0.79340000  0.80740000  1
  H  H53  1  0.91720000  0.85580000  0.22210000  1
  H  H54  1  0.92280000  0.83750000  0.97080000  1
  H  H55  1  0.95120000  0.09650000  0.28090000  1
  H  H56  1  0.95540000  0.02190000  0.86490000  1
  H  H57  1  0.95620000  0.79080000  0.47070000  1
  H  H58  1  0.98690000  0.68790000  0.05760000  1
  H  H59  1  0.98800000  0.05380000  0.55190000  1
  C  C60  1  0.00300000  0.17080000  0.02740000  1
  C  C61  1  0.01640000  0.82010000  0.41300000  1
  C  C62  1  0.03030000  0.00890000  0.86600000  1
  C  C63  1  0.03210000  0.29510000  0.28560000  1
  C  C64  1  0.03420000  0.21560000  0.25050000  1
  C  C65  1  0.03430000  0.67220000  0.35510000  1
  C  C66  1  0.03530000  0.74040000  0.02430000  1
  C  C67  1  0.05110000  0.84860000  0.69810000  1
  C  C68  1  0.05200000  0.91160000  0.40100000  1
  C  C69  1  0.06880000  0.91250000  0.91940000  1
  C  C70  1  0.07080000  0.77310000  0.33850000  1
  C  C71  1  0.10510000  0.08140000  0.81660000  1
  C  C72  1  0.14180000  0.83240000  0.61410000  1
  C  C73  1  0.14240000  0.74660000  0.58670000  1
  C  C74  1  0.14720000  0.72300000  0.03070000  1
  C  C75  1  0.14780000  0.95150000  0.31830000  1
  C  C76  1  0.15500000  0.44780000  0.75720000  1
  C  C77  1  0.15940000  0.81840000  0.25040000  1
  C  C78  1  0.17460000  0.44050000  0.92180000  1
  C  C79  1  0.18160000  0.89750000  0.92300000  1
  C  C80  1  0.19070000  0.63010000  0.08720000  1
  C  C81  1  0.19640000  0.39270000  0.42020000  1
  C  C82  1  0.20000000  0.90670000  0.24140000  1
  C  C83  1  0.20600000  0.40190000  0.84040000  1
  C  C84  1  0.21410000  0.06420000  0.82240000  1
  C  C85  1  0.22230000  0.80240000  0.97850000  1
  C  C86  1  0.22250000  0.39500000  0.99910000  1
  C  C87  1  0.23450000  0.72400000  0.50310000  1
  C  C88  1  0.23450000  0.89720000  0.55460000  1
  C  C89  1  0.27520000  0.29730000  0.42490000  1
  C  C90  1  0.28250000  0.31760000  0.83780000  1
  C  C91  1  0.29700000  0.62090000  0.08720000  1
  C  C92  1  0.29830000  0.31030000  0.99630000  1
  C  C93  1  0.29920000  0.95290000  0.15120000  1
  C  C94  1  0.30590000  0.24800000  0.51090000  1
  C  C95  1  0.31690000  0.87910000  0.47450000  1
  C  C96  1  0.31890000  0.62190000  0.40290000  1
  C  C97  1  0.32000000  0.25740000  0.34350000  1
  C  C98  1  0.32180000  0.79220000  0.44520000  1
  C  C99  1  0.32630000  0.27010000  0.91700000  1
  C  C100  1  0.36710000  0.70090000  0.03350000  1
  C  C101  1  0.37700000  0.16140000  0.51810000  1
  C  C102  1  0.39360000  0.17190000  0.34770000  1
  C  C103  1  0.40230000  0.17380000  0.91800000  1
  C  C104  1  0.40960000  0.68420000  0.34100000  1
  C  C105  1  0.41080000  0.76960000  0.36140000  1
  C  C106  1  0.42250000  0.12320000  0.43550000  1
  C  C107  1  0.44780000  0.13100000  0.25890000  1
  C  C108  1  0.55220000  0.86900000  0.74110000  1
  C  C109  1  0.57750000  0.87680000  0.56450000  1
  C  C110  1  0.58920000  0.23040000  0.63860000  1
  C  C111  1  0.59040000  0.31580000  0.65900000  1
  C  C112  1  0.59770000  0.82620000  0.08200000  1
  C  C113  1  0.60640000  0.82810000  0.65230000  1
  C  C114  1  0.62300000  0.83860000  0.48190000  1
  C  C115  1  0.63290000  0.29910000  0.96650000  1
  C  C116  1  0.67370000  0.72990000  0.08300000  1
  C  C117  1  0.67820000  0.20780000  0.55480000  1
  C  C118  1  0.68000000  0.74260000  0.65650000  1
  C  C119  1  0.68110000  0.37810000  0.59710000  1
  C  C120  1  0.68310000  0.12090000  0.52550000  1
  C  C121  1  0.69410000  0.75200000  0.48910000  1
  C  C122  1  0.70080000  0.04710000  0.84880000  1
  C  C123  1  0.70170000  0.68970000  0.00370000  1
  C  C124  1  0.70300000  0.37910000  0.91280000  1
  C  C125  1  0.71750000  0.68240000  0.16220000  1
  C  C126  1  0.72480000  0.70270000  0.57510000  1
  C  C127  1  0.76550000  0.10280000  0.44540000  1
  C  C128  1  0.76550000  0.27600000  0.49690000  1
  C  C129  1  0.77750000  0.60500000  0.00090000  1
  C  C130  1  0.77770000  0.19760000  0.02150000  1
  C  C131  1  0.78590000  0.93580000  0.17760000  1
  C  C132  1  0.79400000  0.59810000  0.15960000  1
  C  C133  1  0.80000000  0.09330000  0.75860000  1
  C  C134  1  0.80360000  0.60730000  0.57980000  1
  C  C135  1  0.80930000  0.36990000  0.91280000  1
  C  C136  1  0.81840000  0.10250000  0.07700000  1
  C  C137  1  0.82540000  0.55950000  0.07820000  1
  C  C138  1  0.84060000  0.18160000  0.74960000  1
  C  C139  1  0.84500000  0.55220000  0.24280000  1
  C  C140  1  0.85220000  0.04850000  0.68170000  1
  C  C141  1  0.85280000  0.27700000  0.96930000  1
  C  C142  1  0.85760000  0.25340000  0.41330000  1
  C  C143  1  0.85820000  0.16760000  0.38590000  1
  C  C144  1  0.89490000  0.91860000  0.18340000  1
  C  C145  1  0.92920000  0.22690000  0.66150000  1
  C  C146  1  0.93120000  0.08750000  0.08060000  1
  C  C147  1  0.94800000  0.08840000  0.59900000  1
  C  C148  1  0.94890000  0.15140000  0.30190000  1
  C  C149  1  0.96470000  0.25960000  0.97570000  1
  C  C150  1  0.96570000  0.32780000  0.64490000  1
  C  C151  1  0.96580000  0.78440000  0.74950000  1
  C  C152  1  0.96790000  0.70490000  0.71440000  1
  C  C153  1  0.96970000  0.99110000  0.13400000  1
  C  C154  1  0.98360000  0.17990000  0.58700000  1
  C  C155  1  0.99700000  0.82920000  0.97260000  1
  N  N156  1  0.05450000  0.68500000  0.63580000  1
  N  N157  1  0.23540000  0.63880000  0.48200000  1
  N  N158  1  0.25260000  0.97500000  0.87480000  1
  N  N159  1  0.33130000  0.79120000  0.97970000  1
  N  N160  1  0.66870000  0.20880000  0.02030000  1
  N  N161  1  0.74740000  0.02500000  0.12520000  1
  N  N162  1  0.76460000  0.36120000  0.51800000  1
  N  N163  1  0.94550000  0.31500000  0.36420000  1
  O  O164  1  0.00630000  0.65450000  0.29100000  1
  O  O165  1  0.03020000  0.60450000  0.44060000  1
  O  O166  1  0.05540000  0.49130000  0.77700000  1
  O  O167  1  0.13650000  0.41830000  0.36240000  1
  O  O168  1  0.19140000  0.43750000  0.48080000  1
  O  O169  1  0.21250000  0.44010000  0.67030000  1
  O  O170  1  0.30440000  0.95310000  0.06460000  1
  O  O171  1  0.36950000  0.98840000  0.16800000  1
  O  O172  1  0.39960000  0.12400000  0.86450000  1
  O  O173  1  0.42960000  0.17980000  0.17620000  1
  O  O174  1  0.46310000  0.14440000  0.97470000  1
  O  O175  1  0.49170000  0.95110000  0.73180000  1
  O  O176  1  0.50830000  0.04890000  0.26820000  1
  O  O177  1  0.53690000  0.85560000  0.02530000  1
  O  O178  1  0.57040000  0.82020000  0.82380000  1
  O  O179  1  0.60040000  0.87600000  0.13550000  1
  O  O180  1  0.63050000  0.01160000  0.83200000  1
  O  O181  1  0.69560000  0.04690000  0.93540000  1
  O  O182  1  0.78750000  0.55990000  0.32970000  1
  O  O183  1  0.80860000  0.56250000  0.51920000  1
  O  O184  1  0.86350000  0.58170000  0.63760000  1
  O  O185  1  0.94460000  0.50870000  0.22300000  1
  O  O186  1  0.96980000  0.39550000  0.55940000  1
  O  O187  1  0.99370000  0.34550000  0.70900000  1
