# generated using pymatgen
data_CoCu4B2H50C51(N9O8)2
_symmetry_space_group_name_H-M   'P 1'
_cell_length_a   16.09233968
_cell_length_b   16.09233968
_cell_length_c   18.92500000
_cell_angle_alpha   66.97572675
_cell_angle_beta   66.97572675
_cell_angle_gamma   68.49700150
_symmetry_Int_Tables_number   1
_chemical_formula_structural   CoCu4B2H50C51(N9O8)2
_chemical_formula_sum   'Co2 Cu8 B4 H100 C102 N36 O32'
_cell_volume   4017.03838944
_cell_formula_units_Z   2
loop_
 _symmetry_equiv_pos_site_id
 _symmetry_equiv_pos_as_xyz
  1  'x, y, z'
loop_
 _atom_site_type_symbol
 _atom_site_label
 _atom_site_symmetry_multiplicity
 _atom_site_fract_x
 _atom_site_fract_y
 _atom_site_fract_z
 _atom_site_occupancy
  B  B0  1  0.97890000  0.07630000  0.31070000  1
  B  B1  1  0.25170000  0.82570000  0.85730000  1
  B  B2  1  0.17430000  0.74830000  0.14270000  1
  B  B3  1  0.92370000  0.02110000  0.68930000  1
  C  C4  1  0.18790000  0.89750000  0.33530000  1
  C  C5  1  0.07580000  0.03200000  0.88820000  1
  C  C6  1  0.10910000  0.00450000  0.38660000  1
  C  C7  1  0.33670000  0.79170000  0.07720000  1
  C  C8  1  0.97520000  0.17380000  0.61700000  1
  C  C9  1  0.19550000  0.95570000  0.93080000  1
  C  C10  1  0.05610000  0.12570000  0.09610000  1
  C  C11  1  0.28530000  0.90450000  0.64390000  1
  C  C12  1  0.98680000  0.21000000  0.17320000  1
  C  C13  1  0.29530000  0.90790000  0.11690000  1
  C  C14  1  0.37640000  0.82840000  0.71760000  1
  C  C15  1  0.08430000  0.13690000  0.66370000  1
  C  C16  1  0.72400000  0.52540000  0.57470000  1
  C  C17  1  0.63800000  0.61780000  0.45330000  1
  C  C18  1  0.72280000  0.55520000  0.09250000  1
  C  C19  1  0.81890000  0.48330000  0.21430000  1
  C  C20  1  0.45590000  0.88110000  0.30310000  1
  C  C21  1  0.65220000  0.69280000  0.74890000  1
  C  C22  1  0.76980000  0.58740000  0.50440000  1
  C  C23  1  0.87950000  0.48630000  0.83190000  1
  C  C24  1  0.70980000  0.65640000  0.44970000  1
  C  C25  1  0.66280000  0.70580000  0.85330000  1
  C  C26  1  0.84380000  0.52560000  0.45200000  1
  C  C27  1  0.88820000  0.49560000  0.74200000  1
  C  C28  1  0.78140000  0.61760000  0.09030000  1
  C  C29  1  0.85190000  0.54710000  0.13870000  1
  C  C30  1  0.37580000  0.02800000  0.34170000  1
  C  C31  1  0.72310000  0.68710000  0.13690000  1
  C  C32  1  0.93340000  0.47740000  0.47060000  1
  C  C33  1  0.66160000  0.75100000  0.47310000  1
  C  C34  1  0.21440000  0.21840000  0.20810000  1
  C  C35  1  0.84930000  0.58430000  0.36910000  1
  C  C36  1  0.94130000  0.49290000  0.08740000  1
  C  C37  1  0.66620000  0.77000000  0.08980000  1
  C  C38  1  0.55270000  0.90350000  0.76770000  1
  C  C39  1  0.82170000  0.63570000  0.52530000  1
  C  C40  1  0.79060000  0.67320000  0.36660000  1
  C  C41  1  0.51090000  0.95450000  0.26390000  1
  C  C42  1  0.63360000  0.83500000  0.89810000  1
  C  C43  1  0.67910000  0.79010000  0.70080000  1
  C  C44  1  0.67850000  0.79530000  0.82740000  1
  C  C45  1  0.64600000  0.83540000  0.62610000  1
  C  C46  1  0.96670000  0.51510000  0.81360000  1
  C  C47  1  0.51220000  0.97280000  0.39140000  1
  C  C48  1  0.00980000  0.47960000  0.88450000  1
  C  C49  1  0.47400000  0.01700000  0.31900000  1
  C  C50  1  0.64020000  0.85200000  0.75580000  1
  C  C51  1  0.82890000  0.66590000  0.00090000  1
  C  C52  1  0.37310000  0.12190000  0.84580000  1
  C  C53  1  0.10000000  0.39720000  0.74940000  1
  C  C54  1  0.29470000  0.20430000  0.83850000  1
  C  C55  1  0.79570000  0.70530000  0.16150000  1
  C  C56  1  0.60280000  0.90000000  0.25060000  1
  C  C57  1  0.87810000  0.62690000  0.15420000  1
  C  C58  1  0.33410000  0.17110000  0.99910000  1
  C  C59  1  0.14800000  0.35980000  0.24420000  1
  C  C60  1  0.98300000  0.52600000  0.68100000  1
  C  C61  1  0.52040000  0.99020000  0.11550000  1
  C  C62  1  0.02720000  0.48780000  0.60860000  1
  C  C63  1  0.48490000  0.03330000  0.18640000  1
  C  C64  1  0.16460000  0.35400000  0.37390000  1
  C  C65  1  0.20470000  0.32150000  0.17260000  1
  C  C66  1  0.20990000  0.32090000  0.29920000  1
  C  C67  1  0.16500000  0.36640000  0.10190000  1
  C  C68  1  0.04550000  0.48910000  0.73610000  1
  C  C69  1  0.32680000  0.20940000  0.63340000  1
  C  C70  1  0.36430000  0.17830000  0.47470000  1
  C  C71  1  0.09650000  0.44730000  0.23230000  1
  C  C72  1  0.23000000  0.33380000  0.91020000  1
  C  C73  1  0.50710000  0.05870000  0.91260000  1
  C  C74  1  0.41570000  0.15070000  0.63090000  1
  C  C75  1  0.78160000  0.78560000  0.79190000  1
  C  C76  1  0.24900000  0.33840000  0.52690000  1
  C  C77  1  0.52260000  0.06660000  0.52940000  1
  C  C78  1  0.31290000  0.27690000  0.86310000  1
  C  C79  1  0.97200000  0.62420000  0.65830000  1
  C  C80  1  0.38240000  0.21860000  0.90970000  1
  C  C81  1  0.45290000  0.14810000  0.86130000  1
  C  C82  1  0.50440000  0.11180000  0.25800000  1
  C  C83  1  0.47440000  0.15620000  0.54800000  1
  C  C84  1  0.29420000  0.33720000  0.14670000  1
  C  C85  1  0.34360000  0.29020000  0.55030000  1
  C  C86  1  0.51370000  0.12050000  0.16810000  1
  C  C87  1  0.41260000  0.23020000  0.49560000  1
  C  C88  1  0.30720000  0.34780000  0.25110000  1
  C  C89  1  0.11890000  0.54410000  0.69690000  1
  C  C90  1  0.51670000  0.18110000  0.78570000  1
  C  C91  1  0.44480000  0.27720000  0.90750000  1
  C  C92  1  0.38220000  0.36200000  0.54670000  1
  C  C93  1  0.47460000  0.27600000  0.42530000  1
  C  C94  1  0.86310000  0.91570000  0.33630000  1
  C  C95  1  0.17160000  0.62360000  0.28240000  1
  C  C96  1  0.09210000  0.70470000  0.88310000  1
  C  C97  1  0.79000000  0.01320000  0.82680000  1
  C  C98  1  0.09550000  0.71470000  0.35610000  1
  C  C99  1  0.87430000  0.94390000  0.90390000  1
  C  C100  1  0.04430000  0.80450000  0.06920000  1
  C  C101  1  0.82620000  0.02480000  0.38300000  1
  C  C102  1  0.20830000  0.66330000  0.92280000  1
  C  C103  1  0.99550000  0.89090000  0.61340000  1
  C  C104  1  0.96800000  0.92420000  0.11180000  1
  C  C105  1  0.10250000  0.81210000  0.66470000  1
  Co  Co106  1  0.08442000  0.92262000  0.77893000  1
  Co  Co107  1  0.07738000  0.91558000  0.22107000  1
  Cu  Cu108  1  0.50858000  0.87478000  0.55020000  1
  Cu  Cu109  1  0.50964000  0.87870000  0.03345000  1
  Cu  Cu110  1  0.04697000  0.34693000  0.02418000  1
  Cu  Cu111  1  0.06545000  0.34021000  0.53850000  1
  Cu  Cu112  1  0.65979000  0.93455000  0.46150000  1
  Cu  Cu113  1  0.65307000  0.95303000  0.97582000  1
  Cu  Cu114  1  0.12130000  0.49036000  0.96655000  1
  Cu  Cu115  1  0.12522000  0.49142000  0.44980000  1
  H  H116  1  0.23340000  0.84260000  0.32500000  1
  H  H117  1  0.95140000  0.12620000  0.33830000  1
  H  H118  1  0.02090000  0.07870000  0.87940000  1
  H  H119  1  0.30490000  0.79690000  0.88110000  1
  H  H120  1  0.37250000  0.74410000  0.05180000  1
  H  H121  1  0.08380000  0.04300000  0.42130000  1
  H  H122  1  0.93200000  0.20580000  0.58650000  1
  H  H123  1  0.24290000  0.93570000  0.95620000  1
  H  H124  1  0.68800000  0.50000000  0.56040000  1
  H  H125  1  0.60900000  0.58640000  0.50920000  1
  H  H126  1  0.09090000  0.10870000  0.04790000  1
  H  H127  1  0.26390000  0.93730000  0.59770000  1
  H  H128  1  0.68720000  0.53020000  0.14800000  1
  H  H129  1  0.95980000  0.26220000  0.19370000  1
  H  H130  1  0.43020000  0.79520000  0.73560000  1
  H  H131  1  0.66680000  0.57260000  0.42220000  1
  H  H132  1  0.68200000  0.55940000  0.61380000  1
  H  H133  1  0.81130000  0.43070000  0.20560000  1
  H  H134  1  0.77070000  0.47410000  0.59800000  1
  H  H135  1  0.59030000  0.66830000  0.43080000  1
  H  H136  1  0.29658333  0.96321667  0.12300000  1
  H  H137  1  0.76530000  0.50350000  0.07080000  1
  H  H138  1  0.67960000  0.59340000  0.06010000  1
  H  H139  1  0.75860000  0.51520000  0.24450000  1
  H  H140  1  0.13840000  0.13840000  0.67160000  1
  H  H141  1  0.81550000  0.47530000  0.46050000  1
  H  H142  1  0.88190000  0.42170000  0.86740000  1
  H  H143  1  0.86390000  0.46030000  0.24480000  1
  H  H144  1  0.88910000  0.43510000  0.73910000  1
  H  H145  1  0.67950000  0.65630000  0.18680000  1
  H  H146  1  0.35630000  0.98470000  0.39490000  1
  H  H147  1  0.82250000  0.52950000  0.85550000  1
  H  H148  1  0.36070000  0.01450000  0.30250000  1
  H  H149  1  0.83340000  0.54300000  0.72630000  1
  H  H150  1  0.83160000  0.55480000  0.34180000  1
  H  H151  1  0.35170000  0.06950000  0.89120000  1
  H  H152  1  0.23530000  0.18810000  0.87430000  1
  H  H153  1  0.29240000  0.13820000  0.00100000  1
  H  H154  1  0.34300000  0.09220000  0.34330000  1
  H  H155  1  0.78230000  0.65450000  0.57380000  1
  H  H156  1  0.28370000  0.17630000  0.63690000  1
  H  H157  1  0.76500000  0.69880000  0.32040000  1
  H  H158  1  0.88030000  0.59190000  0.53450000  1
  H  H159  1  0.22250000  0.25130000  0.31670000  1
  H  H160  1  0.30920000  0.16480000  0.51940000  1
  H  H161  1  0.76980000  0.70880000  0.21740000  1
  H  H162  1  0.78110000  0.70210000  0.97290000  1
  H  H163  1  0.87330000  0.61830000  0.97490000  1
  H  H164  1  0.41090000  0.08570000  0.66000000  1
  H  H165  1  0.89740000  0.60060000  0.20390000  1
  H  H166  1  0.39940000  0.10260000  0.79610000  1
  H  H167  1  0.91430000  0.58910000  0.34000000  1
  H  H168  1  0.38170000  0.12670000  0.02510000  1
  H  H169  1  0.29790000  0.21890000  0.02710000  1
  H  H170  1  0.29120000  0.23020000  0.78260000  1
  H  H171  1  0.83520000  0.69080000  0.48060000  1
  H  H172  1  0.74870000  0.77750000  0.68330000  1
  H  H173  1  0.40810000  0.11970000  0.46550000  1
  H  H174  1  0.30120000  0.23500000  0.67960000  1
  H  H175  1  0.82370000  0.71630000  0.36310000  1
  H  H176  1  0.34550000  0.21770000  0.42620000  1
  H  H177  1  0.90780000  0.65700000  0.65670000  1
  H  H178  1  0.86180000  0.70760000  0.99900000  1
  H  H179  1  0.81190000  0.76470000  0.12570000  1
  H  H180  1  0.93050000  0.64830000  0.10880000  1
  H  H181  1  0.44520000  0.16840000  0.65820000  1
  H  H182  1  0.45700000  0.16660000  0.27370000  1
  H  H183  1  0.98550000  0.63930000  0.69750000  1
  H  H184  1  0.47050000  0.17750000  0.14450000  1
  H  H185  1  0.01530000  0.64370000  0.60510000  1
  H  H186  1  0.34370000  0.32050000  0.81320000  1
  H  H187  1  0.53970000  0.13610000  0.75520000  1
  H  H188  1  0.56490000  0.11090000  0.26090000  1
  H  H189  1  0.57830000  0.11810000  0.13260000  1
  H  H190  1  0.52470000  0.18450000  0.53950000  1
  H  H191  1  0.86160000  0.86160000  0.32840000  1
  H  H192  1  0.48480000  0.24140000  0.75550000  1
  H  H193  1  0.40660000  0.32040000  0.93990000  1
  H  H194  1  0.49650000  0.23470000  0.92920000  1
  H  H195  1  0.03678333  0.70341667  0.87700000  1
  H  H196  1  0.33170000  0.40970000  0.56920000  1
  H  H197  1  0.52590000  0.22930000  0.40200000  1
  H  H198  1  0.56930000  0.18870000  0.79440000  1
  H  H199  1  0.44060000  0.31800000  0.38620000  1
  H  H200  1  0.42740000  0.33320000  0.57780000  1
  H  H201  1  0.20480000  0.56980000  0.26440000  1
  H  H202  1  0.73780000  0.04020000  0.80630000  1
  H  H203  1  0.46980000  0.31280000  0.85200000  1
  H  H204  1  0.06270000  0.73610000  0.40230000  1
  H  H205  1  0.89130000  0.90910000  0.95210000  1
  H  H206  1  0.41360000  0.39100000  0.49080000  1
  H  H207  1  0.50000000  0.31200000  0.43960000  1
  H  H208  1  0.06430000  0.75710000  0.04380000  1
  H  H209  1  0.79420000  0.06800000  0.41350000  1
  H  H210  1  0.95700000  0.91620000  0.57870000  1
  H  H211  1  0.25590000  0.62750000  0.94820000  1
  H  H212  1  0.20310000  0.69510000  0.11890000  1
  H  H213  1  0.92130000  0.97910000  0.12060000  1
  H  H214  1  0.87380000  0.04860000  0.66170000  1
  H  H215  1  0.15740000  0.76660000  0.67500000  1
  N  N216  1  0.24390000  0.80690000  0.11480000  1
  N  N217  1  0.11820000  0.94160000  0.29950000  1
  N  N218  1  0.97960000  0.08660000  0.66610000  1
  N  N219  1  0.11550000  0.96110000  0.85630000  1
  N  N220  1  0.06890000  0.01190000  0.32990000  1
  N  N221  1  0.21850000  0.88290000  0.14350000  1
  N  N222  1  0.19010000  0.91270000  0.88300000  1
  N  N223  1  0.04850000  0.06230000  0.16510000  1
  N  N224  1  0.05200000  0.06360000  0.69880000  1
  N  N225  1  0.00410000  0.11850000  0.21810000  1
  N  N226  1  0.18760000  0.93640000  0.38540000  1
  N  N227  1  0.22920000  0.89840000  0.71870000  1
  N  N228  1  0.28850000  0.85150000  0.76570000  1
  N  N229  1  0.12370000  0.02930000  0.93530000  1
  N  N230  1  0.37150000  0.85510000  0.08120000  1
  N  N231  1  0.01490000  0.21390000  0.09360000  1
  N  N232  1  0.37590000  0.85970000  0.64050000  1
  N  N233  1  0.03870000  0.21170000  0.61530000  1
  N  N234  1  0.78830000  0.96130000  0.38470000  1
  N  N235  1  0.14030000  0.62410000  0.35950000  1
  N  N236  1  0.78610000  0.98510000  0.90640000  1
  N  N237  1  0.14490000  0.62850000  0.91880000  1
  N  N238  1  0.97070000  0.87630000  0.06470000  1
  N  N239  1  0.14850000  0.71150000  0.23430000  1
  N  N240  1  0.10160000  0.77080000  0.28130000  1
  N  N241  1  0.06360000  0.81240000  0.61460000  1
  N  N242  1  0.88150000  0.99590000  0.78190000  1
  N  N243  1  0.93640000  0.94800000  0.30120000  1
  N  N244  1  0.93770000  0.95150000  0.83490000  1
  N  N245  1  0.08730000  0.80990000  0.11700000  1
  N  N246  1  0.11710000  0.78150000  0.85650000  1
  N  N247  1  0.98810000  0.93110000  0.67010000  1
  N  N248  1  0.03890000  0.88450000  0.14370000  1
  N  N249  1  0.91340000  0.02040000  0.33390000  1
  N  N250  1  0.05840000  0.88180000  0.70050000  1
  N  N251  1  0.19310000  0.75610000  0.88520000  1
  O  O252  1  0.57910000  0.75730000  0.52390000  1
  O  O253  1  0.94710000  0.39510000  0.51220000  1
  O  O254  1  0.93470000  0.41970000  0.08490000  1
  O  O255  1  0.58360000  0.77540000  0.09940000  1
  O  O256  1  0.56750000  0.81350000  0.95120000  1
  O  O257  1  0.56450000  0.82790000  0.63750000  1
  O  O258  1  0.47000000  0.92260000  0.45450000  1
  O  O259  1  0.99600000  0.40080000  0.93270000  1
  O  O260  1  0.47390000  0.94710000  0.11080000  1
  O  O261  1  0.01090000  0.41110000  0.61920000  1
  O  O262  1  0.12730000  0.30270000  0.43760000  1
  O  O263  1  0.10940000  0.32480000  0.10620000  1
  O  O264  1  0.46850000  0.99190000  0.95340000  1
  O  O265  1  0.16680000  0.29480000  0.95410000  1
  O  O266  1  0.18070000  0.29910000  0.56160000  1
  O  O267  1  0.47500000  0.00640000  0.55800000  1
  O  O268  1  0.99360000  0.52500000  0.44200000  1
  O  O269  1  0.70090000  0.81930000  0.43840000  1
  O  O270  1  0.70520000  0.83320000  0.04590000  1
  O  O271  1  0.00810000  0.53150000  0.04660000  1
  O  O272  1  0.67520000  0.89060000  0.89380000  1
  O  O273  1  0.69730000  0.87270000  0.56240000  1
  O  O274  1  0.58890000  0.98910000  0.38080000  1
  O  O275  1  0.05290000  0.52610000  0.88920000  1
  O  O276  1  0.59920000  0.00400000  0.06730000  1
  O  O277  1  0.07740000  0.53000000  0.54550000  1
  O  O278  1  0.17210000  0.43550000  0.36250000  1
  O  O279  1  0.18650000  0.43250000  0.04880000  1
  O  O280  1  0.22460000  0.41640000  0.90060000  1
  O  O281  1  0.58030000  0.06530000  0.91510000  1
  O  O282  1  0.60490000  0.05290000  0.48780000  1
  O  O283  1  0.24270000  0.42090000  0.47610000  1
