# generated using pymatgen
data_Sm2CuH16C28(NO6)2
_symmetry_space_group_name_H-M   'P 1'
_cell_length_a   6.21270000
_cell_length_b   7.00810000
_cell_length_c   18.79748362
_cell_angle_alpha   100.74338395
_cell_angle_beta   97.11832811
_cell_angle_gamma   90.00000000
_symmetry_Int_Tables_number   1
_chemical_formula_structural   Sm2CuH16C28(NO6)2
_chemical_formula_sum   'Sm2 Cu1 H16 C28 N2 O12'
_cell_volume   797.66077127
_cell_formula_units_Z   1
loop_
 _symmetry_equiv_pos_site_id
 _symmetry_equiv_pos_as_xyz
  1  'x, y, z'
loop_
 _atom_site_type_symbol
 _atom_site_label
 _atom_site_symmetry_multiplicity
 _atom_site_fract_x
 _atom_site_fract_y
 _atom_site_fract_z
 _atom_site_occupancy
  C  C0  1  0.29300000  0.19230000  0.89840000  1
  C  C1  1  0.96230000  0.28550000  0.84700000  1
  C  C2  1  0.36900000  0.15190000  0.83020000  1
  C  C3  1  0.07120000  0.73451000  0.78302000  1
  C  C4  1  0.27500000  0.66067000  0.77894000  1
  C  C5  1  0.02670000  0.24729000  0.77838000  1
  C  C6  1  0.23350000  0.19005000  0.77010000  1
  C  C7  1  0.94740000  0.76520000  0.71980000  1
  C  C8  1  0.35390000  0.61276000  0.71272000  1
  C  C9  1  0.31660000  0.14826000  0.69652000  1
  C  C10  1  0.02270000  0.72015000  0.65270000  1
  C  C11  1  0.23150000  0.63964000  0.64928000  1
  C  C12  1  0.87030000  0.74634000  0.58648000  1
  C  C13  1  0.33260000  0.61383000  0.57966000  1
  C  C14  1  0.66740000  0.03417000  0.42034000  1
  C  C15  1  0.12970000  0.15986000  0.41352000  1
  C  C16  1  0.76850000  0.99036000  0.35072000  1
  C  C17  1  0.97730000  0.06745000  0.34730000  1
  C  C18  1  0.68340000  0.45174000  0.30348000  1
  C  C19  1  0.64610000  0.90004000  0.28728000  1
  C  C20  1  0.05260000  0.04540000  0.28020000  1
  C  C21  1  0.76650000  0.41995000  0.22990000  1
  C  C22  1  0.97330000  0.46891000  0.22162000  1
  C  C23  1  0.72500000  0.88173000  0.22106000  1
  C  C24  1  0.92880000  0.95149000  0.21698000  1
  C  C25  1  0.63100000  0.32170000  0.16980000  1
  C  C26  1  0.03770000  0.43850000  0.15300000  1
  C  C27  1  0.70700000  0.29390000  0.10160000  1
  Cu  Cu28  1  1.00000000  0.30840000  0.00000000  1
  H  H29  1  0.38090000  0.16610000  0.93900000  1
  H  H30  1  0.82100000  0.32460000  0.85180000  1
  H  H31  1  0.01700000  0.76340000  0.82760000  1
  H  H32  1  0.50560000  0.10090000  0.82520000  1
  H  H33  1  0.36060000  0.64280000  0.82140000  1
  H  H34  1  0.92960000  0.26010000  0.73780000  1
  H  H35  1  0.81040000  0.81750000  0.72260000  1
  H  H36  1  0.49170000  0.56150000  0.71080000  1
  H  H37  1  0.50830000  0.85070000  0.28920000  1
  H  H38  1  0.18960000  0.09490000  0.27740000  1
  H  H39  1  0.07040000  0.52230000  0.26220000  1
  H  H40  1  0.63940000  0.82140000  0.17860000  1
  H  H41  1  0.49440000  0.27570000  0.17480000  1
  H  H42  1  0.98300000  0.93580000  0.17240000  1
  H  H43  1  0.17900000  0.47280000  0.14820000  1
  H  H44  1  0.61910000  0.22710000  0.06100000  1
  N  N45  1  0.09600000  0.26843000  0.90686000  1
  N  N46  1  0.90400000  0.36157000  0.09314000  1
  O  O47  1  0.51010000  0.10133000  0.69326000  1
  O  O48  1  0.19030000  0.15072000  0.63924000  1
  O  O49  1  0.77490000  0.90510000  0.59220000  1
  O  O50  1  0.41010000  0.44080000  0.55820000  1
  O  O51  1  0.34840000  0.74253000  0.54566000  1
  O  O52  1  0.83780000  0.60081000  0.53322000  1
  O  O53  1  0.16220000  0.06759000  0.46678000  1
  O  O54  1  0.65160000  0.19687000  0.45434000  1
  O  O55  1  0.58990000  0.88260000  0.44180000  1
  O  O56  1  0.22510000  0.31290000  0.40780000  1
  O  O57  1  0.80970000  0.51148000  0.36076000  1
  O  O58  1  0.48990000  0.40807000  0.30674000  1
  Sm  Sm59  1  0.47737000  0.09071000  0.56020000  1
  Sm  Sm60  1  0.52263000  0.53051000  0.43980000  1
