# generated using pymatgen
data_Ce2H20C36O13
_symmetry_space_group_name_H-M   'P 1'
_cell_length_a   12.48180000
_cell_length_b   12.54415701
_cell_length_c   16.50900000
_cell_angle_alpha   83.29297628
_cell_angle_beta   76.42300000
_cell_angle_gamma   60.16430358
_symmetry_Int_Tables_number   1
_chemical_formula_structural   Ce2H20C36O13
_chemical_formula_sum   'Ce4 H40 C72 O26'
_cell_volume   2179.60468299
_cell_formula_units_Z   2
loop_
 _symmetry_equiv_pos_site_id
 _symmetry_equiv_pos_as_xyz
  1  'x, y, z'
loop_
 _atom_site_type_symbol
 _atom_site_label
 _atom_site_symmetry_multiplicity
 _atom_site_fract_x
 _atom_site_fract_y
 _atom_site_fract_z
 _atom_site_occupancy
  C  C0  1  0.44060000  0.09840000  0.64070000  1
  C  C1  1  0.53900000  0.90160000  0.14070000  1
  C  C2  1  0.37960000  0.21460000  0.14190000  1
  C  C3  1  0.59420000  0.78540000  0.64190000  1
  C  C4  1  0.35840000  0.21500000  0.28940000  1
  C  C5  1  0.57340000  0.78500000  0.78940000  1
  C  C6  1  0.40990000  0.09760000  0.72730000  1
  C  C7  1  0.50750000  0.90240000  0.22730000  1
  C  C8  1  0.35290000  0.09700000  0.90070000  1
  C  C9  1  0.44990000  0.90300000  0.40070000  1
  C  C10  1  0.27130000  0.20880000  0.15150000  1
  C  C11  1  0.48010000  0.79120000  0.65150000  1
  C  C12  1  0.94270000  0.84200000  0.44440000  1
  C  C13  1  0.78470000  0.15800000  0.94440000  1
  C  C14  1  0.24360000  0.21400000  0.29780000  1
  C  C15  1  0.45760000  0.78600000  0.79780000  1
  C  C16  1  0.29930000  0.09480000  0.77170000  1
  C  C17  1  0.39410000  0.90520000  0.27170000  1
  C  C18  1  0.00420000  0.64040000  0.52010000  1
  C  C19  1  0.64460000  0.35960000  0.02010000  1
  C  C20  1  0.27260000  0.09300000  0.85490000  1
  C  C21  1  0.36560000  0.90700000  0.35490000  1
  C  C22  1  0.91550000  0.80120000  0.75920000  1
  C  C23  1  0.71670000  0.19880000  0.25920000  1
  C  C24  1  0.95630000  0.71500000  0.45650000  1
  C  C25  1  0.67130000  0.28500000  0.95650000  1
  C  C26  1  0.20110000  0.21020000  0.23110000  1
  C  C27  1  0.41130000  0.78980000  0.73110000  1
  C  C28  1  0.84310000  0.91340000  0.09810000  1
  C  C29  1  0.75650000  0.08660000  0.59810000  1
  C  C30  1  0.06970000  0.44200000  0.59430000  1
  C  C31  1  0.51170000  0.55800000  0.09430000  1
  C  C32  1  0.01750000  0.52260000  0.52990000  1
  C  C33  1  0.54010000  0.47740000  0.02990000  1
  C  C34  1  0.91740000  0.67380000  0.39740000  1
  C  C35  1  0.59120000  0.32620000  0.89740000  1
  C  C36  1  0.08260000  0.32620000  0.60260000  1
  C  C37  1  0.40880000  0.67380000  0.10260000  1
  C  C38  1  0.98250000  0.47740000  0.47010000  1
  C  C39  1  0.45990000  0.52260000  0.97010000  1
  C  C40  1  0.93030000  0.55800000  0.40570000  1
  C  C41  1  0.48830000  0.44200000  0.90570000  1
  C  C42  1  0.15690000  0.08660000  0.90190000  1
  C  C43  1  0.24350000  0.91340000  0.40190000  1
  C  C44  1  0.79890000  0.78980000  0.76890000  1
  C  C45  1  0.58870000  0.21020000  0.26890000  1
  C  C46  1  0.04370000  0.28500000  0.54350000  1
  C  C47  1  0.32870000  0.71500000  0.04350000  1
  C  C48  1  0.08450000  0.19880000  0.24080000  1
  C  C49  1  0.28330000  0.80120000  0.74080000  1
  C  C50  1  0.72740000  0.90700000  0.14510000  1
  C  C51  1  0.63440000  0.09300000  0.64510000  1
  C  C52  1  0.99580000  0.35960000  0.47990000  1
  C  C53  1  0.35540000  0.64040000  0.97990000  1
  C  C54  1  0.70070000  0.90520000  0.22830000  1
  C  C55  1  0.60590000  0.09480000  0.72830000  1
  C  C56  1  0.75640000  0.78600000  0.70220000  1
  C  C57  1  0.54240000  0.21400000  0.20220000  1
  C  C58  1  0.05730000  0.15800000  0.55560000  1
  C  C59  1  0.21530000  0.84200000  0.05560000  1
  C  C60  1  0.72870000  0.79120000  0.84850000  1
  C  C61  1  0.51990000  0.20880000  0.34850000  1
  C  C62  1  0.64710000  0.90300000  0.09930000  1
  C  C63  1  0.55010000  0.09700000  0.59930000  1
  C  C64  1  0.59010000  0.90240000  0.27270000  1
  C  C65  1  0.49250000  0.09760000  0.77270000  1
  C  C66  1  0.64160000  0.78500000  0.71060000  1
  C  C67  1  0.42660000  0.21500000  0.21060000  1
  C  C68  1  0.62040000  0.78540000  0.85810000  1
  C  C69  1  0.40580000  0.21460000  0.35810000  1
  C  C70  1  0.55940000  0.90160000  0.35930000  1
  C  C71  1  0.46100000  0.09840000  0.85930000  1
  Ce  Ce72  1  0.01844000  0.90524000  0.90021000  1
  Ce  Ce73  1  0.92368000  0.09476000  0.40021000  1
  Ce  Ce74  1  0.98156000  0.09476000  0.09979000  1
  Ce  Ce75  1  0.07632000  0.90524000  0.59979000  1
  H  H76  1  0.35850000  0.21820000  0.41140000  1
  H  H77  1  0.57670000  0.78180000  0.91140000  1
  H  H78  1  0.96870000  0.94760000  0.26580000  1
  H  H79  1  0.91630000  0.05240000  0.76580000  1
  H  H80  1  0.38580000  0.10000000  0.61040000  1
  H  H81  1  0.48580000  0.90000000  0.11040000  1
  H  H82  1  0.33250000  0.09860000  0.95860000  1
  H  H83  1  0.43110000  0.90140000  0.45860000  1
  H  H84  1  0.02890000  0.66860000  0.55810000  1
  H  H85  1  0.69750000  0.33140000  0.05810000  1
  H  H86  1  0.24410000  0.20400000  0.10500000  1
  H  H87  1  0.44810000  0.79600000  0.60500000  1
  H  H88  1  0.09630000  0.46820000  0.63230000  1
  H  H89  1  0.56450000  0.53180000  0.13230000  1
  H  H90  1  0.19630000  0.21600000  0.35090000  1
  H  H91  1  0.41230000  0.78400000  0.85090000  1
  H  H92  1  0.24430000  0.09440000  0.74230000  1
  H  H93  1  0.33870000  0.90560000  0.24230000  1
  H  H94  1  0.11610000  0.27540000  0.64600000  1
  H  H95  1  0.39150000  0.72460000  0.14600000  1
  H  H96  1  0.88390000  0.72460000  0.35400000  1
  H  H97  1  0.60850000  0.27540000  0.85400000  1
  H  H98  1  0.75570000  0.90560000  0.25770000  1
  H  H99  1  0.66130000  0.09440000  0.75770000  1
  H  H100  1  0.80370000  0.78400000  0.64910000  1
  H  H101  1  0.58770000  0.21600000  0.14910000  1
  H  H102  1  0.90370000  0.53180000  0.36770000  1
  H  H103  1  0.43550000  0.46820000  0.86770000  1
  H  H104  1  0.75590000  0.79600000  0.89500000  1
  H  H105  1  0.55190000  0.20400000  0.39500000  1
  H  H106  1  0.97110000  0.33140000  0.44190000  1
  H  H107  1  0.30250000  0.66860000  0.94190000  1
  H  H108  1  0.66750000  0.90140000  0.04140000  1
  H  H109  1  0.56890000  0.09860000  0.54140000  1
  H  H110  1  0.61420000  0.90000000  0.38960000  1
  H  H111  1  0.51420000  0.10000000  0.88960000  1
  H  H112  1  0.03130000  0.05240000  0.73420000  1
  H  H113  1  0.08370000  0.94760000  0.23420000  1
  H  H114  1  0.64150000  0.78180000  0.58860000  1
  H  H115  1  0.42330000  0.21820000  0.08860000  1
  O  O116  1  0.00430000  0.99140000  0.25000000  1
  O  O117  1  0.99570000  0.00860000  0.75000000  1
  O  O118  1  0.98760000  0.87580000  0.49180000  1
  O  O119  1  0.86340000  0.12420000  0.99180000  1
  O  O120  1  0.98570000  0.78680000  0.68970000  1
  O  O121  1  0.77250000  0.21320000  0.18970000  1
  O  O122  1  0.89270000  0.95320000  0.13750000  1
  O  O123  1  0.84590000  0.04680000  0.63750000  1
  O  O124  1  0.93460000  0.82420000  0.82470000  1
  O  O125  1  0.75880000  0.17580000  0.32470000  1
  O  O126  1  0.88760000  0.91100000  0.39110000  1
  O  O127  1  0.79860000  0.08900000  0.89110000  1
  O  O128  1  0.88020000  0.88320000  0.02300000  1
  O  O129  1  0.76340000  0.11680000  0.52300000  1
  O  O130  1  0.11980000  0.11680000  0.97700000  1
  O  O131  1  0.23660000  0.88320000  0.47700000  1
  O  O132  1  0.11240000  0.08900000  0.60890000  1
  O  O133  1  0.20140000  0.91100000  0.10890000  1
  O  O134  1  0.06540000  0.17580000  0.17530000  1
  O  O135  1  0.24120000  0.82420000  0.67530000  1
  O  O136  1  0.10730000  0.04680000  0.86250000  1
  O  O137  1  0.15410000  0.95320000  0.36250000  1
  O  O138  1  0.01430000  0.21320000  0.31030000  1
  O  O139  1  0.22750000  0.78680000  0.81030000  1
  O  O140  1  0.01240000  0.12420000  0.50820000  1
  O  O141  1  0.13660000  0.87580000  0.00820000  1
