# generated using pymatgen
data_DyH11C20NO6
_symmetry_space_group_name_H-M   'P 1'
_cell_length_a   10.76730000
_cell_length_b   11.02090000
_cell_length_c   13.09180000
_cell_angle_alpha   105.06400000
_cell_angle_beta   94.85400000
_cell_angle_gamma   93.84700000
_symmetry_Int_Tables_number   1
_chemical_formula_structural   DyH11C20NO6
_chemical_formula_sum   'Dy2 H22 C40 N2 O12'
_cell_volume   1488.35627155
_cell_formula_units_Z   2
loop_
 _symmetry_equiv_pos_site_id
 _symmetry_equiv_pos_as_xyz
  1  'x, y, z'
loop_
 _atom_site_type_symbol
 _atom_site_label
 _atom_site_symmetry_multiplicity
 _atom_site_fract_x
 _atom_site_fract_y
 _atom_site_fract_z
 _atom_site_occupancy
  Dy  Dy0  1  0.03020000  0.55128000  0.17541000  1
  Dy  Dy1  1  0.96980000  0.44872000  0.82459000  1
  H  H2  1  0.09180000  0.30570000  0.51960000  1
  H  H3  1  0.09920000  0.93470000  0.25030000  1
  H  H4  1  0.17590000  0.12540000  0.22970000  1
  H  H5  1  0.17840000  0.31080000  0.36630000  1
  H  H6  1  0.22030000  0.19880000  0.94130000  1
  H  H7  1  0.22410000  0.79630000  0.98410000  1
  H  H8  1  0.27140000  0.36540000  0.80660000  1
  H  H9  1  0.38540000  0.31000000  0.76470000  1
  H  H10  1  0.39660000  0.89390000  0.94420000  1
  H  H11  1  0.39780000  0.09910000  0.92730000  1
  H  H12  1  0.41160000  0.62530000  0.13700000  1
  H  H13  1  0.58840000  0.37470000  0.86300000  1
  H  H14  1  0.60220000  0.90090000  0.07270000  1
  H  H15  1  0.60340000  0.10610000  0.05580000  1
  H  H16  1  0.61460000  0.69000000  0.23530000  1
  H  H17  1  0.72860000  0.63460000  0.19340000  1
  H  H18  1  0.77590000  0.20370000  0.01590000  1
  H  H19  1  0.77970000  0.80120000  0.05870000  1
  H  H20  1  0.82160000  0.68920000  0.63370000  1
  H  H21  1  0.82410000  0.87460000  0.77030000  1
  H  H22  1  0.90080000  0.06530000  0.74970000  1
  H  H23  1  0.90820000  0.69430000  0.48040000  1
  C  C24  1  0.00170000  0.12500000  0.99290000  1
  C  C25  1  0.00420000  0.88760000  0.42020000  1
  C  C26  1  0.00460000  0.26120000  0.99080000  1
  C  C27  1  0.01180000  0.76710000  0.33520000  1
  C  C28  1  0.04860000  0.11450000  0.48590000  1
  C  C29  1  0.05090000  0.00070000  0.40520000  1
  C  C30  1  0.09520000  0.23070000  0.46750000  1
  C  C31  1  0.09920000  0.00760000  0.30540000  1
  C  C32  1  0.10730000  0.06200000  0.97730000  1
  C  C33  1  0.10800000  0.93490000  0.98520000  1
  C  C34  1  0.14470000  0.12200000  0.29310000  1
  C  C35  1  0.14490000  0.23450000  0.37500000  1
  C  C36  1  0.21980000  0.11830000  0.95150000  1
  C  C37  1  0.22110000  0.87700000  0.97500000  1
  C  C38  1  0.23280000  0.51920000  0.98570000  1
  C  C39  1  0.32430000  0.93560000  0.95250000  1
  C  C40  1  0.32510000  0.05880000  0.94140000  1
  C  C41  1  0.37150000  0.51000000  0.99110000  1
  C  C42  1  0.42540000  0.43460000  0.90730000  1
  C  C43  1  0.44760000  0.57400000  0.08120000  1
  C  C44  1  0.55240000  0.42600000  0.91880000  1
  C  C45  1  0.57460000  0.56540000  0.09270000  1
  C  C46  1  0.62850000  0.49000000  0.00890000  1
  C  C47  1  0.67490000  0.94120000  0.05860000  1
  C  C48  1  0.67570000  0.06440000  0.04750000  1
  C  C49  1  0.76720000  0.48080000  0.01430000  1
  C  C50  1  0.77890000  0.12300000  0.02500000  1
  C  C51  1  0.78020000  0.88170000  0.04850000  1
  C  C52  1  0.85510000  0.76550000  0.62500000  1
  C  C53  1  0.85530000  0.87800000  0.70690000  1
  C  C54  1  0.89200000  0.06510000  0.01480000  1
  C  C55  1  0.89270000  0.93800000  0.02270000  1
  C  C56  1  0.90080000  0.99240000  0.69460000  1
  C  C57  1  0.90480000  0.76930000  0.53250000  1
  C  C58  1  0.94910000  0.99930000  0.59480000  1
  C  C59  1  0.95140000  0.88550000  0.51410000  1
  C  C60  1  0.98820000  0.23290000  0.66480000  1
  C  C61  1  0.99540000  0.73880000  0.00920000  1
  C  C62  1  0.99580000  0.11240000  0.57980000  1
  C  C63  1  0.99830000  0.87500000  0.00710000  1
  N  N64  1  0.35100000  0.36000000  0.81380000  1
  N  N65  1  0.64900000  0.64000000  0.18620000  1
  O  O66  1  0.00920000  0.71730000  0.09650000  1
  O  O67  1  0.02250000  0.34130000  0.07800000  1
  O  O68  1  0.08860000  0.29280000  0.71210000  1
  O  O69  1  0.11620000  0.72880000  0.31720000  1
  O  O70  1  0.17240000  0.49250000  0.89840000  1
  O  O71  1  0.18870000  0.55810000  0.07210000  1
  O  O72  1  0.81130000  0.44190000  0.92790000  1
  O  O73  1  0.82760000  0.50750000  0.10160000  1
  O  O74  1  0.88380000  0.27120000  0.68280000  1
  O  O75  1  0.91140000  0.70720000  0.28790000  1
  O  O76  1  0.97750000  0.65870000  0.92200000  1
  O  O77  1  0.99080000  0.28270000  0.90350000  1
