# generated using pymatgen
data_Cd5(C7N5)2
_symmetry_space_group_name_H-M   'P 1'
_cell_length_a   10.97000000
_cell_length_b   13.07782891
_cell_length_c   15.90600000
_cell_angle_alpha   90.00000000
_cell_angle_beta   90.00000000
_cell_angle_gamma   114.79747798
_symmetry_Int_Tables_number   1
_chemical_formula_structural   Cd5(C7N5)2
_chemical_formula_sum   'Cd10 C28 N20'
_cell_volume   2071.53127104
_cell_formula_units_Z   2
loop_
 _symmetry_equiv_pos_site_id
 _symmetry_equiv_pos_as_xyz
  1  'x, y, z'
loop_
 _atom_site_type_symbol
 _atom_site_label
 _atom_site_symmetry_multiplicity
 _atom_site_fract_x
 _atom_site_fract_y
 _atom_site_fract_z
 _atom_site_occupancy
  C  C0  1  0.47660000  0.95320000  0.25000000  1
  C  C1  1  0.47660000  0.95320000  0.75000000  1
  C  C2  1  0.52340000  0.04680000  0.25000000  1
  C  C3  1  0.52340000  0.04680000  0.75000000  1
  C  C4  1  0.17290000  0.32300000  0.50000000  1
  C  C5  1  0.84990000  0.67700000  0.00000000  1
  C  C6  1  0.05090000  0.04080000  0.00000000  1
  C  C7  1  0.01010000  0.95920000  0.50000000  1
  C  C8  1  0.43480000  0.66620000  0.34810000  1
  C  C9  1  0.43480000  0.66620000  0.65190000  1
  C  C10  1  0.76860000  0.33380000  0.15190000  1
  C  C11  1  0.76860000  0.33380000  0.84810000  1
  C  C12  1  0.64270000  0.78720000  0.11480000  1
  C  C13  1  0.64270000  0.78720000  0.88520000  1
  C  C14  1  0.85550000  0.21280000  0.38520000  1
  C  C15  1  0.85550000  0.21280000  0.61480000  1
  C  C16  1  0.35730000  0.21280000  0.11480000  1
  C  C17  1  0.35730000  0.21280000  0.88520000  1
  C  C18  1  0.14450000  0.78720000  0.38520000  1
  C  C19  1  0.14450000  0.78720000  0.61480000  1
  C  C20  1  0.56520000  0.33380000  0.34810000  1
  C  C21  1  0.56520000  0.33380000  0.65190000  1
  C  C22  1  0.23140000  0.66620000  0.15190000  1
  C  C23  1  0.23140000  0.66620000  0.84810000  1
  C  C24  1  0.94910000  0.95920000  0.00000000  1
  C  C25  1  0.98990000  0.04080000  0.50000000  1
  C  C26  1  0.82710000  0.67700000  0.50000000  1
  C  C27  1  0.15010000  0.32300000  1.00000000  1
  Cd  Cd28  1  0.38180000  0.76360000  0.25000000  1
  Cd  Cd29  1  0.38180000  0.76360000  0.75000000  1
  Cd  Cd30  1  0.61820000  0.23640000  0.25000000  1
  Cd  Cd31  1  0.61820000  0.23640000  0.75000000  1
  Cd  Cd32  1  0.23831000  0.19702000  1.00000000  1
  Cd  Cd33  1  0.04129000  0.80298000  0.50000000  1
  Cd  Cd34  1  0.50000000  0.50000000  0.50000000  1
  Cd  Cd35  1  0.00000000  0.50000000  1.00000000  1
  Cd  Cd36  1  0.76169000  0.80298000  0.00000000  1
  Cd  Cd37  1  0.95871000  0.19702000  0.50000000  1
  N  N38  1  0.28000000  0.38580000  0.50000000  1
  N  N39  1  0.89420000  0.61420000  1.00000000  1
  N  N40  1  0.46290000  0.61400000  0.39390000  1
  N  N41  1  0.46290000  0.61400000  0.60610000  1
  N  N42  1  0.84890000  0.38600000  0.10610000  1
  N  N43  1  0.84890000  0.38600000  0.89390000  1
  N  N44  1  0.57160000  0.77440000  0.16730000  1
  N  N45  1  0.57160000  0.77440000  0.83270000  1
  N  N46  1  0.79720000  0.22560000  0.33270000  1
  N  N47  1  0.79720000  0.22560000  0.66730000  1
  N  N48  1  0.42840000  0.22560000  0.16730000  1
  N  N49  1  0.42840000  0.22560000  0.83270000  1
  N  N50  1  0.20280000  0.77440000  0.33270000  1
  N  N51  1  0.20280000  0.77440000  0.66730000  1
  N  N52  1  0.53710000  0.38600000  0.39390000  1
  N  N53  1  0.53710000  0.38600000  0.60610000  1
  N  N54  1  0.15110000  0.61400000  0.10610000  1
  N  N55  1  0.15110000  0.61400000  0.89390000  1
  N  N56  1  0.72000000  0.61420000  0.50000000  1
  N  N57  1  0.10580000  0.38580000  1.00000000  1
