# generated using pymatgen
data_Zn2H14C31O10
_symmetry_space_group_name_H-M   'P 1'
_cell_length_a   16.81894827
_cell_length_b   16.81894827
_cell_length_c   16.81894827
_cell_angle_alpha   68.09135802
_cell_angle_beta   68.09135802
_cell_angle_gamma   68.09135802
_symmetry_Int_Tables_number   1
_chemical_formula_structural   Zn2H14C31O10
_chemical_formula_sum   'Zn6 H42 C93 O30'
_cell_volume   3941.20889347
_cell_formula_units_Z   3
loop_
 _symmetry_equiv_pos_site_id
 _symmetry_equiv_pos_as_xyz
  1  'x, y, z'
loop_
 _atom_site_type_symbol
 _atom_site_label
 _atom_site_symmetry_multiplicity
 _atom_site_fract_x
 _atom_site_fract_y
 _atom_site_fract_z
 _atom_site_occupancy
  C  C0  1  0.77240000  0.25380000  0.26390000  1
  C  C1  1  0.63030000  0.37250000  0.82490000  1
  C  C2  1  0.84740000  0.26940000  0.35210000  1
  C  C3  1  0.63280000  0.81730000  0.37370000  1
  C  C4  1  0.58350000  0.70260000  0.34540000  1
  C  C5  1  0.83830000  0.21910000  0.30830000  1
  C  C6  1  0.06280000  0.18970000  0.78650000  1
  C  C7  1  0.06305000  0.78315000  0.19175000  1
  C  C8  1  0.54950000  0.34440000  0.60050000  1
  C  C9  1  0.78606000  0.20136000  0.20116000  1
  C  C10  1  0.11210000  0.23950000  0.78730000  1
  C  C11  1  0.11292000  0.78392000  0.24122000  1
  C  C12  1  0.22170000  0.55640000  0.68000000  1
  C  C13  1  0.55640000  0.68000000  0.22170000  1
  C  C14  1  0.78392000  0.24122000  0.11292000  1
  C  C15  1  0.78730000  0.11210000  0.23950000  1
  C  C16  1  0.37250000  0.82490000  0.63030000  1
  C  C17  1  0.21910000  0.30830000  0.83830000  1
  C  C18  1  0.37370000  0.63280000  0.81730000  1
  C  C19  1  0.61510000  0.63650000  0.28750000  1
  C  C20  1  0.60050000  0.54950000  0.34440000  1
  C  C21  1  0.78315000  0.19175000  0.06305000  1
  C  C22  1  0.10143000  0.78443000  0.10253000  1
  C  C23  1  0.10253000  0.10143000  0.78443000  1
  C  C24  1  0.78650000  0.06280000  0.18970000  1
  C  C25  1  0.28750000  0.61510000  0.63650000  1
  C  C26  1  0.26940000  0.35210000  0.84740000  1
  C  C27  1  0.78110000  0.23620000  0.96920000  1
  C  C28  1  0.78443000  0.10253000  0.10143000  1
  C  C29  1  0.78710000  0.96430000  0.24080000  1
  C  C30  1  0.63650000  0.28750000  0.61510000  1
  C  C31  1  0.34540000  0.58350000  0.70260000  1
  C  C32  1  0.36150000  0.82080000  0.48760000  1
  C  C33  1  0.20116000  0.78606000  0.20136000  1
  C  C34  1  0.20136000  0.20116000  0.78606000  1
  C  C35  1  0.36191000  0.49141000  0.81631000  1
  C  C36  1  0.29440000  0.45710000  0.69700000  1
  C  C37  1  0.95800000  0.09900000  0.37950000  1
  C  C38  1  0.96840000  0.38720000  0.10490000  1
  C  C39  1  0.40830000  0.82900000  0.53550000  1
  C  C40  1  0.40990000  0.53820000  0.82440000  1
  C  C41  1  0.25380000  0.26390000  0.77240000  1
  C  C42  1  0.26330000  0.71580000  0.33890000  1
  C  C43  1  0.70260000  0.34540000  0.58350000  1
  C  C44  1  0.30710000  0.72500000  0.38910000  1
  C  C45  1  0.26390000  0.77240000  0.25380000  1
  C  C46  1  0.18970000  0.78650000  0.06280000  1
  C  C47  1  0.94890000  0.40280000  0.96090000  1
  C  C48  1  0.19175000  0.06305000  0.78315000  1
  C  C49  1  0.34440000  0.60050000  0.54950000  1
  C  C50  1  0.35160000  0.79070000  0.35450000  1
  C  C51  1  0.30830000  0.83830000  0.21910000  1
  C  C52  1  0.35450000  0.35160000  0.79070000  1
  C  C53  1  0.96090000  0.94890000  0.40280000  1
  C  C54  1  0.23950000  0.78730000  0.11210000  1
  C  C55  1  0.68000000  0.22170000  0.55640000  1
  C  C56  1  0.40077000  0.40307000  0.81437000  1
  C  C57  1  0.24122000  0.11292000  0.78392000  1
  C  C58  1  0.35210000  0.84740000  0.26940000  1
  C  C59  1  0.40307000  0.81437000  0.40077000  1
  C  C60  1  0.81730000  0.37370000  0.63280000  1
  C  C61  1  0.69700000  0.29440000  0.45710000  1
  C  C62  1  0.82490000  0.63030000  0.37250000  1
  C  C63  1  0.01270000  0.35850000  0.01850000  1
  C  C64  1  0.01850000  0.01270000  0.35850000  1
  C  C65  1  0.49680000  0.49680000  0.83080000  1
  C  C66  1  0.49680000  0.83080000  0.49680000  1
  C  C67  1  0.83080000  0.49680000  0.49680000  1
  C  C68  1  0.35850000  0.01850000  0.01270000  1
  C  C69  1  0.33890000  0.26330000  0.71580000  1
  C  C70  1  0.82440000  0.40990000  0.53820000  1
  C  C71  1  0.38720000  0.10490000  0.96840000  1
  C  C72  1  0.37950000  0.95800000  0.09900000  1
  C  C73  1  0.82900000  0.53550000  0.40830000  1
  C  C74  1  0.23620000  0.96920000  0.78110000  1
  C  C75  1  0.24080000  0.78710000  0.96430000  1
  C  C76  1  0.38910000  0.30710000  0.72500000  1
  C  C77  1  0.72500000  0.38910000  0.30710000  1
  C  C78  1  0.81631000  0.36191000  0.49141000  1
  C  C79  1  0.82080000  0.48760000  0.36150000  1
  C  C80  1  0.48760000  0.36150000  0.82080000  1
  C  C81  1  0.49141000  0.81631000  0.36191000  1
  C  C82  1  0.81437000  0.40077000  0.40307000  1
  C  C83  1  0.71580000  0.33890000  0.26330000  1
  C  C84  1  0.53550000  0.40830000  0.82900000  1
  C  C85  1  0.53820000  0.82440000  0.40990000  1
  C  C86  1  0.10490000  0.96840000  0.38720000  1
  C  C87  1  0.09900000  0.37950000  0.95800000  1
  C  C88  1  0.79070000  0.35450000  0.35160000  1
  C  C89  1  0.40280000  0.96090000  0.94890000  1
  C  C90  1  0.96430000  0.24080000  0.78710000  1
  C  C91  1  0.96920000  0.78110000  0.23620000  1
  C  C92  1  0.45710000  0.69700000  0.29440000  1
  H  H93  1  0.53880000  0.40480000  0.60510000  1
  H  H94  1  0.08500000  0.29990000  0.78880000  1
  H  H95  1  0.08670000  0.78300000  0.30220000  1
  H  H96  1  0.89230000  0.24570000  0.38250000  1
  H  H97  1  0.78300000  0.30220000  0.08670000  1
  H  H98  1  0.54060000  0.54760000  0.34980000  1
  H  H99  1  0.78880000  0.08500000  0.29990000  1
  H  H100  1  0.25430000  0.67930000  0.62980000  1
  H  H101  1  0.54760000  0.34980000  0.54060000  1
  H  H102  1  0.24570000  0.38250000  0.89230000  1
  H  H103  1  0.60510000  0.53880000  0.40480000  1
  H  H104  1  0.30110000  0.81960000  0.51410000  1
  H  H105  1  0.30250000  0.51970000  0.81200000  1
  H  H106  1  0.06730000  0.78390000  0.06870000  1
  H  H107  1  0.06870000  0.06730000  0.78390000  1
  H  H108  1  0.62980000  0.25430000  0.67930000  1
  H  H109  1  0.93620000  0.09100000  0.44470000  1
  H  H110  1  0.78390000  0.06870000  0.06730000  1
  H  H111  1  0.23300000  0.67080000  0.36260000  1
  H  H112  1  0.67930000  0.62980000  0.25430000  1
  H  H113  1  0.98980000  0.14590000  0.35210000  1
  H  H114  1  0.29280000  0.03440000  0.02260000  1
  H  H115  1  0.35210000  0.98980000  0.14590000  1
  H  H116  1  0.34980000  0.54060000  0.54760000  1
  H  H117  1  0.83650000  0.52960000  0.52880000  1
  H  H118  1  0.38250000  0.89230000  0.24570000  1
  H  H119  1  0.40480000  0.60510000  0.53880000  1
  H  H120  1  0.52880000  0.83650000  0.52960000  1
  H  H121  1  0.52960000  0.52880000  0.83650000  1
  H  H122  1  0.02260000  0.29280000  0.03440000  1
  H  H123  1  0.29990000  0.78880000  0.08500000  1
  H  H124  1  0.30220000  0.08670000  0.78300000  1
  H  H125  1  0.67080000  0.36260000  0.23300000  1
  H  H126  1  0.03440000  0.02260000  0.29280000  1
  H  H127  1  0.09100000  0.44470000  0.93620000  1
  H  H128  1  0.81200000  0.30250000  0.51970000  1
  H  H129  1  0.36260000  0.23300000  0.67080000  1
  H  H130  1  0.81960000  0.51410000  0.30110000  1
  H  H131  1  0.44470000  0.93620000  0.09100000  1
  H  H132  1  0.51410000  0.30110000  0.81960000  1
  H  H133  1  0.51970000  0.81200000  0.30250000  1
  H  H134  1  0.14590000  0.35210000  0.98980000  1
  O  O135  1  0.12290000  0.34140000  0.88370000  1
  O  O136  1  0.66930000  0.41470000  0.82500000  1
  O  O137  1  0.29161000  0.81501000  0.66621000  1
  O  O138  1  0.29160000  0.66700000  0.81150000  1
  O  O139  1  0.67390000  0.82240000  0.41840000  1
  O  O140  1  0.66621000  0.29161000  0.81501000  1
  O  O141  1  0.66700000  0.81150000  0.29160000  1
  O  O142  1  0.88370000  0.12290000  0.34140000  1
  O  O143  1  0.78020000  0.31550000  0.93640000  1
  O  O144  1  0.78280000  0.93090000  0.32320000  1
  O  O145  1  0.41470000  0.82500000  0.66930000  1
  O  O146  1  0.41840000  0.67390000  0.82240000  1
  O  O147  1  0.77450000  0.18900000  0.93120000  1
  O  O148  1  0.30080000  0.67140000  0.47990000  1
  O  O149  1  0.78060000  0.92310000  0.18410000  1
  O  O150  1  0.82240000  0.41840000  0.67390000  1
  O  O151  1  0.67140000  0.47990000  0.30080000  1
  O  O152  1  0.82500000  0.66930000  0.41470000  1
  O  O153  1  0.81150000  0.29160000  0.66700000  1
  O  O154  1  0.18410000  0.78060000  0.92310000  1
  O  O155  1  0.81501000  0.66621000  0.29161000  1
  O  O156  1  0.18900000  0.93120000  0.77450000  1
  O  O157  1  0.34140000  0.88370000  0.12290000  1
  O  O158  1  0.93090000  0.32320000  0.78280000  1
  O  O159  1  0.93640000  0.78020000  0.31550000  1
  O  O160  1  0.92310000  0.18410000  0.78060000  1
  O  O161  1  0.93120000  0.77450000  0.18900000  1
  O  O162  1  0.31550000  0.93640000  0.78020000  1
  O  O163  1  0.32320000  0.78280000  0.93090000  1
  O  O164  1  0.47990000  0.30080000  0.67140000  1
  Zn  Zn165  1  0.38408000  0.80690000  0.80722000  1
  Zn  Zn166  1  0.80690000  0.80722000  0.38408000  1
  Zn  Zn167  1  0.80722000  0.38408000  0.80690000  1
  Zn  Zn168  1  0.79445000  0.21701000  0.79447000  1
  Zn  Zn169  1  0.79447000  0.79445000  0.21701000  1
  Zn  Zn170  1  0.21701000  0.79447000  0.79445000  1
