# generated using pymatgen
data_Cu3P4H14(C7O12)2
_symmetry_space_group_name_H-M   'P 1'
_cell_length_a   4.54890000
_cell_length_b   16.13400000
_cell_length_c   16.13400000
_cell_angle_alpha   90.00000000
_cell_angle_beta   90.00000000
_cell_angle_gamma   90.00000000
_symmetry_Int_Tables_number   1
_chemical_formula_structural   Cu3P4H14(C7O12)2
_chemical_formula_sum   'Cu6 P8 H28 C28 O48'
_cell_volume   1184.10576325
_cell_formula_units_Z   2
loop_
 _symmetry_equiv_pos_site_id
 _symmetry_equiv_pos_as_xyz
  1  'x, y, z'
loop_
 _atom_site_type_symbol
 _atom_site_label
 _atom_site_symmetry_multiplicity
 _atom_site_fract_x
 _atom_site_fract_y
 _atom_site_fract_z
 _atom_site_occupancy
  Cu  Cu0  1  0.49950000  0.00000000  0.50000000  1
  Cu  Cu1  1  0.50160000  0.19906000  0.53858000  1
  Cu  Cu2  1  0.49840000  0.46142000  0.19906000  1
  Cu  Cu3  1  0.50050000  0.50000000  0.00000000  1
  Cu  Cu4  1  0.49840000  0.53858000  0.80094000  1
  Cu  Cu5  1  0.50160000  0.80094000  0.46142000  1
  P  P6  1  0.00050000  0.11550000  0.42488000  1
  P  P7  1  0.99800000  0.15928000  0.66462000  1
  P  P8  1  0.00200000  0.33538000  0.15928000  1
  P  P9  1  0.99950000  0.42488000  0.88450000  1
  P  P10  1  0.99950000  0.57512000  0.11550000  1
  P  P11  1  0.00200000  0.66462000  0.84072000  1
  P  P12  1  0.99800000  0.84072000  0.33538000  1
  P  P13  1  0.00050000  0.88450000  0.57512000  1
  H  H14  1  0.52800000  0.00850000  0.14310000  1
  H  H15  1  0.36800000  0.04180000  0.30250000  1
  H  H16  1  0.18080000  0.04550000  0.65490000  1
  H  H17  1  0.79630000  0.05330000  0.18440000  1
  H  H18  1  0.66610000  0.08700000  0.10100000  1
  H  H19  1  0.33390000  0.10100000  0.91300000  1
  H  H20  1  0.60470000  0.11590000  0.79530000  1
  H  H21  1  0.47200000  0.14310000  0.99150000  1
  H  H22  1  0.20370000  0.18440000  0.94670000  1
  H  H23  1  0.39530000  0.20470000  0.11590000  1
  H  H24  1  0.85060000  0.24770000  0.31060000  1
  H  H25  1  0.63200000  0.30250000  0.95820000  1
  H  H26  1  0.14940000  0.31060000  0.75230000  1
  H  H27  1  0.81920000  0.34510000  0.04550000  1
  H  H28  1  0.81920000  0.65490000  0.95450000  1
  H  H29  1  0.14940000  0.68940000  0.24770000  1
  H  H30  1  0.63200000  0.69750000  0.04180000  1
  H  H31  1  0.85060000  0.75230000  0.68940000  1
  H  H32  1  0.39530000  0.79530000  0.88410000  1
  H  H33  1  0.20370000  0.81560000  0.05330000  1
  H  H34  1  0.47200000  0.85690000  0.00850000  1
  H  H35  1  0.60470000  0.88410000  0.20470000  1
  H  H36  1  0.33390000  0.89900000  0.08700000  1
  H  H37  1  0.66610000  0.91300000  0.89900000  1
  H  H38  1  0.79630000  0.94670000  0.81560000  1
  H  H39  1  0.18080000  0.95450000  0.34510000  1
  H  H40  1  0.36800000  0.95820000  0.69750000  1
  H  H41  1  0.52800000  0.99150000  0.85690000  1
  C  C42  1  0.61900000  0.06120000  0.15300000  1
  C  C43  1  0.30500000  0.09120000  0.27860000  1
  C  C44  1  0.41300000  0.11560000  0.20060000  1
  C  C45  1  0.10300000  0.14140000  0.32000000  1
  C  C46  1  0.38100000  0.15300000  0.93880000  1
  C  C47  1  0.68100000  0.16670000  0.81200000  1
  C  C48  1  0.31900000  0.18800000  0.16670000  1
  C  C49  1  0.58700000  0.20060000  0.88440000  1
  C  C50  1  0.89400000  0.20720000  0.76060000  1
  C  C51  1  0.99300000  0.21600000  0.28390000  1
  C  C52  1  0.10600000  0.23940000  0.20720000  1
  C  C53  1  0.69500000  0.27860000  0.90880000  1
  C  C54  1  0.00700000  0.28390000  0.78400000  1
  C  C55  1  0.89700000  0.32000000  0.85860000  1
  C  C56  1  0.89700000  0.68000000  0.14140000  1
  C  C57  1  0.00700000  0.71610000  0.21600000  1
  C  C58  1  0.69500000  0.72140000  0.09120000  1
  C  C59  1  0.10600000  0.76060000  0.79280000  1
  C  C60  1  0.99300000  0.78400000  0.71610000  1
  C  C61  1  0.89400000  0.79280000  0.23940000  1
  C  C62  1  0.58700000  0.79940000  0.11560000  1
  C  C63  1  0.31900000  0.81200000  0.83330000  1
  C  C64  1  0.68100000  0.83330000  0.18800000  1
  C  C65  1  0.38100000  0.84700000  0.06120000  1
  C  C66  1  0.10300000  0.85860000  0.68000000  1
  C  C67  1  0.41300000  0.88440000  0.79940000  1
  C  C68  1  0.30500000  0.90880000  0.72140000  1
  C  C69  1  0.61900000  0.93880000  0.84700000  1
  O  O70  1  0.21900000  0.03630000  0.42400000  1
  O  O71  1  0.79300000  0.03850000  0.41620000  1
  O  O72  1  0.17300000  0.07860000  0.69330000  1
  O  O73  1  0.85200000  0.08100000  0.69400000  1
  O  O74  1  0.24200000  0.09600000  0.47700000  1
  O  O75  1  0.72800000  0.09770000  0.47650000  1
  O  O76  1  0.75400000  0.13190000  0.61840000  1
  O  O77  1  0.28300000  0.13400000  0.60920000  1
  O  O78  1  0.17400000  0.19000000  0.45490000  1
  O  O79  1  0.82800000  0.19490000  0.45730000  1
  O  O80  1  0.20500000  0.21970000  0.62130000  1
  O  O81  1  0.78200000  0.22100000  0.62100000  1
  O  O82  1  0.14800000  0.30600000  0.08100000  1
  O  O83  1  0.82700000  0.30670000  0.07860000  1
  O  O84  1  0.79500000  0.37870000  0.21970000  1
  O  O85  1  0.21800000  0.37900000  0.22100000  1
  O  O86  1  0.24600000  0.38160000  0.13190000  1
  O  O87  1  0.71700000  0.39080000  0.13400000  1
  O  O88  1  0.20700000  0.41620000  0.96150000  1
  O  O89  1  0.78100000  0.42400000  0.96370000  1
  O  O90  1  0.82600000  0.45490000  0.81000000  1
  O  O91  1  0.17200000  0.45730000  0.80510000  1
  O  O92  1  0.27200000  0.47650000  0.90230000  1
  O  O93  1  0.75800000  0.47700000  0.90400000  1
  O  O94  1  0.75800000  0.52300000  0.09600000  1
  O  O95  1  0.27200000  0.52350000  0.09770000  1
  O  O96  1  0.17200000  0.54270000  0.19490000  1
  O  O97  1  0.82600000  0.54510000  0.19000000  1
  O  O98  1  0.78100000  0.57600000  0.03630000  1
  O  O99  1  0.20700000  0.58380000  0.03850000  1
  O  O100  1  0.71700000  0.60920000  0.86600000  1
  O  O101  1  0.24600000  0.61840000  0.86810000  1
  O  O102  1  0.21800000  0.62100000  0.77900000  1
  O  O103  1  0.79500000  0.62130000  0.78030000  1
  O  O104  1  0.82700000  0.69330000  0.92140000  1
  O  O105  1  0.14800000  0.69400000  0.91900000  1
  O  O106  1  0.78200000  0.77900000  0.37900000  1
  O  O107  1  0.20500000  0.78030000  0.37870000  1
  O  O108  1  0.82800000  0.80510000  0.54270000  1
  O  O109  1  0.17400000  0.81000000  0.54510000  1
  O  O110  1  0.28300000  0.86600000  0.39080000  1
  O  O111  1  0.75400000  0.86810000  0.38160000  1
  O  O112  1  0.72800000  0.90230000  0.52350000  1
  O  O113  1  0.24200000  0.90400000  0.52300000  1
  O  O114  1  0.85200000  0.91900000  0.30600000  1
  O  O115  1  0.17300000  0.92140000  0.30670000  1
  O  O116  1  0.79300000  0.96150000  0.58380000  1
  O  O117  1  0.21900000  0.96370000  0.57600000  1
