# generated using pymatgen
data_CuH16(C3N)8
_symmetry_space_group_name_H-M   'P 1'
_cell_length_a   18.24100000
_cell_length_b   18.24100000
_cell_length_c   18.24100000
_cell_angle_alpha   90.00000000
_cell_angle_beta   90.00000000
_cell_angle_gamma   90.00000000
_symmetry_Int_Tables_number   1
_chemical_formula_structural   CuH16(C3N)8
_chemical_formula_sum   'Cu6 H96 C144 N48'
_cell_volume   6069.40237152
_cell_formula_units_Z   6
loop_
 _symmetry_equiv_pos_site_id
 _symmetry_equiv_pos_as_xyz
  1  'x, y, z'
loop_
 _atom_site_type_symbol
 _atom_site_label
 _atom_site_symmetry_multiplicity
 _atom_site_fract_x
 _atom_site_fract_y
 _atom_site_fract_z
 _atom_site_occupancy
  Cu  Cu0  1  0.25000000  0.25000000  0.75000000  1
  Cu  Cu1  1  0.25000000  0.75000000  0.25000000  1
  Cu  Cu2  1  0.25000000  0.75000000  0.75000000  1
  Cu  Cu3  1  0.75000000  0.25000000  0.25000000  1
  Cu  Cu4  1  0.75000000  0.25000000  0.75000000  1
  Cu  Cu5  1  0.75000000  0.75000000  0.25000000  1
  H  H6  1  0.04510000  0.20180000  0.91830000  1
  H  H7  1  0.04510000  0.29820000  0.58170000  1
  H  H8  1  0.04510000  0.58170000  0.29820000  1
  H  H9  1  0.04510000  0.91830000  0.20180000  1
  H  H10  1  0.08170000  0.54510000  0.70180000  1
  H  H11  1  0.08170000  0.70180000  0.54510000  1
  H  H12  1  0.08170000  0.79820000  0.95490000  1
  H  H13  1  0.08170000  0.95490000  0.79820000  1
  H  H14  1  0.10400000  0.24450000  0.67710000  1
  H  H15  1  0.10400000  0.25550000  0.82290000  1
  H  H16  1  0.10400000  0.67710000  0.24450000  1
  H  H17  1  0.10400000  0.82290000  0.25550000  1
  H  H18  1  0.17710000  0.60400000  0.75550000  1
  H  H19  1  0.17710000  0.74450000  0.89600000  1
  H  H20  1  0.17710000  0.75550000  0.60400000  1
  H  H21  1  0.17710000  0.89600000  0.74450000  1
  H  H22  1  0.20180000  0.04510000  0.91830000  1
  H  H23  1  0.20180000  0.45490000  0.58170000  1
  H  H24  1  0.20180000  0.58170000  0.45490000  1
  H  H25  1  0.20180000  0.91830000  0.04510000  1
  H  H26  1  0.24450000  0.10400000  0.67710000  1
  H  H27  1  0.24450000  0.39600000  0.82290000  1
  H  H28  1  0.24450000  0.67710000  0.10400000  1
  H  H29  1  0.24450000  0.82290000  0.39600000  1
  H  H30  1  0.25550000  0.10400000  0.82290000  1
  H  H31  1  0.25550000  0.39600000  0.67710000  1
  H  H32  1  0.25550000  0.67710000  0.39600000  1
  H  H33  1  0.25550000  0.82290000  0.10400000  1
  H  H34  1  0.29820000  0.04510000  0.58170000  1
  H  H35  1  0.29820000  0.45490000  0.91830000  1
  H  H36  1  0.29820000  0.58170000  0.04510000  1
  H  H37  1  0.29820000  0.91830000  0.45490000  1
  H  H38  1  0.32290000  0.60400000  0.74450000  1
  H  H39  1  0.32290000  0.74450000  0.60400000  1
  H  H40  1  0.32290000  0.75550000  0.89600000  1
  H  H41  1  0.32290000  0.89600000  0.75550000  1
  H  H42  1  0.39600000  0.24450000  0.82290000  1
  H  H43  1  0.39600000  0.25550000  0.67710000  1
  H  H44  1  0.39600000  0.67710000  0.25550000  1
  H  H45  1  0.39600000  0.82290000  0.24450000  1
  H  H46  1  0.41830000  0.54510000  0.79820000  1
  H  H47  1  0.41830000  0.70180000  0.95490000  1
  H  H48  1  0.41830000  0.79820000  0.54510000  1
  H  H49  1  0.41830000  0.95490000  0.70180000  1
  H  H50  1  0.45490000  0.20180000  0.58170000  1
  H  H51  1  0.45490000  0.29820000  0.91830000  1
  H  H52  1  0.45490000  0.58170000  0.20180000  1
  H  H53  1  0.45490000  0.91830000  0.29820000  1
  H  H54  1  0.54510000  0.08170000  0.70180000  1
  H  H55  1  0.54510000  0.41830000  0.79820000  1
  H  H56  1  0.54510000  0.70180000  0.08170000  1
  H  H57  1  0.54510000  0.79820000  0.41830000  1
  H  H58  1  0.58170000  0.04510000  0.29820000  1
  H  H59  1  0.58170000  0.20180000  0.45490000  1
  H  H60  1  0.58170000  0.29820000  0.04510000  1
  H  H61  1  0.58170000  0.45490000  0.20180000  1
  H  H62  1  0.60400000  0.17710000  0.75550000  1
  H  H63  1  0.60400000  0.32290000  0.74450000  1
  H  H64  1  0.60400000  0.74450000  0.32290000  1
  H  H65  1  0.60400000  0.75550000  0.17710000  1
  H  H66  1  0.67710000  0.10400000  0.24450000  1
  H  H67  1  0.67710000  0.24450000  0.10400000  1
  H  H68  1  0.67710000  0.25550000  0.39600000  1
  H  H69  1  0.67710000  0.39600000  0.25550000  1
  H  H70  1  0.70180000  0.08170000  0.54510000  1
  H  H71  1  0.70180000  0.41830000  0.95490000  1
  H  H72  1  0.70180000  0.54510000  0.08170000  1
  H  H73  1  0.70180000  0.95490000  0.41830000  1
  H  H74  1  0.74450000  0.17710000  0.89600000  1
  H  H75  1  0.74450000  0.32290000  0.60400000  1
  H  H76  1  0.74450000  0.60400000  0.32290000  1
  H  H77  1  0.74450000  0.89600000  0.17710000  1
  H  H78  1  0.75550000  0.17710000  0.60400000  1
  H  H79  1  0.75550000  0.32290000  0.89600000  1
  H  H80  1  0.75550000  0.60400000  0.17710000  1
  H  H81  1  0.75550000  0.89600000  0.32290000  1
  H  H82  1  0.79820000  0.08170000  0.95490000  1
  H  H83  1  0.79820000  0.41830000  0.54510000  1
  H  H84  1  0.79820000  0.54510000  0.41830000  1
  H  H85  1  0.79820000  0.95490000  0.08170000  1
  H  H86  1  0.82290000  0.10400000  0.25550000  1
  H  H87  1  0.82290000  0.24450000  0.39600000  1
  H  H88  1  0.82290000  0.25550000  0.10400000  1
  H  H89  1  0.82290000  0.39600000  0.24450000  1
  H  H90  1  0.89600000  0.17710000  0.74450000  1
  H  H91  1  0.89600000  0.32290000  0.75550000  1
  H  H92  1  0.89600000  0.74450000  0.17710000  1
  H  H93  1  0.89600000  0.75550000  0.32290000  1
  H  H94  1  0.91830000  0.04510000  0.20180000  1
  H  H95  1  0.91830000  0.20180000  0.04510000  1
  H  H96  1  0.91830000  0.29820000  0.45490000  1
  H  H97  1  0.91830000  0.45490000  0.29820000  1
  H  H98  1  0.95490000  0.08170000  0.79820000  1
  H  H99  1  0.95490000  0.41830000  0.70180000  1
  H  H100  1  0.95490000  0.70180000  0.41830000  1
  H  H101  1  0.95490000  0.79820000  0.08170000  1
  C  C102  1  0.00530000  0.58120000  0.58120000  1
  C  C103  1  0.00530000  0.91880000  0.91880000  1
  C  C104  1  0.06890000  0.61600000  0.61600000  1
  C  C105  1  0.06890000  0.88400000  0.88400000  1
  C  C106  1  0.08120000  0.08120000  0.99470000  1
  C  C107  1  0.08120000  0.41880000  0.50530000  1
  C  C108  1  0.08120000  0.50530000  0.41880000  1
  C  C109  1  0.08120000  0.99470000  0.08120000  1
  C  C110  1  0.08890000  0.18050000  0.89990000  1
  C  C111  1  0.08890000  0.31950000  0.60010000  1
  C  C112  1  0.08890000  0.60010000  0.31950000  1
  C  C113  1  0.08890000  0.89990000  0.18050000  1
  C  C114  1  0.10010000  0.58890000  0.68050000  1
  C  C115  1  0.10010000  0.68050000  0.58890000  1
  C  C116  1  0.10010000  0.81950000  0.91110000  1
  C  C117  1  0.10010000  0.91110000  0.81950000  1
  C  C118  1  0.11600000  0.11600000  0.93110000  1
  C  C119  1  0.11600000  0.38400000  0.56890000  1
  C  C120  1  0.11600000  0.56890000  0.38400000  1
  C  C121  1  0.11600000  0.93110000  0.11600000  1
  C  C122  1  0.12470000  0.21260000  0.84390000  1
  C  C123  1  0.12470000  0.28740000  0.65610000  1
  C  C124  1  0.12470000  0.65610000  0.28740000  1
  C  C125  1  0.12470000  0.84390000  0.21260000  1
  C  C126  1  0.15610000  0.62470000  0.71260000  1
  C  C127  1  0.15610000  0.71260000  0.62470000  1
  C  C128  1  0.15610000  0.78740000  0.87530000  1
  C  C129  1  0.15610000  0.87530000  0.78740000  1
  C  C130  1  0.18050000  0.08890000  0.89990000  1
  C  C131  1  0.18050000  0.41110000  0.60010000  1
  C  C132  1  0.18050000  0.60010000  0.41110000  1
  C  C133  1  0.18050000  0.89990000  0.08890000  1
  C  C134  1  0.21260000  0.12470000  0.84390000  1
  C  C135  1  0.21260000  0.37530000  0.65610000  1
  C  C136  1  0.21260000  0.65610000  0.37530000  1
  C  C137  1  0.21260000  0.84390000  0.12470000  1
  C  C138  1  0.28740000  0.12470000  0.65610000  1
  C  C139  1  0.28740000  0.37530000  0.84390000  1
  C  C140  1  0.28740000  0.65610000  0.12470000  1
  C  C141  1  0.28740000  0.84390000  0.37530000  1
  C  C142  1  0.31950000  0.08890000  0.60010000  1
  C  C143  1  0.31950000  0.41110000  0.89990000  1
  C  C144  1  0.31950000  0.60010000  0.08890000  1
  C  C145  1  0.31950000  0.89990000  0.41110000  1
  C  C146  1  0.34390000  0.62470000  0.78740000  1
  C  C147  1  0.34390000  0.71260000  0.87530000  1
  C  C148  1  0.34390000  0.78740000  0.62470000  1
  C  C149  1  0.34390000  0.87530000  0.71260000  1
  C  C150  1  0.37530000  0.21260000  0.65610000  1
  C  C151  1  0.37530000  0.28740000  0.84390000  1
  C  C152  1  0.37530000  0.65610000  0.21260000  1
  C  C153  1  0.37530000  0.84390000  0.28740000  1
  C  C154  1  0.38400000  0.11600000  0.56890000  1
  C  C155  1  0.38400000  0.38400000  0.93110000  1
  C  C156  1  0.38400000  0.56890000  0.11600000  1
  C  C157  1  0.38400000  0.93110000  0.38400000  1
  C  C158  1  0.39990000  0.58890000  0.81950000  1
  C  C159  1  0.39990000  0.68050000  0.91110000  1
  C  C160  1  0.39990000  0.81950000  0.58890000  1
  C  C161  1  0.39990000  0.91110000  0.68050000  1
  C  C162  1  0.41110000  0.18050000  0.60010000  1
  C  C163  1  0.41110000  0.31950000  0.89990000  1
  C  C164  1  0.41110000  0.60010000  0.18050000  1
  C  C165  1  0.41110000  0.89990000  0.31950000  1
  C  C166  1  0.41880000  0.08120000  0.50530000  1
  C  C167  1  0.41880000  0.41880000  0.99470000  1
  C  C168  1  0.41880000  0.50530000  0.08120000  1
  C  C169  1  0.41880000  0.99470000  0.41880000  1
  C  C170  1  0.43110000  0.61600000  0.88400000  1
  C  C171  1  0.43110000  0.88400000  0.61600000  1
  C  C172  1  0.49470000  0.58120000  0.91880000  1
  C  C173  1  0.49470000  0.91880000  0.58120000  1
  C  C174  1  0.50530000  0.08120000  0.41880000  1
  C  C175  1  0.50530000  0.41880000  0.08120000  1
  C  C176  1  0.56890000  0.11600000  0.38400000  1
  C  C177  1  0.56890000  0.38400000  0.11600000  1
  C  C178  1  0.58120000  0.00530000  0.58120000  1
  C  C179  1  0.58120000  0.49470000  0.91880000  1
  C  C180  1  0.58120000  0.58120000  0.00530000  1
  C  C181  1  0.58120000  0.91880000  0.49470000  1
  C  C182  1  0.58890000  0.10010000  0.68050000  1
  C  C183  1  0.58890000  0.39990000  0.81950000  1
  C  C184  1  0.58890000  0.68050000  0.10010000  1
  C  C185  1  0.58890000  0.81950000  0.39990000  1
  C  C186  1  0.60010000  0.08890000  0.31950000  1
  C  C187  1  0.60010000  0.18050000  0.41110000  1
  C  C188  1  0.60010000  0.31950000  0.08890000  1
  C  C189  1  0.60010000  0.41110000  0.18050000  1
  C  C190  1  0.61600000  0.06890000  0.61600000  1
  C  C191  1  0.61600000  0.43110000  0.88400000  1
  C  C192  1  0.61600000  0.61600000  0.06890000  1
  C  C193  1  0.61600000  0.88400000  0.43110000  1
  C  C194  1  0.62470000  0.15610000  0.71260000  1
  C  C195  1  0.62470000  0.34390000  0.78740000  1
  C  C196  1  0.62470000  0.71260000  0.15610000  1
  C  C197  1  0.62470000  0.78740000  0.34390000  1
  C  C198  1  0.65610000  0.12470000  0.28740000  1
  C  C199  1  0.65610000  0.21260000  0.37530000  1
  C  C200  1  0.65610000  0.28740000  0.12470000  1
  C  C201  1  0.65610000  0.37530000  0.21260000  1
  C  C202  1  0.68050000  0.10010000  0.58890000  1
  C  C203  1  0.68050000  0.39990000  0.91110000  1
  C  C204  1  0.68050000  0.58890000  0.10010000  1
  C  C205  1  0.68050000  0.91110000  0.39990000  1
  C  C206  1  0.71260000  0.15610000  0.62470000  1
  C  C207  1  0.71260000  0.34390000  0.87530000  1
  C  C208  1  0.71260000  0.62470000  0.15610000  1
  C  C209  1  0.71260000  0.87530000  0.34390000  1
  C  C210  1  0.78740000  0.15610000  0.87530000  1
  C  C211  1  0.78740000  0.34390000  0.62470000  1
  C  C212  1  0.78740000  0.62470000  0.34390000  1
  C  C213  1  0.78740000  0.87530000  0.15610000  1
  C  C214  1  0.81950000  0.10010000  0.91110000  1
  C  C215  1  0.81950000  0.39990000  0.58890000  1
  C  C216  1  0.81950000  0.58890000  0.39990000  1
  C  C217  1  0.81950000  0.91110000  0.10010000  1
  C  C218  1  0.84390000  0.12470000  0.21260000  1
  C  C219  1  0.84390000  0.21260000  0.12470000  1
  C  C220  1  0.84390000  0.28740000  0.37530000  1
  C  C221  1  0.84390000  0.37530000  0.28740000  1
  C  C222  1  0.87530000  0.15610000  0.78740000  1
  C  C223  1  0.87530000  0.34390000  0.71260000  1
  C  C224  1  0.87530000  0.71260000  0.34390000  1
  C  C225  1  0.87530000  0.78740000  0.15610000  1
  C  C226  1  0.88400000  0.06890000  0.88400000  1
  C  C227  1  0.88400000  0.43110000  0.61600000  1
  C  C228  1  0.88400000  0.61600000  0.43110000  1
  C  C229  1  0.88400000  0.88400000  0.06890000  1
  C  C230  1  0.89990000  0.08890000  0.18050000  1
  C  C231  1  0.89990000  0.18050000  0.08890000  1
  C  C232  1  0.89990000  0.31950000  0.41110000  1
  C  C233  1  0.89990000  0.41110000  0.31950000  1
  C  C234  1  0.91110000  0.10010000  0.81950000  1
  C  C235  1  0.91110000  0.39990000  0.68050000  1
  C  C236  1  0.91110000  0.68050000  0.39990000  1
  C  C237  1  0.91110000  0.81950000  0.10010000  1
  C  C238  1  0.91880000  0.00530000  0.91880000  1
  C  C239  1  0.91880000  0.49470000  0.58120000  1
  C  C240  1  0.91880000  0.58120000  0.49470000  1
  C  C241  1  0.91880000  0.91880000  0.00530000  1
  C  C242  1  0.93110000  0.11600000  0.11600000  1
  C  C243  1  0.93110000  0.38400000  0.38400000  1
  C  C244  1  0.99470000  0.08120000  0.08120000  1
  C  C245  1  0.99470000  0.41880000  0.41880000  1
  N  N246  1  0.02110000  0.02110000  0.11260000  1
  N  N247  1  0.02110000  0.11260000  0.02110000  1
  N  N248  1  0.02110000  0.38740000  0.47890000  1
  N  N249  1  0.02110000  0.47890000  0.38740000  1
  N  N250  1  0.11260000  0.02110000  0.02110000  1
  N  N251  1  0.11260000  0.47890000  0.47890000  1
  N  N252  1  0.18390000  0.68750000  0.68750000  1
  N  N253  1  0.18390000  0.81250000  0.81250000  1
  N  N254  1  0.18750000  0.18750000  0.81610000  1
  N  N255  1  0.18750000  0.31250000  0.68390000  1
  N  N256  1  0.18750000  0.68390000  0.31250000  1
  N  N257  1  0.18750000  0.81610000  0.18750000  1
  N  N258  1  0.31250000  0.18750000  0.68390000  1
  N  N259  1  0.31250000  0.31250000  0.81610000  1
  N  N260  1  0.31250000  0.68390000  0.18750000  1
  N  N261  1  0.31250000  0.81610000  0.31250000  1
  N  N262  1  0.31610000  0.68750000  0.81250000  1
  N  N263  1  0.31610000  0.81250000  0.68750000  1
  N  N264  1  0.38740000  0.02110000  0.47890000  1
  N  N265  1  0.38740000  0.47890000  0.02110000  1
  N  N266  1  0.47890000  0.02110000  0.38740000  1
  N  N267  1  0.47890000  0.11260000  0.47890000  1
  N  N268  1  0.47890000  0.38740000  0.02110000  1
  N  N269  1  0.47890000  0.47890000  0.11260000  1
  N  N270  1  0.52110000  0.52110000  0.88740000  1
  N  N271  1  0.52110000  0.61260000  0.97890000  1
  N  N272  1  0.52110000  0.88740000  0.52110000  1
  N  N273  1  0.52110000  0.97890000  0.61260000  1
  N  N274  1  0.61260000  0.52110000  0.97890000  1
  N  N275  1  0.61260000  0.97890000  0.52110000  1
  N  N276  1  0.68390000  0.18750000  0.31250000  1
  N  N277  1  0.68390000  0.31250000  0.18750000  1
  N  N278  1  0.68750000  0.18390000  0.68750000  1
  N  N279  1  0.68750000  0.31610000  0.81250000  1
  N  N280  1  0.68750000  0.68750000  0.18390000  1
  N  N281  1  0.68750000  0.81250000  0.31610000  1
  N  N282  1  0.81250000  0.18390000  0.81250000  1
  N  N283  1  0.81250000  0.31610000  0.68750000  1
  N  N284  1  0.81250000  0.68750000  0.31610000  1
  N  N285  1  0.81250000  0.81250000  0.18390000  1
  N  N286  1  0.81610000  0.18750000  0.18750000  1
  N  N287  1  0.81610000  0.31250000  0.31250000  1
  N  N288  1  0.88740000  0.52110000  0.52110000  1
  N  N289  1  0.88740000  0.97890000  0.97890000  1
  N  N290  1  0.97890000  0.52110000  0.61260000  1
  N  N291  1  0.97890000  0.61260000  0.52110000  1
  N  N292  1  0.97890000  0.88740000  0.97890000  1
  N  N293  1  0.97890000  0.97890000  0.88740000  1
