# generated using pymatgen
data_Mn3P2H3(C3O10)2
_symmetry_space_group_name_H-M   'P 1'
_cell_length_a   8.03520000
_cell_length_b   10.18950000
_cell_length_c   16.02660000
_cell_angle_alpha   93.34900000
_cell_angle_beta   94.50400000
_cell_angle_gamma   92.45200000
_symmetry_Int_Tables_number   1
_chemical_formula_structural   Mn3P2H3(C3O10)2
_chemical_formula_sum   'Mn6 P4 H6 C12 O40'
_cell_volume   1304.40631126
_cell_formula_units_Z   2
loop_
 _symmetry_equiv_pos_site_id
 _symmetry_equiv_pos_as_xyz
  1  'x, y, z'
loop_
 _atom_site_type_symbol
 _atom_site_label
 _atom_site_symmetry_multiplicity
 _atom_site_fract_x
 _atom_site_fract_y
 _atom_site_fract_z
 _atom_site_occupancy
  Mn  Mn0  1  0.25600000  0.06321000  0.28629000  1
  Mn  Mn1  1  0.38842000  0.55471000  0.13608000  1
  Mn  Mn2  1  0.44433000  0.75552000  0.57642000  1
  Mn  Mn3  1  0.55567000  0.24448000  0.42358000  1
  Mn  Mn4  1  0.61158000  0.44529000  0.86392000  1
  Mn  Mn5  1  0.74400000  0.93679000  0.71371000  1
  P  P6  1  0.13031000  0.83931000  0.69402000  1
  P  P7  1  0.25842000  0.58959000  0.93590000  1
  P  P8  1  0.74158000  0.41041000  0.06410000  1
  P  P9  1  0.86969000  0.16069000  0.30598000  1
  H  H10  1  0.01360000  0.53890000  0.92400000  1
  H  H11  1  0.18930000  0.71230000  0.85040000  1
  H  H12  1  0.30290000  0.96860000  0.75490000  1
  H  H13  1  0.69710000  0.03140000  0.24510000  1
  H  H14  1  0.81070000  0.28770000  0.14960000  1
  H  H15  1  0.98640000  0.46110000  0.07600000  1
  C  C16  1  0.24250000  0.78290000  0.22707000  1
  C  C17  1  0.26390000  0.28570000  0.17290000  1
  C  C18  1  0.37670000  0.33630000  0.25250000  1
  C  C19  1  0.41080000  0.47710000  0.50997000  1
  C  C20  1  0.42180000  0.83160000  0.21120000  1
  C  C21  1  0.44080000  0.97250000  0.46145000  1
  C  C22  1  0.55920000  0.02750000  0.53855000  1
  C  C23  1  0.57820000  0.16840000  0.78880000  1
  C  C24  1  0.58920000  0.52290000  0.49003000  1
  C  C25  1  0.62330000  0.66370000  0.74750000  1
  C  C26  1  0.73610000  0.71430000  0.82710000  1
  C  C27  1  0.75750000  0.21710000  0.77293000  1
  O  O28  1  0.04480000  0.12910000  0.33444000  1
  O  O29  1  0.09390000  0.50630000  0.90350000  1
  O  O30  1  0.13760000  0.71880000  0.74497000  1
  O  O31  1  0.15010000  0.86600000  0.25732000  1
  O  O32  1  0.20110000  0.96100000  0.75572000  1
  O  O33  1  0.20390000  0.66430000  0.20875000  1
  O  O34  1  0.21340000  0.16720000  0.16862000  1
  O  O35  1  0.23260000  0.36660000  0.11926000  1
  O  O36  1  0.23520000  0.82890000  0.62036000  1
  O  O37  1  0.24180000  0.72330000  0.89640000  1
  O  O38  1  0.26690000  0.61940000  0.02828000  1
  O  O39  1  0.32480000  0.56120000  0.54315000  1
  O  O40  1  0.36640000  0.35960000  0.49034000  1
  O  O41  1  0.39140000  0.51230000  0.90373000  1
  O  O42  1  0.39650000  0.85460000  0.45694000  1
  O  O43  1  0.40090000  0.05650000  0.40940000  1
  O  O44  1  0.40510000  0.25200000  0.30612000  1
  O  O45  1  0.42650000  0.45260000  0.25792000  1
  O  O46  1  0.45940000  0.95130000  0.23096000  1
  O  O47  1  0.48690000  0.25130000  0.81850000  1
  O  O48  1  0.51310000  0.74870000  0.18150000  1
  O  O49  1  0.54060000  0.04870000  0.76904000  1
  O  O50  1  0.57350000  0.54740000  0.74208000  1
  O  O51  1  0.59490000  0.74800000  0.69388000  1
  O  O52  1  0.59910000  0.94350000  0.59060000  1
  O  O53  1  0.60350000  0.14540000  0.54306000  1
  O  O54  1  0.60860000  0.48770000  0.09627000  1
  O  O55  1  0.63360000  0.64040000  0.50966000  1
  O  O56  1  0.67520000  0.43880000  0.45685000  1
  O  O57  1  0.73310000  0.38060000  0.97172000  1
  O  O58  1  0.75820000  0.27670000  0.10360000  1
  O  O59  1  0.76480000  0.17110000  0.37964000  1
  O  O60  1  0.76740000  0.63340000  0.88074000  1
  O  O61  1  0.78660000  0.83280000  0.83138000  1
  O  O62  1  0.79610000  0.33570000  0.79125000  1
  O  O63  1  0.79890000  0.03900000  0.24428000  1
  O  O64  1  0.84990000  0.13400000  0.74268000  1
  O  O65  1  0.86240000  0.28120000  0.25503000  1
  O  O66  1  0.90610000  0.49370000  0.09650000  1
  O  O67  1  0.95520000  0.87090000  0.66556000  1
