# generated using pymatgen
data_Cd3H40C50(NO3)4
_symmetry_space_group_name_H-M   'P 1'
_cell_length_a   13.37800000
_cell_length_b   15.87100000
_cell_length_c   17.43747210
_cell_angle_alpha   90.96966668
_cell_angle_beta   112.55680314
_cell_angle_gamma   90.00000000
_symmetry_Int_Tables_number   1
_chemical_formula_structural   Cd3H40C50(NO3)4
_chemical_formula_sum   'Cd6 H80 C100 N8 O24'
_cell_volume   3418.55703399
_cell_formula_units_Z   2
loop_
 _symmetry_equiv_pos_site_id
 _symmetry_equiv_pos_as_xyz
  1  'x, y, z'
loop_
 _atom_site_type_symbol
 _atom_site_label
 _atom_site_symmetry_multiplicity
 _atom_site_fract_x
 _atom_site_fract_y
 _atom_site_fract_z
 _atom_site_occupancy
  C  C0  1  0.08400000  0.44210000  0.03640000  1
  C  C1  1  0.95240000  0.94210000  0.03640000  1
  C  C2  1  0.07277000  0.06090000  0.04994000  1
  C  C3  1  0.97717000  0.56090000  0.04994000  1
  C  C4  1  0.50698000  0.55020000  0.08416000  1
  C  C5  1  0.57718000  0.05020000  0.08416000  1
  C  C6  1  0.05908000  0.50400000  0.08436000  1
  C  C7  1  0.02528000  0.00400000  0.08436000  1
  C  C8  1  0.44070000  0.48540000  0.09340000  1
  C  C9  1  0.65270000  0.98540000  0.09340000  1
  C  C10  1  0.14869000  0.12630000  0.10318000  1
  C  C11  1  0.95449000  0.62630000  0.10318000  1
  C  C12  1  0.45361000  0.13640000  0.13322000  1
  C  C13  1  0.67961000  0.63640000  0.13322000  1
  C  C14  1  0.54133000  0.07080000  0.14666000  1
  C  C15  1  0.60533000  0.57080000  0.14666000  1
  C  C16  1  0.47404000  0.44340000  0.16808000  1
  C  C17  1  0.69404000  0.94340000  0.16808000  1
  C  C18  1  0.40630000  0.37300000  0.18040000  1
  C  C19  1  0.77410000  0.87300000  0.18040000  1
  C  C20  1  0.12900000  0.80520000  0.19820000  1
  C  C21  1  0.06920000  0.30520000  0.19820000  1
  C  C22  1  0.22240000  0.85250000  0.21140000  1
  C  C23  1  0.98900000  0.35250000  0.21140000  1
  C  C24  1  0.58575000  0.02830000  0.22170000  1
  C  C25  1  0.63595000  0.52830000  0.22170000  1
  C  C26  1  0.57070000  0.46670000  0.23240000  1
  C  C27  1  0.66170000  0.96670000  0.23240000  1
  C  C28  1  0.24980000  0.91800000  0.26800000  1
  C  C29  1  0.01820000  0.41800000  0.26800000  1
  C  C30  1  0.20260000  0.38790000  0.28720000  1
  C  C31  1  0.08460000  0.88790000  0.28720000  1
  C  C32  1  0.35390000  0.96710000  0.28840000  1
  C  C33  1  0.93450000  0.46710000  0.28840000  1
  C  C34  1  0.17910000  0.93580000  0.30640000  1
  C  C35  1  0.12730000  0.43580000  0.30640000  1
  C  C36  1  0.43160000  0.95260000  0.37880000  1
  C  C37  1  0.94720000  0.45260000  0.37880000  1
  C  C38  1  0.47420000  0.86310000  0.38940000  1
  C  C39  1  0.48170000  0.19620000  0.38940000  1
  C  C40  1  0.90770000  0.69620000  0.38940000  1
  C  C41  1  0.91520000  0.36310000  0.38940000  1
  C  C42  1  0.31680000  0.17700000  0.39460000  1
  C  C43  1  0.07780000  0.67700000  0.39460000  1
  C  C44  1  0.53090000  0.17930000  0.47220000  1
  C  C45  1  0.94130000  0.67930000  0.47220000  1
  C  C46  1  0.35830000  0.15750000  0.47640000  1
  C  C47  1  0.11810000  0.65750000  0.47640000  1
  C  C48  1  0.53020000  0.84130000  0.48120000  1
  C  C49  1  0.95100000  0.34130000  0.48120000  1
  C  C50  1  0.46980000  0.15870000  0.51880000  1
  C  C51  1  0.04900000  0.65870000  0.51880000  1
  C  C52  1  0.64170000  0.84250000  0.52360000  1
  C  C53  1  0.88190000  0.34250000  0.52360000  1
  C  C54  1  0.46910000  0.82070000  0.52780000  1
  C  C55  1  0.05870000  0.32070000  0.52780000  1
  C  C56  1  0.68320000  0.82300000  0.60540000  1
  C  C57  1  0.92220000  0.32300000  0.60540000  1
  C  C58  1  0.51830000  0.80380000  0.61060000  1
  C  C59  1  0.52580000  0.13690000  0.61060000  1
  C  C60  1  0.08480000  0.63690000  0.61060000  1
  C  C61  1  0.09230000  0.30380000  0.61060000  1
  C  C62  1  0.56840000  0.04740000  0.62120000  1
  C  C63  1  0.05280000  0.54740000  0.62120000  1
  C  C64  1  0.82090000  0.06420000  0.69360000  1
  C  C65  1  0.87270000  0.56420000  0.69360000  1
  C  C66  1  0.64610000  0.03290000  0.71160000  1
  C  C67  1  0.06550000  0.53290000  0.71160000  1
  C  C68  1  0.79740000  0.61210000  0.71280000  1
  C  C69  1  0.91540000  0.11210000  0.71280000  1
  C  C70  1  0.75020000  0.08200000  0.73200000  1
  C  C71  1  0.98180000  0.58200000  0.73200000  1
  C  C72  1  0.42930000  0.53330000  0.76760000  1
  C  C73  1  0.33830000  0.03330000  0.76760000  1
  C  C74  1  0.41425000  0.97170000  0.77830000  1
  C  C75  1  0.36405000  0.47170000  0.77830000  1
  C  C76  1  0.77760000  0.14750000  0.78860000  1
  C  C77  1  0.01100000  0.64750000  0.78860000  1
  C  C78  1  0.87100000  0.19480000  0.80180000  1
  C  C79  1  0.93080000  0.69480000  0.80180000  1
  C  C80  1  0.59370000  0.62700000  0.81960000  1
  C  C81  1  0.22590000  0.12700000  0.81960000  1
  C  C82  1  0.52596000  0.55660000  0.83192000  1
  C  C83  1  0.30596000  0.05660000  0.83192000  1
  C  C84  1  0.45867000  0.92920000  0.85334000  1
  C  C85  1  0.39467000  0.42920000  0.85334000  1
  C  C86  1  0.54639000  0.86360000  0.86678000  1
  C  C87  1  0.32039000  0.36360000  0.86678000  1
  C  C88  1  0.85131000  0.87370000  0.89682000  1
  C  C89  1  0.04551000  0.37370000  0.89682000  1
  C  C90  1  0.55930000  0.51460000  0.90660000  1
  C  C91  1  0.34730000  0.01460000  0.90660000  1
  C  C92  1  0.94092000  0.49600000  0.91564000  1
  C  C93  1  0.97472000  0.99600000  0.91564000  1
  C  C94  1  0.49302000  0.44980000  0.91584000  1
  C  C95  1  0.42282000  0.94980000  0.91584000  1
  C  C96  1  0.92723000  0.93910000  0.95006000  1
  C  C97  1  0.02283000  0.43910000  0.95006000  1
  C  C98  1  0.91600000  0.55790000  0.96360000  1
  C  C99  1  0.04760000  0.05790000  0.96360000  1
  Cd  Cd100  1  0.27497000  0.25000000  1.00000000  1
  Cd  Cd101  1  0.72503000  0.75000000  1.00000000  1
  Cd  Cd102  1  0.30109000  0.23557000  0.21202000  1
  Cd  Cd103  1  0.91093000  0.73557000  0.21202000  1
  Cd  Cd104  1  0.69891000  0.76443000  0.78798000  1
  Cd  Cd105  1  0.08907000  0.26443000  0.78798000  1
  H  H106  1  0.48360000  0.58040000  0.03380000  1
  H  H107  1  0.55020000  0.08040000  0.03380000  1
  H  H108  1  0.37440000  0.47070000  0.04920000  1
  H  H109  1  0.67480000  0.97070000  0.04920000  1
  H  H110  1  0.14060000  0.40320000  0.06140000  1
  H  H111  1  0.92080000  0.90320000  0.06140000  1
  H  H112  1  0.10010000  0.50680000  0.14260000  1
  H  H113  1  0.04250000  0.00680000  0.14260000  1
  H  H114  1  0.11400000  0.75830000  0.16080000  1
  H  H115  1  0.04680000  0.25830000  0.16080000  1
  H  H116  1  0.26670000  0.83930000  0.18140000  1
  H  H117  1  0.91470000  0.33930000  0.18140000  1
  H  H118  1  0.38910000  0.94910000  0.25020000  1
  H  H119  1  0.86110000  0.44910000  0.25020000  1
  H  H120  1  0.56320000  0.04220000  0.26580000  1
  H  H121  1  0.70260000  0.54220000  0.26580000  1
  H  H122  1  0.33770000  0.02790000  0.28040000  1
  H  H123  1  0.94270000  0.52790000  0.28040000  1
  H  H124  1  0.59180000  0.43950000  0.28440000  1
  H  H125  1  0.69260000  0.93950000  0.28440000  1
  H  H126  1  0.27710000  0.40270000  0.31280000  1
  H  H127  1  0.03570000  0.90270000  0.31280000  1
  H  H128  1  0.19460000  0.98090000  0.34580000  1
  H  H129  1  0.15120000  0.48090000  0.34580000  1
  H  H130  1  0.52510000  0.20660000  0.35820000  1
  H  H131  1  0.83310000  0.70660000  0.35820000  1
  H  H132  1  0.52620000  0.85660000  0.36200000  1
  H  H133  1  0.83580000  0.35660000  0.36200000  1
  H  H134  1  0.41330000  0.82330000  0.36220000  1
  H  H135  1  0.94890000  0.32330000  0.36220000  1
  H  H136  1  0.24030000  0.17510000  0.36640000  1
  H  H137  1  0.12610000  0.67510000  0.36640000  1
  H  H138  1  0.49310000  0.99280000  0.39420000  1
  H  H139  1  0.90110000  0.49280000  0.39420000  1
  H  H140  1  0.39310000  0.96310000  0.41640000  1
  H  H141  1  0.02330000  0.46310000  0.41640000  1
  H  H142  1  0.68820000  0.85670000  0.49600000  1
  H  H143  1  0.80780000  0.35670000  0.49600000  1
  H  H144  1  0.60760000  0.18150000  0.49840000  1
  H  H145  1  0.89080000  0.68150000  0.49840000  1
  H  H146  1  0.39240000  0.81850000  0.50160000  1
  H  H147  1  0.10920000  0.31850000  0.50160000  1
  H  H148  1  0.31180000  0.14330000  0.50400000  1
  H  H149  1  0.19220000  0.64330000  0.50400000  1
  H  H150  1  0.60690000  0.03690000  0.58360000  1
  H  H151  1  0.97670000  0.53690000  0.58360000  1
  H  H152  1  0.50690000  0.00720000  0.60580000  1
  H  H153  1  0.09890000  0.50720000  0.60580000  1
  H  H154  1  0.75970000  0.82490000  0.63360000  1
  H  H155  1  0.87390000  0.32490000  0.63360000  1
  H  H156  1  0.58670000  0.17670000  0.63780000  1
  H  H157  1  0.05110000  0.67670000  0.63780000  1
  H  H158  1  0.47380000  0.14340000  0.63800000  1
  H  H159  1  0.16420000  0.64340000  0.63800000  1
  H  H160  1  0.47490000  0.79340000  0.64180000  1
  H  H161  1  0.16690000  0.29340000  0.64180000  1
  H  H162  1  0.80540000  0.01910000  0.65420000  1
  H  H163  1  0.84880000  0.51910000  0.65420000  1
  H  H164  1  0.72290000  0.59730000  0.68720000  1
  H  H165  1  0.96430000  0.09730000  0.68720000  1
  H  H166  1  0.40820000  0.56050000  0.71560000  1
  H  H167  1  0.30740000  0.06050000  0.71560000  1
  H  H168  1  0.66230000  0.97210000  0.71960000  1
  H  H169  1  0.05730000  0.47210000  0.71960000  1
  H  H170  1  0.43680000  0.95780000  0.73420000  1
  H  H171  1  0.29740000  0.45780000  0.73420000  1
  H  H172  1  0.61090000  0.05090000  0.74980000  1
  H  H173  1  0.13890000  0.55090000  0.74980000  1
  H  H174  1  0.73330000  0.16070000  0.81860000  1
  H  H175  1  0.08530000  0.66070000  0.81860000  1
  H  H176  1  0.88600000  0.24170000  0.83920000  1
  H  H177  1  0.95320000  0.74170000  0.83920000  1
  H  H178  1  0.89990000  0.49320000  0.85740000  1
  H  H179  1  0.95750000  0.99320000  0.85740000  1
  H  H180  1  0.85940000  0.59680000  0.93860000  1
  H  H181  1  0.07920000  0.09680000  0.93860000  1
  H  H182  1  0.62560000  0.52930000  0.95080000  1
  H  H183  1  0.32520000  0.02930000  0.95080000  1
  H  H184  1  0.51640000  0.41960000  0.96620000  1
  H  H185  1  0.44980000  0.91960000  0.96620000  1
  N  N186  1  0.17359000  0.32150000  0.23398000  1
  N  N187  1  0.06039000  0.82150000  0.23398000  1
  N  N188  1  0.37467000  0.19830000  0.35154000  1
  N  N189  1  0.97687000  0.69830000  0.35154000  1
  N  N190  1  0.62533000  0.80170000  0.64846000  1
  N  N191  1  0.02313000  0.30170000  0.64846000  1
  N  N192  1  0.82641000  0.67850000  0.76602000  1
  N  N193  1  0.93961000  0.17850000  0.76602000  1
  O  O194  1  0.41458000  0.16720000  0.06216000  1
  O  O195  1  0.64758000  0.66720000  0.06216000  1
  O  O196  1  0.18254000  0.18520000  0.07088000  1
  O  O197  1  0.88834000  0.68520000  0.07088000  1
  O  O198  1  0.32937000  0.34230000  0.11774000  1
  O  O199  1  0.78837000  0.84230000  0.11774000  1
  O  O200  1  0.17737000  0.12300000  0.18134000  1
  O  O201  1  0.00397000  0.62300000  0.18134000  1
  O  O202  1  0.42881000  0.15410000  0.19362000  1
  O  O203  1  0.76481000  0.65410000  0.19362000  1
  O  O204  1  0.42776000  0.34670000  0.25252000  1
  O  O205  1  0.82476000  0.84670000  0.25252000  1
  O  O206  1  0.57224000  0.65330000  0.74748000  1
  O  O207  1  0.17524000  0.15330000  0.74748000  1
  O  O208  1  0.57119000  0.84590000  0.80638000  1
  O  O209  1  0.23519000  0.34590000  0.80638000  1
  O  O210  1  0.82263000  0.87700000  0.81866000  1
  O  O211  1  0.99603000  0.37700000  0.81866000  1
  O  O212  1  0.67063000  0.65770000  0.88226000  1
  O  O213  1  0.21163000  0.15770000  0.88226000  1
  O  O214  1  0.81746000  0.81480000  0.92912000  1
  O  O215  1  0.11166000  0.31480000  0.92912000  1
  O  O216  1  0.58542000  0.83280000  0.93784000  1
  O  O217  1  0.35242000  0.33280000  0.93784000  1
