# generated using pymatgen
data_AgH8(CN)2
_symmetry_space_group_name_H-M   'P 1'
_cell_length_a   6.04090000
_cell_length_b   13.76923476
_cell_length_c   13.76923476
_cell_angle_alpha   90.75196260
_cell_angle_beta   97.36022659
_cell_angle_gamma   97.36022659
_symmetry_Int_Tables_number   1
_chemical_formula_structural   AgH8(CN)2
_chemical_formula_sum   'Ag8 H64 C16 N16'
_cell_volume   1126.00115115
_cell_formula_units_Z   8
loop_
 _symmetry_equiv_pos_site_id
 _symmetry_equiv_pos_as_xyz
  1  'x, y, z'
loop_
 _atom_site_type_symbol
 _atom_site_label
 _atom_site_symmetry_multiplicity
 _atom_site_fract_x
 _atom_site_fract_y
 _atom_site_fract_z
 _atom_site_occupancy
  Ag  Ag0  1  0.00000000  0.00000000  0.00000000  1
  Ag  Ag1  1  0.50000000  0.00000000  0.00000000  1
  Ag  Ag2  1  0.00000000  0.50000000  0.50000000  1
  Ag  Ag3  1  0.50000000  0.50000000  0.50000000  1
  Ag  Ag4  1  0.50000000  1.00000000  0.50000000  1
  Ag  Ag5  1  1.00000000  1.00000000  0.50000000  1
  Ag  Ag6  1  0.50000000  0.50000000  1.00000000  1
  Ag  Ag7  1  0.00000000  0.50000000  1.00000000  1
  C  C8  1  0.77020000  0.02190000  0.80230000  1
  C  C9  1  0.27020000  0.80230000  0.02190000  1
  C  C10  1  0.26920000  0.29210000  0.51310000  1
  C  C11  1  0.76920000  0.51310000  0.29210000  1
  C  C12  1  0.72640000  0.98360000  0.69780000  1
  C  C13  1  0.22640000  0.69780000  0.98360000  1
  C  C14  1  0.20180000  0.18550000  0.48330000  1
  C  C15  1  0.70180000  0.48330000  0.18550000  1
  C  C16  1  0.79820000  0.81450000  0.51670000  1
  C  C17  1  0.29820000  0.51670000  0.81450000  1
  C  C18  1  0.27360000  0.01640000  0.30220000  1
  C  C19  1  0.77360000  0.30220000  0.01640000  1
  C  C20  1  0.73080000  0.70790000  0.48690000  1
  C  C21  1  0.23080000  0.48690000  0.70790000  1
  C  C22  1  0.22980000  0.97810000  0.19770000  1
  C  C23  1  0.72980000  0.19770000  0.97810000  1
  H  H24  1  0.84760000  0.08840000  0.80660000  1
  H  H25  1  0.34760000  0.80660000  0.08840000  1
  H  H26  1  0.35130000  0.29710000  0.57870000  1
  H  H27  1  0.85130000  0.57870000  0.29710000  1
  H  H28  1  0.63140000  0.02070000  0.83070000  1
  H  H29  1  0.13140000  0.83070000  0.02070000  1
  H  H30  1  0.13520000  0.32380000  0.51420000  1
  H  H31  1  0.63520000  0.51420000  0.32380000  1
  H  H32  1  0.04170000  0.95330000  0.82390000  1
  H  H33  1  0.54170000  0.82390000  0.95330000  1
  H  H34  1  0.65700000  0.11350000  0.65590000  1
  H  H35  1  0.15700000  0.65590000  0.11350000  1
  H  H36  1  0.53520000  0.31370000  0.44450000  1
  H  H37  1  0.03520000  0.44450000  0.31370000  1
  H  H38  1  0.12550000  0.13570000  0.61150000  1
  H  H39  1  0.62550000  0.61150000  0.13570000  1
  H  H40  1  0.84210000  0.89210000  0.84850000  1
  H  H41  1  0.34210000  0.84850000  0.89210000  1
  H  H42  1  0.45760000  0.05180000  0.68120000  1
  H  H43  1  0.95760000  0.68120000  0.05180000  1
  H  H44  1  0.33420000  0.33930000  0.38490000  1
  H  H45  1  0.83420000  0.38490000  0.33930000  1
  H  H46  1  0.92570000  0.15830000  0.54830000  1
  H  H47  1  0.42570000  0.54830000  0.15830000  1
  H  H48  1  0.86430000  0.98530000  0.66870000  1
  H  H49  1  0.36430000  0.66870000  0.98530000  1
  H  H50  1  0.33650000  0.15410000  0.48290000  1
  H  H51  1  0.83650000  0.48290000  0.15410000  1
  H  H52  1  0.64850000  0.91710000  0.69310000  1
  H  H53  1  0.14850000  0.69310000  0.91710000  1
  H  H54  1  0.12290000  0.18100000  0.41720000  1
  H  H55  1  0.62290000  0.41720000  0.18100000  1
  H  H56  1  0.87710000  0.81900000  0.58280000  1
  H  H57  1  0.37710000  0.58280000  0.81900000  1
  H  H58  1  0.35150000  0.08290000  0.30690000  1
  H  H59  1  0.85150000  0.30690000  0.08290000  1
  H  H60  1  0.66350000  0.84590000  0.51710000  1
  H  H61  1  0.16350000  0.51710000  0.84590000  1
  H  H62  1  0.13570000  0.01470000  0.33130000  1
  H  H63  1  0.63570000  0.33130000  0.01470000  1
  H  H64  1  0.07430000  0.84170000  0.45170000  1
  H  H65  1  0.57430000  0.45170000  0.84170000  1
  H  H66  1  0.66580000  0.66070000  0.61510000  1
  H  H67  1  0.16580000  0.61510000  0.66070000  1
  H  H68  1  0.54240000  0.94820000  0.31880000  1
  H  H69  1  0.04240000  0.31880000  0.94820000  1
  H  H70  1  0.15790000  0.10790000  0.15150000  1
  H  H71  1  0.65790000  0.15150000  0.10790000  1
  H  H72  1  0.87450000  0.86430000  0.38850000  1
  H  H73  1  0.37450000  0.38850000  0.86430000  1
  H  H74  1  0.46480000  0.68630000  0.55550000  1
  H  H75  1  0.96480000  0.55550000  0.68630000  1
  H  H76  1  0.34300000  0.88650000  0.34410000  1
  H  H77  1  0.84300000  0.34410000  0.88650000  1
  H  H78  1  0.95830000  0.04670000  0.17610000  1
  H  H79  1  0.45830000  0.17610000  0.04670000  1
  H  H80  1  0.86480000  0.67620000  0.48580000  1
  H  H81  1  0.36480000  0.48580000  0.67620000  1
  H  H82  1  0.36860000  0.97930000  0.16930000  1
  H  H83  1  0.86860000  0.16930000  0.97930000  1
  H  H84  1  0.64870000  0.70290000  0.42130000  1
  H  H85  1  0.14870000  0.42130000  0.70290000  1
  H  H86  1  0.15240000  0.91160000  0.19340000  1
  H  H87  1  0.65240000  0.19340000  0.91160000  1
  N  N88  1  0.91600000  0.95340000  0.85260000  1
  N  N89  1  0.41600000  0.85260000  0.95340000  1
  N  N90  1  0.41000000  0.34210000  0.44590000  1
  N  N91  1  0.91000000  0.44590000  0.34210000  1
  N  N92  1  0.58340000  0.05220000  0.65220000  1
  N  N93  1  0.08340000  0.65220000  0.05220000  1
  N  N94  1  0.05600000  0.13250000  0.54950000  1
  N  N95  1  0.55600000  0.54950000  0.13250000  1
  N  N96  1  0.94400000  0.86750000  0.45050000  1
  N  N97  1  0.44400000  0.45050000  0.86750000  1
  N  N98  1  0.41660000  0.94780000  0.34780000  1
  N  N99  1  0.91660000  0.34780000  0.94780000  1
  N  N100  1  0.59000000  0.65790000  0.55410000  1
  N  N101  1  0.09000000  0.55410000  0.65790000  1
  N  N102  1  0.08400000  0.04660000  0.14740000  1
  N  N103  1  0.58400000  0.14740000  0.04660000  1
