# generated using pymatgen
data_YbH2(CO)7
_symmetry_space_group_name_H-M   'P 1'
_cell_length_a   9.81840000
_cell_length_b   9.81840000
_cell_length_c   13.26160000
_cell_angle_alpha   95.21130000
_cell_angle_beta   109.22710000
_cell_angle_gamma   115.62700000
_symmetry_Int_Tables_number   1
_chemical_formula_structural   YbH2(CO)7
_chemical_formula_sum   'Yb4 H8 C28 O28'
_cell_volume   1046.72491542
_cell_formula_units_Z   4
loop_
 _symmetry_equiv_pos_site_id
 _symmetry_equiv_pos_as_xyz
  1  'x, y, z'
loop_
 _atom_site_type_symbol
 _atom_site_label
 _atom_site_symmetry_multiplicity
 _atom_site_fract_x
 _atom_site_fract_y
 _atom_site_fract_z
 _atom_site_occupancy
  Yb  Yb0  1  0.95771000  0.73154000  0.49651000  1
  Yb  Yb1  1  0.73503000  0.46120000  0.00349000  1
  Yb  Yb2  1  0.26497000  0.53880000  0.99651000  1
  Yb  Yb3  1  0.04229000  0.26846000  0.50349000  1
  H  H4  1  0.99210000  0.05240000  0.85070000  1
  H  H5  1  0.82280000  0.75910000  0.82070000  1
  H  H6  1  0.70170000  0.14140000  0.64930000  1
  H  H7  1  0.56160000  0.99790000  0.32070000  1
  H  H8  1  0.43840000  0.00210000  0.67930000  1
  H  H9  1  0.29830000  0.85860000  0.35070000  1
  H  H10  1  0.17720000  0.24090000  0.17930000  1
  H  H11  1  0.00790000  0.94760000  0.14930000  1
  C  C12  1  0.93170000  0.58690000  0.26500000  1
  C  C13  1  0.90230000  0.00150000  0.86880000  1
  C  C14  1  0.88410000  0.23390000  0.96020000  1
  C  C15  1  0.83590000  0.06910000  0.91620000  1
  C  C16  1  0.82190000  0.66666667  0.23500000  1
  C  C17  1  0.80730000  0.83700000  0.85190000  1
  C  C18  1  0.77370000  0.92390000  0.53980000  1
  C  C19  1  0.72720000  0.34150000  0.40390000  1
  C  C20  1  0.68930000  0.81600000  0.89050000  1
  C  C21  1  0.65290000  0.91970000  0.58380000  1
  C  C22  1  0.63270000  0.03350000  0.63120000  1
  C  C23  1  0.57450000  0.20120000  0.39050000  1
  C  C24  1  0.56240000  0.67670000  0.90390000  1
  C  C25  1  0.51490000  0.04460000  0.35190000  1
  C  C26  1  0.48510000  0.95540000  0.64810000  1
  C  C27  1  0.43760000  0.32330000  0.09610000  1
  C  C28  1  0.42550000  0.79880000  0.60950000  1
  C  C29  1  0.36730000  0.96650000  0.36880000  1
  C  C30  1  0.34710000  0.08030000  0.41620000  1
  C  C31  1  0.31070000  0.18400000  0.10950000  1
  C  C32  1  0.27280000  0.65850000  0.59610000  1
  C  C33  1  0.22630000  0.07610000  0.46020000  1
  C  C34  1  0.19270000  0.16300000  0.14810000  1
  C  C35  1  0.17810000  0.33333333  0.76500000  1
  C  C36  1  0.16410000  0.93090000  0.08380000  1
  C  C37  1  0.11590000  0.76610000  0.03980000  1
  C  C38  1  0.09770000  0.99850000  0.13120000  1
  C  C39  1  0.06830000  0.41310000  0.73500000  1
  O  O40  1  0.98570000  0.66180000  0.04030000  1
  O  O41  1  0.97580000  0.37810000  0.63590000  1
  O  O42  1  0.91960000  0.49660000  0.18520000  1
  O  O43  1  0.87850000  0.05460000  0.54030000  1
  O  O44  1  0.84490000  0.31980000  0.40550000  1
  O  O45  1  0.81140000  0.73440000  0.31480000  1
  O  O46  1  0.78810000  0.25850000  0.99400000  1
  O  O47  1  0.76450000  0.79410000  0.50600000  1
  O  O48  1  0.75780000  0.66010000  0.13590000  1
  O  O49  1  0.73190000  0.47230000  0.41400000  1
  O  O50  1  0.70240000  0.95730000  0.92890000  1
  O  O51  1  0.58570000  0.56060000  0.90550000  1
  O  O52  1  0.55830000  0.31790000  0.08600000  1
  O  O53  1  0.52840000  0.77350000  0.57110000  1
  O  O54  1  0.47160000  0.22650000  0.42890000  1
  O  O55  1  0.44170000  0.68210000  0.91400000  1
  O  O56  1  0.41430000  0.43940000  0.09450000  1
  O  O57  1  0.29760000  0.04270000  0.07110000  1
  O  O58  1  0.26810000  0.52770000  0.58600000  1
  O  O59  1  0.24220000  0.33990000  0.86410000  1
  O  O60  1  0.23550000  0.20590000  0.49400000  1
  O  O61  1  0.21190000  0.74150000  0.00600000  1
  O  O62  1  0.18860000  0.26560000  0.68520000  1
  O  O63  1  0.15510000  0.68020000  0.59450000  1
  O  O64  1  0.12150000  0.94540000  0.45970000  1
  O  O65  1  0.08040000  0.50340000  0.81480000  1
  O  O66  1  0.02420000  0.62190000  0.36410000  1
  O  O67  1  0.01430000  0.33820000  0.95970000  1
