# generated using pymatgen
data_ZnH12C18(N3O2)2
_symmetry_space_group_name_H-M   'P 1'
_cell_length_a   15.80120000
_cell_length_b   16.96800000
_cell_length_c   19.76650000
_cell_angle_alpha   90.00000000
_cell_angle_beta   90.00000000
_cell_angle_gamma   90.00000000
_symmetry_Int_Tables_number   1
_chemical_formula_structural   ZnH12C18(N3O2)2
_chemical_formula_sum   'Zn8 H96 C144 N48 O32'
_cell_volume   5299.69043517
_cell_formula_units_Z   8
loop_
 _symmetry_equiv_pos_site_id
 _symmetry_equiv_pos_as_xyz
  1  'x, y, z'
loop_
 _atom_site_type_symbol
 _atom_site_label
 _atom_site_symmetry_multiplicity
 _atom_site_fract_x
 _atom_site_fract_y
 _atom_site_fract_z
 _atom_site_occupancy
  Zn  Zn0  1  0.47712000  0.49343000  0.21462000  1
  Zn  Zn1  1  0.52288000  0.99343000  0.21462000  1
  Zn  Zn2  1  0.02288000  0.99343000  0.28538000  1
  Zn  Zn3  1  0.97712000  0.49343000  0.28538000  1
  Zn  Zn4  1  0.02288000  0.50657000  0.71462000  1
  Zn  Zn5  1  0.97712000  0.00657000  0.71462000  1
  Zn  Zn6  1  0.47712000  0.00657000  0.78538000  1
  Zn  Zn7  1  0.52288000  0.50657000  0.78538000  1
  H  H8  1  0.45430000  0.10090000  0.01980000  1
  H  H9  1  0.54570000  0.60090000  0.01980000  1
  H  H10  1  0.09080000  0.04800000  0.03950000  1
  H  H11  1  0.90920000  0.54800000  0.03950000  1
  H  H12  1  0.19610000  0.43730000  0.04150000  1
  H  H13  1  0.80390000  0.93730000  0.04150000  1
  H  H14  1  0.37260000  0.01290000  0.09850000  1
  H  H15  1  0.62740000  0.51290000  0.09850000  1
  H  H16  1  0.31270000  0.50720000  0.11470000  1
  H  H17  1  0.68730000  0.00720000  0.11470000  1
  H  H18  1  0.41980000  0.24590000  0.11720000  1
  H  H19  1  0.58020000  0.74590000  0.11720000  1
  H  H20  1  0.26690000  0.99910000  0.17880000  1
  H  H21  1  0.73310000  0.49910000  0.17880000  1
  H  H22  1  0.34840000  0.34250000  0.20240000  1
  H  H23  1  0.65160000  0.84250000  0.20240000  1
  H  H24  1  0.22560000  0.41260000  0.22300000  1
  H  H25  1  0.77440000  0.91260000  0.22300000  1
  H  H26  1  0.12230000  0.60240000  0.23210000  1
  H  H27  1  0.87770000  0.10240000  0.23210000  1
  H  H28  1  0.22520000  0.13950000  0.23810000  1
  H  H29  1  0.77480000  0.63950000  0.23810000  1
  H  H30  1  0.39800000  0.71100000  0.23820000  1
  H  H31  1  0.60200000  0.21100000  0.23820000  1
  H  H32  1  0.10200000  0.21100000  0.26180000  1
  H  H33  1  0.89800000  0.71100000  0.26180000  1
  H  H34  1  0.27480000  0.63950000  0.26190000  1
  H  H35  1  0.72520000  0.13950000  0.26190000  1
  H  H36  1  0.37770000  0.10240000  0.26790000  1
  H  H37  1  0.62230000  0.60240000  0.26790000  1
  H  H38  1  0.27440000  0.91260000  0.27700000  1
  H  H39  1  0.72560000  0.41260000  0.27700000  1
  H  H40  1  0.15160000  0.84250000  0.29760000  1
  H  H41  1  0.84840000  0.34250000  0.29760000  1
  H  H42  1  0.23310000  0.49910000  0.32120000  1
  H  H43  1  0.76690000  0.99910000  0.32120000  1
  H  H44  1  0.08020000  0.74590000  0.38280000  1
  H  H45  1  0.91980000  0.24590000  0.38280000  1
  H  H46  1  0.18730000  0.00720000  0.38530000  1
  H  H47  1  0.81270000  0.50720000  0.38530000  1
  H  H48  1  0.12740000  0.51290000  0.40150000  1
  H  H49  1  0.87260000  0.01290000  0.40150000  1
  H  H50  1  0.30390000  0.93730000  0.45850000  1
  H  H51  1  0.69610000  0.43730000  0.45850000  1
  H  H52  1  0.40920000  0.54800000  0.46050000  1
  H  H53  1  0.59080000  0.04800000  0.46050000  1
  H  H54  1  0.04570000  0.60090000  0.48020000  1
  H  H55  1  0.95430000  0.10090000  0.48020000  1
  H  H56  1  0.04570000  0.89910000  0.51980000  1
  H  H57  1  0.95430000  0.39910000  0.51980000  1
  H  H58  1  0.40920000  0.95200000  0.53950000  1
  H  H59  1  0.59080000  0.45200000  0.53950000  1
  H  H60  1  0.30390000  0.56270000  0.54150000  1
  H  H61  1  0.69610000  0.06270000  0.54150000  1
  H  H62  1  0.12740000  0.98710000  0.59850000  1
  H  H63  1  0.87260000  0.48710000  0.59850000  1
  H  H64  1  0.18730000  0.49280000  0.61470000  1
  H  H65  1  0.81270000  0.99280000  0.61470000  1
  H  H66  1  0.08020000  0.75410000  0.61720000  1
  H  H67  1  0.91980000  0.25410000  0.61720000  1
  H  H68  1  0.23310000  0.00090000  0.67880000  1
  H  H69  1  0.76690000  0.50090000  0.67880000  1
  H  H70  1  0.15160000  0.65750000  0.70240000  1
  H  H71  1  0.84840000  0.15750000  0.70240000  1
  H  H72  1  0.27440000  0.58740000  0.72300000  1
  H  H73  1  0.72560000  0.08740000  0.72300000  1
  H  H74  1  0.37770000  0.39760000  0.73210000  1
  H  H75  1  0.62230000  0.89760000  0.73210000  1
  H  H76  1  0.27480000  0.86050000  0.73810000  1
  H  H77  1  0.72520000  0.36050000  0.73810000  1
  H  H78  1  0.10200000  0.28900000  0.73820000  1
  H  H79  1  0.89800000  0.78900000  0.73820000  1
  H  H80  1  0.39800000  0.78900000  0.76180000  1
  H  H81  1  0.60200000  0.28900000  0.76180000  1
  H  H82  1  0.22520000  0.36050000  0.76190000  1
  H  H83  1  0.77480000  0.86050000  0.76190000  1
  H  H84  1  0.12230000  0.89760000  0.76790000  1
  H  H85  1  0.87770000  0.39760000  0.76790000  1
  H  H86  1  0.22560000  0.08740000  0.77700000  1
  H  H87  1  0.77440000  0.58740000  0.77700000  1
  H  H88  1  0.34840000  0.15750000  0.79760000  1
  H  H89  1  0.65160000  0.65750000  0.79760000  1
  H  H90  1  0.26690000  0.50090000  0.82120000  1
  H  H91  1  0.73310000  0.00090000  0.82120000  1
  H  H92  1  0.41980000  0.25410000  0.88280000  1
  H  H93  1  0.58020000  0.75410000  0.88280000  1
  H  H94  1  0.31270000  0.99280000  0.88530000  1
  H  H95  1  0.68730000  0.49280000  0.88530000  1
  H  H96  1  0.37260000  0.48710000  0.90150000  1
  H  H97  1  0.62740000  0.98710000  0.90150000  1
  H  H98  1  0.19610000  0.06270000  0.95850000  1
  H  H99  1  0.80390000  0.56270000  0.95850000  1
  H  H100  1  0.09080000  0.45200000  0.96050000  1
  H  H101  1  0.90920000  0.95200000  0.96050000  1
  H  H102  1  0.45430000  0.39910000  0.98020000  1
  H  H103  1  0.54570000  0.89910000  0.98020000  1
  C  C104  1  0.20980000  0.04910000  0.00270000  1
  C  C105  1  0.79020000  0.54910000  0.00270000  1
  C  C106  1  0.43590000  0.42200000  0.02040000  1
  C  C107  1  0.56410000  0.92200000  0.02040000  1
  C  C108  1  0.29400000  0.03630000  0.02160000  1
  C  C109  1  0.70600000  0.53630000  0.02160000  1
  C  C110  1  0.14740000  0.04120000  0.05120000  1
  C  C111  1  0.85260000  0.54120000  0.05120000  1
  C  C112  1  0.31610000  0.01930000  0.08660000  1
  C  C113  1  0.68390000  0.51930000  0.08660000  1
  C  C114  1  0.35780000  0.48160000  0.09390000  1
  C  C115  1  0.64220000  0.98160000  0.09390000  1
  C  C116  1  0.16930000  0.02300000  0.11760000  1
  C  C117  1  0.83070000  0.52300000  0.11760000  1
  C  C118  1  0.25270000  0.01190000  0.13440000  1
  C  C119  1  0.74730000  0.51190000  0.13440000  1
  C  C120  1  0.42480000  0.20370000  0.14700000  1
  C  C121  1  0.57520000  0.70370000  0.14700000  1
  C  C122  1  0.10030000  0.01690000  0.17010000  1
  C  C123  1  0.89970000  0.51690000  0.17010000  1
  C  C124  1  0.29870000  0.31620000  0.21370000  1
  C  C125  1  0.70130000  0.81620000  0.21370000  1
  C  C126  1  0.29750000  0.23470000  0.21780000  1
  C  C127  1  0.70250000  0.73470000  0.21780000  1
  C  C128  1  0.22560000  0.35800000  0.22650000  1
  C  C129  1  0.77440000  0.85800000  0.22650000  1
  C  C130  1  0.40090000  0.12590000  0.22970000  1
  C  C131  1  0.59910000  0.62590000  0.22970000  1
  C  C132  1  0.22510000  0.19420000  0.23550000  1
  C  C133  1  0.77490000  0.69420000  0.23550000  1
  C  C134  1  0.42800000  0.86460000  0.24020000  1
  C  C135  1  0.57200000  0.36460000  0.24020000  1
  C  C136  1  0.15180000  0.31870000  0.24480000  1
  C  C137  1  0.84820000  0.81870000  0.24480000  1
  C  C138  1  0.15130000  0.23720000  0.24940000  1
  C  C139  1  0.84870000  0.73720000  0.24940000  1
  C  C140  1  0.34870000  0.73720000  0.25060000  1
  C  C141  1  0.65130000  0.23720000  0.25060000  1
  C  C142  1  0.34820000  0.81870000  0.25520000  1
  C  C143  1  0.65180000  0.31870000  0.25520000  1
  C  C144  1  0.07200000  0.36460000  0.25980000  1
  C  C145  1  0.92800000  0.86460000  0.25980000  1
  C  C146  1  0.27490000  0.69420000  0.26450000  1
  C  C147  1  0.72510000  0.19420000  0.26450000  1
  C  C148  1  0.09910000  0.62590000  0.27030000  1
  C  C149  1  0.90090000  0.12590000  0.27030000  1
  C  C150  1  0.27440000  0.85800000  0.27350000  1
  C  C151  1  0.72560000  0.35800000  0.27350000  1
  C  C152  1  0.20250000  0.73470000  0.28220000  1
  C  C153  1  0.79750000  0.23470000  0.28220000  1
  C  C154  1  0.20130000  0.81620000  0.28630000  1
  C  C155  1  0.79870000  0.31620000  0.28630000  1
  C  C156  1  0.39970000  0.51690000  0.32990000  1
  C  C157  1  0.60030000  0.01690000  0.32990000  1
  C  C158  1  0.07520000  0.70370000  0.35300000  1
  C  C159  1  0.92480000  0.20370000  0.35300000  1
  C  C160  1  0.24730000  0.51190000  0.36560000  1
  C  C161  1  0.75270000  0.01190000  0.36560000  1
  C  C162  1  0.33070000  0.52300000  0.38240000  1
  C  C163  1  0.66930000  0.02300000  0.38240000  1
  C  C164  1  0.14220000  0.98160000  0.40610000  1
  C  C165  1  0.85780000  0.48160000  0.40610000  1
  C  C166  1  0.18390000  0.51930000  0.41340000  1
  C  C167  1  0.81610000  0.01930000  0.41340000  1
  C  C168  1  0.35260000  0.54120000  0.44880000  1
  C  C169  1  0.64740000  0.04120000  0.44880000  1
  C  C170  1  0.20600000  0.53630000  0.47840000  1
  C  C171  1  0.79400000  0.03630000  0.47840000  1
  C  C172  1  0.06410000  0.92200000  0.47960000  1
  C  C173  1  0.93590000  0.42200000  0.47960000  1
  C  C174  1  0.29020000  0.54910000  0.49730000  1
  C  C175  1  0.70980000  0.04910000  0.49730000  1
  C  C176  1  0.29020000  0.95090000  0.50270000  1
  C  C177  1  0.70980000  0.45090000  0.50270000  1
  C  C178  1  0.06410000  0.57800000  0.52040000  1
  C  C179  1  0.93590000  0.07800000  0.52040000  1
  C  C180  1  0.20600000  0.96370000  0.52160000  1
  C  C181  1  0.79400000  0.46370000  0.52160000  1
  C  C182  1  0.35260000  0.95880000  0.55120000  1
  C  C183  1  0.64740000  0.45880000  0.55120000  1
  C  C184  1  0.18390000  0.98070000  0.58660000  1
  C  C185  1  0.81610000  0.48070000  0.58660000  1
  C  C186  1  0.14220000  0.51840000  0.59390000  1
  C  C187  1  0.85780000  0.01840000  0.59390000  1
  C  C188  1  0.33070000  0.97700000  0.61760000  1
  C  C189  1  0.66930000  0.47700000  0.61760000  1
  C  C190  1  0.24730000  0.98810000  0.63440000  1
  C  C191  1  0.75270000  0.48810000  0.63440000  1
  C  C192  1  0.07520000  0.79630000  0.64700000  1
  C  C193  1  0.92480000  0.29630000  0.64700000  1
  C  C194  1  0.39970000  0.98310000  0.67010000  1
  C  C195  1  0.60030000  0.48310000  0.67010000  1
  C  C196  1  0.20130000  0.68380000  0.71370000  1
  C  C197  1  0.79870000  0.18380000  0.71370000  1
  C  C198  1  0.20250000  0.76530000  0.71780000  1
  C  C199  1  0.79750000  0.26530000  0.71780000  1
  C  C200  1  0.27440000  0.64200000  0.72650000  1
  C  C201  1  0.72560000  0.14200000  0.72650000  1
  C  C202  1  0.09910000  0.87410000  0.72970000  1
  C  C203  1  0.90090000  0.37410000  0.72970000  1
  C  C204  1  0.27490000  0.80580000  0.73550000  1
  C  C205  1  0.72510000  0.30580000  0.73550000  1
  C  C206  1  0.07200000  0.13540000  0.74020000  1
  C  C207  1  0.92800000  0.63540000  0.74020000  1
  C  C208  1  0.34820000  0.68130000  0.74480000  1
  C  C209  1  0.65180000  0.18130000  0.74480000  1
  C  C210  1  0.34870000  0.76280000  0.74940000  1
  C  C211  1  0.65130000  0.26280000  0.74940000  1
  C  C212  1  0.15130000  0.26280000  0.75060000  1
  C  C213  1  0.84870000  0.76280000  0.75060000  1
  C  C214  1  0.15180000  0.18130000  0.75520000  1
  C  C215  1  0.84820000  0.68130000  0.75520000  1
  C  C216  1  0.42800000  0.63540000  0.75980000  1
  C  C217  1  0.57200000  0.13540000  0.75980000  1
  C  C218  1  0.22510000  0.30580000  0.76450000  1
  C  C219  1  0.77490000  0.80580000  0.76450000  1
  C  C220  1  0.40090000  0.37410000  0.77030000  1
  C  C221  1  0.59910000  0.87410000  0.77030000  1
  C  C222  1  0.22560000  0.14200000  0.77350000  1
  C  C223  1  0.77440000  0.64200000  0.77350000  1
  C  C224  1  0.29750000  0.26530000  0.78220000  1
  C  C225  1  0.70250000  0.76530000  0.78220000  1
  C  C226  1  0.29870000  0.18380000  0.78630000  1
  C  C227  1  0.70130000  0.68380000  0.78630000  1
  C  C228  1  0.10030000  0.48310000  0.82990000  1
  C  C229  1  0.89970000  0.98310000  0.82990000  1
  C  C230  1  0.42480000  0.29630000  0.85300000  1
  C  C231  1  0.57520000  0.79630000  0.85300000  1
  C  C232  1  0.25270000  0.48810000  0.86560000  1
  C  C233  1  0.74730000  0.98810000  0.86560000  1
  C  C234  1  0.16930000  0.47700000  0.88240000  1
  C  C235  1  0.83070000  0.97700000  0.88240000  1
  C  C236  1  0.35780000  0.01840000  0.90610000  1
  C  C237  1  0.64220000  0.51840000  0.90610000  1
  C  C238  1  0.31610000  0.48070000  0.91340000  1
  C  C239  1  0.68390000  0.98070000  0.91340000  1
  C  C240  1  0.14740000  0.45880000  0.94880000  1
  C  C241  1  0.85260000  0.95880000  0.94880000  1
  C  C242  1  0.29400000  0.46370000  0.97840000  1
  C  C243  1  0.70600000  0.96370000  0.97840000  1
  C  C244  1  0.43590000  0.07800000  0.97960000  1
  C  C245  1  0.56410000  0.57800000  0.97960000  1
  C  C246  1  0.20980000  0.45090000  0.99730000  1
  C  C247  1  0.79020000  0.95090000  0.99730000  1
  N  N248  1  0.35850000  0.45550000  0.02910000  1
  N  N249  1  0.64150000  0.95550000  0.02910000  1
  N  N250  1  0.48110000  0.42630000  0.07600000  1
  N  N251  1  0.51890000  0.92630000  0.07600000  1
  N  N252  1  0.43050000  0.46550000  0.12290000  1
  N  N253  1  0.56950000  0.96550000  0.12290000  1
  N  N254  1  0.48270000  0.15080000  0.14310000  1
  N  N255  1  0.51730000  0.65080000  0.14310000  1
  N  N256  1  0.46730000  0.10000000  0.19720000  1
  N  N257  1  0.53270000  0.60000000  0.19720000  1
  N  N258  1  0.37140000  0.19080000  0.20020000  1
  N  N259  1  0.62860000  0.69080000  0.20020000  1
  N  N260  1  0.12860000  0.69080000  0.29980000  1
  N  N261  1  0.87140000  0.19080000  0.29980000  1
  N  N262  1  0.03270000  0.60000000  0.30280000  1
  N  N263  1  0.96730000  0.10000000  0.30280000  1
  N  N264  1  0.01730000  0.65080000  0.35690000  1
  N  N265  1  0.98270000  0.15080000  0.35690000  1
  N  N266  1  0.06950000  0.96550000  0.37710000  1
  N  N267  1  0.93050000  0.46550000  0.37710000  1
  N  N268  1  0.01890000  0.92630000  0.42400000  1
  N  N269  1  0.98110000  0.42630000  0.42400000  1
  N  N270  1  0.14150000  0.95550000  0.47090000  1
  N  N271  1  0.85850000  0.45550000  0.47090000  1
  N  N272  1  0.14150000  0.54450000  0.52910000  1
  N  N273  1  0.85850000  0.04450000  0.52910000  1
  N  N274  1  0.01890000  0.57370000  0.57600000  1
  N  N275  1  0.98110000  0.07370000  0.57600000  1
  N  N276  1  0.06950000  0.53450000  0.62290000  1
  N  N277  1  0.93050000  0.03450000  0.62290000  1
  N  N278  1  0.01730000  0.84920000  0.64310000  1
  N  N279  1  0.98270000  0.34920000  0.64310000  1
  N  N280  1  0.03270000  0.90000000  0.69720000  1
  N  N281  1  0.96730000  0.40000000  0.69720000  1
  N  N282  1  0.12860000  0.80920000  0.70020000  1
  N  N283  1  0.87140000  0.30920000  0.70020000  1
  N  N284  1  0.37140000  0.30920000  0.79980000  1
  N  N285  1  0.62860000  0.80920000  0.79980000  1
  N  N286  1  0.46730000  0.40000000  0.80280000  1
  N  N287  1  0.53270000  0.90000000  0.80280000  1
  N  N288  1  0.48270000  0.34920000  0.85690000  1
  N  N289  1  0.51730000  0.84920000  0.85690000  1
  N  N290  1  0.43050000  0.03450000  0.87710000  1
  N  N291  1  0.56950000  0.53450000  0.87710000  1
  N  N292  1  0.48110000  0.07370000  0.92400000  1
  N  N293  1  0.51890000  0.57370000  0.92400000  1
  N  N294  1  0.35850000  0.04450000  0.97090000  1
  N  N295  1  0.64150000  0.54450000  0.97090000  1
  O  O296  1  0.02550000  0.02440000  0.15470000  1
  O  O297  1  0.97450000  0.52440000  0.15470000  1
  O  O298  1  0.12470000  0.00190000  0.23000000  1
  O  O299  1  0.87530000  0.50190000  0.23000000  1
  O  O300  1  0.41740000  0.93800000  0.23110000  1
  O  O301  1  0.58260000  0.43800000  0.23110000  1
  O  O302  1  0.49640000  0.83070000  0.23670000  1
  O  O303  1  0.50360000  0.33070000  0.23670000  1
  O  O304  1  0.00360000  0.33070000  0.26330000  1
  O  O305  1  0.99640000  0.83070000  0.26330000  1
  O  O306  1  0.08260000  0.43800000  0.26890000  1
  O  O307  1  0.91740000  0.93800000  0.26890000  1
  O  O308  1  0.37530000  0.50190000  0.27000000  1
  O  O309  1  0.62470000  0.00190000  0.27000000  1
  O  O310  1  0.47450000  0.52440000  0.34530000  1
  O  O311  1  0.52550000  0.02440000  0.34530000  1
  O  O312  1  0.47450000  0.97560000  0.65470000  1
  O  O313  1  0.52550000  0.47560000  0.65470000  1
  O  O314  1  0.37530000  0.99810000  0.73000000  1
  O  O315  1  0.62470000  0.49810000  0.73000000  1
  O  O316  1  0.08260000  0.06200000  0.73110000  1
  O  O317  1  0.91740000  0.56200000  0.73110000  1
  O  O318  1  0.00360000  0.16930000  0.73670000  1
  O  O319  1  0.99640000  0.66930000  0.73670000  1
  O  O320  1  0.49640000  0.66930000  0.76330000  1
  O  O321  1  0.50360000  0.16930000  0.76330000  1
  O  O322  1  0.41740000  0.56200000  0.76890000  1
  O  O323  1  0.58260000  0.06200000  0.76890000  1
  O  O324  1  0.12470000  0.49810000  0.77000000  1
  O  O325  1  0.87530000  0.99810000  0.77000000  1
  O  O326  1  0.02550000  0.47560000  0.84530000  1
  O  O327  1  0.97450000  0.97560000  0.84530000  1
