# generated using pymatgen
data_CdC2(N2O)2
_symmetry_space_group_name_H-M   'P 1'
_cell_length_a   9.15550000
_cell_length_b   11.53810000
_cell_length_c   11.74700000
_cell_angle_alpha   90.00000000
_cell_angle_beta   90.00000000
_cell_angle_gamma   90.00000000
_symmetry_Int_Tables_number   1
_chemical_formula_structural   CdC2(N2O)2
_chemical_formula_sum   'Cd8 C16 N32 O16'
_cell_volume   1240.91871474
_cell_formula_units_Z   8
loop_
 _symmetry_equiv_pos_site_id
 _symmetry_equiv_pos_as_xyz
  1  'x, y, z'
loop_
 _atom_site_type_symbol
 _atom_site_label
 _atom_site_symmetry_multiplicity
 _atom_site_fract_x
 _atom_site_fract_y
 _atom_site_fract_z
 _atom_site_occupancy
  Cd  Cd0  1  0.87351000  0.15320000  0.05997000  1
  Cd  Cd1  1  0.87028000  0.62260000  0.46879000  1
  Cd  Cd2  1  0.62972000  0.62260000  0.96879000  1
  Cd  Cd3  1  0.62649000  0.15320000  0.55997000  1
  Cd  Cd4  1  0.37351000  0.65320000  0.44003000  1
  Cd  Cd5  1  0.37028000  0.12260000  0.03121000  1
  Cd  Cd6  1  0.12972000  0.12260000  0.53121000  1
  Cd  Cd7  1  0.12649000  0.65320000  0.94003000  1
  C  C8  1  0.96520000  0.88800000  0.49700000  1
  C  C9  1  0.87880000  0.34940000  0.50040000  1
  C  C10  1  0.85810000  0.63410000  0.74400000  1
  C  C11  1  0.79630000  0.62980000  0.20610000  1
  C  C12  1  0.70370000  0.62980000  0.70610000  1
  C  C13  1  0.64190000  0.63410000  0.24400000  1
  C  C14  1  0.62120000  0.34940000  0.00040000  1
  C  C15  1  0.53480000  0.88800000  0.99700000  1
  C  C16  1  0.46520000  0.38800000  0.00300000  1
  C  C17  1  0.37880000  0.84940000  0.99960000  1
  C  C18  1  0.35810000  0.13410000  0.75600000  1
  C  C19  1  0.29630000  0.12980000  0.29390000  1
  C  C20  1  0.20370000  0.12980000  0.79390000  1
  C  C21  1  0.14190000  0.13410000  0.25600000  1
  C  C22  1  0.12120000  0.84940000  0.49960000  1
  C  C23  1  0.03480000  0.38800000  0.50300000  1
  N  N24  1  0.98090000  0.62720000  0.09840000  1
  N  N25  1  0.97220000  0.12270000  0.79470000  1
  N  N26  1  0.92280000  0.99640000  0.51260000  1
  N  N27  1  0.91400000  0.62290000  0.27380000  1
  N  N28  1  0.85040000  0.82080000  0.47170000  1
  N  N29  1  0.83480000  0.63310000  0.09650000  1
  N  N30  1  0.78210000  0.99640000  0.49880000  1
  N  N31  1  0.76520000  0.89150000  0.97480000  1
  N  N32  1  0.73480000  0.89150000  0.47480000  1
  N  N33  1  0.71790000  0.99640000  0.99880000  1
  N  N34  1  0.66520000  0.63310000  0.59650000  1
  N  N35  1  0.64960000  0.82080000  0.97170000  1
  N  N36  1  0.58600000  0.62290000  0.77380000  1
  N  N37  1  0.57720000  0.99640000  0.01260000  1
  N  N38  1  0.52780000  0.12270000  0.29470000  1
  N  N39  1  0.51910000  0.62720000  0.59840000  1
  N  N40  1  0.48090000  0.12720000  0.40160000  1
  N  N41  1  0.47220000  0.62270000  0.70530000  1
  N  N42  1  0.42280000  0.49640000  0.98740000  1
  N  N43  1  0.41400000  0.12290000  0.22620000  1
  N  N44  1  0.35040000  0.32080000  0.02830000  1
  N  N45  1  0.33480000  0.13310000  0.40350000  1
  N  N46  1  0.28210000  0.49640000  0.00120000  1
  N  N47  1  0.26520000  0.39150000  0.52520000  1
  N  N48  1  0.23480000  0.39150000  0.02520000  1
  N  N49  1  0.21790000  0.49640000  0.50120000  1
  N  N50  1  0.16520000  0.13310000  0.90350000  1
  N  N51  1  0.14960000  0.32080000  0.52830000  1
  N  N52  1  0.08600000  0.12290000  0.72620000  1
  N  N53  1  0.07720000  0.49640000  0.48740000  1
  N  N54  1  0.02780000  0.62270000  0.20530000  1
  N  N55  1  0.01910000  0.12720000  0.90160000  1
  O  O56  1  0.95020000  0.63820000  0.66440000  1
  O  O57  1  0.88110000  0.62960000  0.84970000  1
  O  O58  1  0.85320000  0.24510000  0.52510000  1
  O  O59  1  0.78590000  0.42800000  0.48010000  1
  O  O60  1  0.71410000  0.42800000  0.98010000  1
  O  O61  1  0.64680000  0.24510000  0.02510000  1
  O  O62  1  0.61890000  0.62960000  0.34970000  1
  O  O63  1  0.54980000  0.63820000  0.16440000  1
  O  O64  1  0.45020000  0.13820000  0.83560000  1
  O  O65  1  0.38110000  0.12960000  0.65030000  1
  O  O66  1  0.35320000  0.74510000  0.97490000  1
  O  O67  1  0.28590000  0.92800000  0.01990000  1
  O  O68  1  0.21410000  0.92800000  0.51990000  1
  O  O69  1  0.14680000  0.74510000  0.47490000  1
  O  O70  1  0.11890000  0.12960000  0.15030000  1
  O  O71  1  0.04980000  0.13820000  0.33560000  1
