# generated using pymatgen
data_Co3H26C28(N10O)2
_symmetry_space_group_name_H-M   'P 1'
_cell_length_a   6.66730000
_cell_length_b   13.07710000
_cell_length_c   21.27510000
_cell_angle_alpha   90.00000000
_cell_angle_beta   90.00000000
_cell_angle_gamma   102.49200000
_symmetry_Int_Tables_number   1
_chemical_formula_structural   Co3H26C28(N10O)2
_chemical_formula_sum   'Co6 H52 C56 N40 O4'
_cell_volume   1811.03983849
_cell_formula_units_Z   2
loop_
 _symmetry_equiv_pos_site_id
 _symmetry_equiv_pos_as_xyz
  1  'x, y, z'
loop_
 _atom_site_type_symbol
 _atom_site_label
 _atom_site_symmetry_multiplicity
 _atom_site_fract_x
 _atom_site_fract_y
 _atom_site_fract_z
 _atom_site_occupancy
  Co  Co0  1  0.00000000  0.50000000  0.00000000  1
  Co  Co1  1  0.01751000  0.04656000  0.43305000  1
  Co  Co2  1  0.48249000  0.45344000  0.93305000  1
  Co  Co3  1  0.50000000  0.00000000  0.50000000  1
  Co  Co4  1  0.51751000  0.54656000  0.06695000  1
  Co  Co5  1  0.98249000  0.95344000  0.56695000  1
  H  H6  1  0.01770000  0.74290000  0.24790000  1
  H  H7  1  0.03540000  0.61070000  0.17570000  1
  H  H8  1  0.04990000  0.91690000  0.92300000  1
  H  H9  1  0.05300000  0.09450000  0.93170000  1
  H  H10  1  0.06770000  0.47030000  0.42170000  1
  H  H11  1  0.07100000  0.64800000  0.41410000  1
  H  H12  1  0.09700000  0.02860000  0.67390000  1
  H  H13  1  0.09800000  0.24490000  0.19520000  1
  H  H14  1  0.11500000  0.11140000  0.26610000  1
  H  H15  1  0.12700000  0.21960000  0.60130000  1
  H  H16  1  0.14000000  0.25850000  0.08970000  1
  H  H17  1  0.21600000  0.47920000  0.14620000  1
  H  H18  1  0.23400000  0.10870000  0.52490000  1
  H  H19  1  0.26600000  0.39130000  0.02490000  1
  H  H20  1  0.28400000  0.02080000  0.64620000  1
  H  H21  1  0.36000000  0.24150000  0.58970000  1
  H  H22  1  0.37300000  0.28040000  0.10130000  1
  H  H23  1  0.38500000  0.38860000  0.76610000  1
  H  H24  1  0.40200000  0.25510000  0.69520000  1
  H  H25  1  0.40300000  0.47140000  0.17390000  1
  H  H26  1  0.42900000  0.85200000  0.91410000  1
  H  H27  1  0.43230000  0.02970000  0.92170000  1
  H  H28  1  0.44700000  0.40550000  0.43170000  1
  H  H29  1  0.45010000  0.58310000  0.42300000  1
  H  H30  1  0.46460000  0.88930000  0.67570000  1
  H  H31  1  0.48230000  0.75710000  0.74790000  1
  H  H32  1  0.51770000  0.24290000  0.25210000  1
  H  H33  1  0.53540000  0.11070000  0.32430000  1
  H  H34  1  0.54990000  0.41690000  0.57700000  1
  H  H35  1  0.55300000  0.59450000  0.56830000  1
  H  H36  1  0.56770000  0.97030000  0.07830000  1
  H  H37  1  0.57100000  0.14800000  0.08590000  1
  H  H38  1  0.59700000  0.52860000  0.82610000  1
  H  H39  1  0.59800000  0.74490000  0.30480000  1
  H  H40  1  0.61500000  0.61140000  0.23390000  1
  H  H41  1  0.62700000  0.71960000  0.89870000  1
  H  H42  1  0.64000000  0.75850000  0.41030000  1
  H  H43  1  0.71600000  0.97920000  0.35380000  1
  H  H44  1  0.73400000  0.60870000  0.97510000  1
  H  H45  1  0.76600000  0.89130000  0.47510000  1
  H  H46  1  0.78400000  0.52080000  0.85380000  1
  H  H47  1  0.86000000  0.74150000  0.91030000  1
  H  H48  1  0.87300000  0.78040000  0.39870000  1
  H  H49  1  0.88500000  0.88860000  0.73390000  1
  H  H50  1  0.90200000  0.75510000  0.80480000  1
  H  H51  1  0.90300000  0.97140000  0.32610000  1
  H  H52  1  0.92900000  0.35200000  0.58590000  1
  H  H53  1  0.93230000  0.52970000  0.57830000  1
  H  H54  1  0.94700000  0.90550000  0.06830000  1
  H  H55  1  0.95010000  0.08310000  0.07700000  1
  H  H56  1  0.96460000  0.38930000  0.82430000  1
  H  H57  1  0.98230000  0.25710000  0.75210000  1
  C  C58  1  0.00690000  0.86243000  0.73694000  1
  C  C59  1  0.01760000  0.78335000  0.77923000  1
  C  C60  1  0.05610000  0.40109000  0.58174000  1
  C  C61  1  0.05820000  0.50691000  0.57715000  1
  C  C62  1  0.07440000  0.95460000  0.07141000  1
  C  C63  1  0.07630000  0.06054000  0.07632000  1
  C  C64  1  0.13860000  0.71576000  0.24538000  1
  C  C65  1  0.14880000  0.63694000  0.20251000  1
  C  C66  1  0.17490000  0.90355000  0.69888000  1
  C  C67  1  0.19610000  0.74459000  0.78478000  1
  C  C68  1  0.20830000  0.66696000  0.83395000  1
  C  C69  1  0.23960000  0.36583000  0.58029000  1
  C  C70  1  0.24260000  0.58060000  0.57091000  1
  C  C71  1  0.24370000  0.69131000  0.56099000  1
  C  C72  1  0.25630000  0.80869000  0.06099000  1
  C  C73  1  0.25740000  0.91940000  0.07091000  1
  C  C74  1  0.26040000  0.13417000  0.08029000  1
  C  C75  1  0.29170000  0.83304000  0.33395000  1
  C  C76  1  0.30390000  0.75541000  0.28478000  1
  C  C77  1  0.32510000  0.59645000  0.19888000  1
  C  C78  1  0.35120000  0.86306000  0.70251000  1
  C  C79  1  0.36140000  0.78424000  0.74538000  1
  C  C80  1  0.42370000  0.43946000  0.57632000  1
  C  C81  1  0.42560000  0.54540000  0.57141000  1
  C  C82  1  0.44180000  0.99309000  0.07715000  1
  C  C83  1  0.44390000  0.09891000  0.08174000  1
  C  C84  1  0.48240000  0.71665000  0.27923000  1
  C  C85  1  0.49310000  0.63757000  0.23694000  1
  C  C86  1  0.50690000  0.36243000  0.76306000  1
  C  C87  1  0.51760000  0.28335000  0.72077000  1
  C  C88  1  0.55610000  0.90109000  0.91826000  1
  C  C89  1  0.55820000  0.00691000  0.92285000  1
  C  C90  1  0.57440000  0.45460000  0.42859000  1
  C  C91  1  0.57630000  0.56054000  0.42368000  1
  C  C92  1  0.63860000  0.21576000  0.25462000  1
  C  C93  1  0.64880000  0.13694000  0.29749000  1
  C  C94  1  0.67490000  0.40355000  0.80112000  1
  C  C95  1  0.69610000  0.24459000  0.71522000  1
  C  C96  1  0.70830000  0.16696000  0.66605000  1
  C  C97  1  0.73960000  0.86583000  0.91971000  1
  C  C98  1  0.74260000  0.08060000  0.92909000  1
  C  C99  1  0.74370000  0.19131000  0.93901000  1
  C  C100  1  0.75630000  0.30869000  0.43901000  1
  C  C101  1  0.75740000  0.41940000  0.42909000  1
  C  C102  1  0.76040000  0.63417000  0.41971000  1
  C  C103  1  0.79170000  0.33304000  0.16605000  1
  C  C104  1  0.80390000  0.25541000  0.21522000  1
  C  C105  1  0.82510000  0.09645000  0.30112000  1
  C  C106  1  0.85120000  0.36306000  0.79749000  1
  C  C107  1  0.86140000  0.28424000  0.75462000  1
  C  C108  1  0.92370000  0.93946000  0.92368000  1
  C  C109  1  0.92560000  0.04540000  0.92859000  1
  C  C110  1  0.94180000  0.49309000  0.42285000  1
  C  C111  1  0.94390000  0.59891000  0.41826000  1
  C  C112  1  0.98240000  0.21665000  0.22077000  1
  C  C113  1  0.99310000  0.13757000  0.26306000  1
  N  N114  1  0.06020000  0.63546000  0.87719000  1
  N  N115  1  0.07580000  0.73302000  0.56393000  1
  N  N116  1  0.08970000  0.73523000  0.04462000  1
  N  N117  1  0.13160000  0.87800000  0.34361000  1
  N  N118  1  0.13250000  0.56858000  0.91409000  1
  N  N119  1  0.14140000  0.83340000  0.54858000  1
  N  N120  1  0.15470000  0.64637000  0.03847000  1
  N  N121  1  0.16010000  0.98558000  0.65570000  1
  N  N122  1  0.18420000  0.93897000  0.39461000  1
  N  N123  1  0.23640000  0.25847000  0.58064000  1
  N  N124  1  0.26360000  0.24153000  0.08064000  1
  N  N125  1  0.31580000  0.56103000  0.89461000  1
  N  N126  1  0.33990000  0.51442000  0.15570000  1
  N  N127  1  0.34530000  0.85363000  0.53847000  1
  N  N128  1  0.35860000  0.66666667  0.04858000  1
  N  N129  1  0.36750000  0.93142000  0.41409000  1
  N  N130  1  0.36840000  0.62200000  0.84361000  1
  N  N131  1  0.41030000  0.76477000  0.54462000  1
  N  N132  1  0.42420000  0.76698000  0.06393000  1
  N  N133  1  0.43980000  0.86454000  0.37719000  1
  N  N134  1  0.56020000  0.13546000  0.62281000  1
  N  N135  1  0.57580000  0.23302000  0.93607000  1
  N  N136  1  0.58970000  0.23523000  0.45538000  1
  N  N137  1  0.63160000  0.37800000  0.15639000  1
  N  N138  1  0.63250000  0.06858000  0.58591000  1
  N  N139  1  0.64140000  0.33340000  0.95142000  1
  N  N140  1  0.65470000  0.14637000  0.46153000  1
  N  N141  1  0.66010000  0.48558000  0.84430000  1
  N  N142  1  0.68420000  0.43897000  0.10539000  1
  N  N143  1  0.73640000  0.75847000  0.91936000  1
  N  N144  1  0.76360000  0.74153000  0.41936000  1
  N  N145  1  0.81580000  0.06103000  0.60539000  1
  N  N146  1  0.83990000  0.01442000  0.34430000  1
  N  N147  1  0.84530000  0.35363000  0.96153000  1
  N  N148  1  0.85860000  0.16660000  0.45142000  1
  N  N149  1  0.86750000  0.43142000  0.08591000  1
  N  N150  1  0.86840000  0.12200000  0.65639000  1
  N  N151  1  0.91030000  0.26477000  0.95538000  1
  N  N152  1  0.92420000  0.26698000  0.43607000  1
  N  N153  1  0.93980000  0.36454000  0.12281000  1
  O  O154  1  0.21342000  0.05013000  0.51220000  1
  O  O155  1  0.28658000  0.44987000  0.01220000  1
  O  O156  1  0.71342000  0.55013000  0.98780000  1
  O  O157  1  0.78658000  0.94987000  0.48780000  1
