# generated using pymatgen
data_Gd3PH13C14NO19
_symmetry_space_group_name_H-M   'P 1'
_cell_length_a   10.58700000
_cell_length_b   11.76310000
_cell_length_c   26.04880000
_cell_angle_alpha   90.00000000
_cell_angle_beta   90.00000000
_cell_angle_gamma   98.32600000
_symmetry_Int_Tables_number   1
_chemical_formula_structural   Gd3PH13C14NO19
_chemical_formula_sum   'Gd12 P4 H52 C56 N4 O76'
_cell_volume   3209.82048713
_cell_formula_units_Z   4
loop_
 _symmetry_equiv_pos_site_id
 _symmetry_equiv_pos_as_xyz
  1  'x, y, z'
loop_
 _atom_site_type_symbol
 _atom_site_label
 _atom_site_symmetry_multiplicity
 _atom_site_fract_x
 _atom_site_fract_y
 _atom_site_fract_z
 _atom_site_occupancy
  Gd  Gd0  1  0.85279000  0.86264000  0.91132000  1
  Gd  Gd1  1  0.85279000  0.36264000  0.58868000  1
  Gd  Gd2  1  0.77483000  0.96097000  0.46567000  1
  Gd  Gd3  1  0.77483000  0.46097000  0.03433000  1
  Gd  Gd4  1  0.63978000  0.55460000  0.28671000  1
  Gd  Gd5  1  0.63978000  0.05460000  0.21329000  1
  Gd  Gd6  1  0.36022000  0.94540000  0.78671000  1
  Gd  Gd7  1  0.36022000  0.44540000  0.71329000  1
  Gd  Gd8  1  0.22517000  0.53903000  0.96567000  1
  Gd  Gd9  1  0.22517000  0.03903000  0.53433000  1
  Gd  Gd10  1  0.14721000  0.63736000  0.41132000  1
  Gd  Gd11  1  0.14721000  0.13736000  0.08868000  1
  P  P12  1  0.91061000  0.56003000  0.91279000  1
  P  P13  1  0.91061000  0.06003000  0.58721000  1
  P  P14  1  0.08939000  0.93997000  0.41279000  1
  P  P15  1  0.08939000  0.43997000  0.08721000  1
  H  H16  1  0.99000000  0.22180000  0.75200000  1
  H  H17  1  0.99000000  0.72180000  0.74800000  1
  H  H18  1  0.96300000  0.12740000  0.37270000  1
  H  H19  1  0.96300000  0.62740000  0.12730000  1
  H  H20  1  0.94710000  0.10690000  0.31330000  1
  H  H21  1  0.94710000  0.60690000  0.18670000  1
  H  H22  1  0.94620000  0.18150000  0.85840000  1
  H  H23  1  0.94620000  0.68150000  0.64160000  1
  H  H24  1  0.92910000  0.55290000  0.82380000  1
  H  H25  1  0.92910000  0.05290000  0.67620000  1
  H  H26  1  0.92760000  0.10420000  0.77580000  1
  H  H27  1  0.92760000  0.60420000  0.72420000  1
  H  H28  1  0.91850000  0.29610000  0.33250000  1
  H  H29  1  0.91850000  0.79610000  0.16750000  1
  H  H30  1  0.86120000  0.39590000  0.75870000  1
  H  H31  1  0.86120000  0.89590000  0.74130000  1
  H  H32  1  0.81920000  0.34320000  0.86120000  1
  H  H33  1  0.81920000  0.84320000  0.63880000  1
  H  H34  1  0.78520000  0.52880000  0.83930000  1
  H  H35  1  0.78520000  0.02880000  0.66070000  1
  H  H36  1  0.77170000  0.70620000  0.75850000  1
  H  H37  1  0.77170000  0.20620000  0.74150000  1
  H  H38  1  0.74950000  0.18210000  0.80030000  1
  H  H39  1  0.74950000  0.68210000  0.69970000  1
  H  H40  1  0.72490000  0.37250000  0.78370000  1
  H  H41  1  0.72490000  0.87250000  0.71630000  1
  H  H42  1  0.27510000  0.12750000  0.28370000  1
  H  H43  1  0.27510000  0.62750000  0.21630000  1
  H  H44  1  0.25050000  0.31790000  0.30030000  1
  H  H45  1  0.25050000  0.81790000  0.19970000  1
  H  H46  1  0.22830000  0.79380000  0.25850000  1
  H  H47  1  0.22830000  0.29380000  0.24150000  1
  H  H48  1  0.21480000  0.97120000  0.33930000  1
  H  H49  1  0.21480000  0.47120000  0.16070000  1
  H  H50  1  0.18080000  0.15680000  0.36120000  1
  H  H51  1  0.18080000  0.65680000  0.13880000  1
  H  H52  1  0.13880000  0.10410000  0.25870000  1
  H  H53  1  0.13880000  0.60410000  0.24130000  1
  H  H54  1  0.08150000  0.20390000  0.83250000  1
  H  H55  1  0.08150000  0.70390000  0.66750000  1
  H  H56  1  0.07240000  0.39580000  0.27580000  1
  H  H57  1  0.07240000  0.89580000  0.22420000  1
  H  H58  1  0.07090000  0.94710000  0.32380000  1
  H  H59  1  0.07090000  0.44710000  0.17620000  1
  H  H60  1  0.05380000  0.31850000  0.35840000  1
  H  H61  1  0.05380000  0.81850000  0.14160000  1
  H  H62  1  0.05290000  0.39310000  0.81330000  1
  H  H63  1  0.05290000  0.89310000  0.68670000  1
  H  H64  1  0.03700000  0.37260000  0.87270000  1
  H  H65  1  0.03700000  0.87260000  0.62730000  1
  H  H66  1  0.01000000  0.27820000  0.25200000  1
  H  H67  1  0.01000000  0.77820000  0.24800000  1
  C  C68  1  0.99960000  0.35140000  0.83940000  1
  C  C69  1  0.99960000  0.85140000  0.66060000  1
  C  C70  1  0.99550000  0.22310000  0.83120000  1
  C  C71  1  0.99550000  0.72310000  0.66880000  1
  C  C72  1  0.99540000  0.44430000  0.48336000  1
  C  C73  1  0.99540000  0.94430000  0.01664000  1
  C  C74  1  0.93570000  0.18710000  0.77940000  1
  C  C75  1  0.93570000  0.68710000  0.72060000  1
  C  C76  1  0.92790000  0.57970000  0.32710000  1
  C  C77  1  0.92790000  0.07970000  0.17290000  1
  C  C78  1  0.86920000  0.50990000  0.84731000  1
  C  C79  1  0.86920000  0.00990000  0.65269000  1
  C  C80  1  0.84880000  0.59290000  0.37613000  1
  C  C81  1  0.84880000  0.09290000  0.12387000  1
  C  C82  1  0.81070000  0.35270000  0.78512000  1
  C  C83  1  0.81070000  0.85270000  0.71488000  1
  C  C84  1  0.80630000  0.22460000  0.77550000  1
  C  C85  1  0.80630000  0.72460000  0.72450000  1
  C  C86  1  0.70870000  0.83200000  0.27714000  1
  C  C87  1  0.70870000  0.33200000  0.22286000  1
  C  C88  1  0.67020000  0.28530000  0.27747000  1
  C  C89  1  0.67020000  0.78530000  0.22253000  1
  C  C90  1  0.61940000  0.96300000  0.85521000  1
  C  C91  1  0.61940000  0.46300000  0.64479000  1
  C  C92  1  0.61220000  0.84220000  0.83188000  1
  C  C93  1  0.61220000  0.34220000  0.66812000  1
  C  C94  1  0.51970000  0.06560000  0.49865000  1
  C  C95  1  0.51970000  0.56560000  0.00135000  1
  C  C96  1  0.48030000  0.43440000  0.99865000  1
  C  C97  1  0.48030000  0.93440000  0.50135000  1
  C  C98  1  0.38780000  0.65780000  0.33188000  1
  C  C99  1  0.38780000  0.15780000  0.16812000  1
  C  C100  1  0.38060000  0.53700000  0.35521000  1
  C  C101  1  0.38060000  0.03700000  0.14479000  1
  C  C102  1  0.32980000  0.21470000  0.77747000  1
  C  C103  1  0.32980000  0.71470000  0.72253000  1
  C  C104  1  0.29130000  0.66800000  0.77714000  1
  C  C105  1  0.29130000  0.16800000  0.72286000  1
  C  C106  1  0.19370000  0.27540000  0.27550000  1
  C  C107  1  0.19370000  0.77540000  0.22450000  1
  C  C108  1  0.18930000  0.14730000  0.28512000  1
  C  C109  1  0.18930000  0.64730000  0.21488000  1
  C  C110  1  0.15120000  0.90710000  0.87613000  1
  C  C111  1  0.15120000  0.40710000  0.62387000  1
  C  C112  1  0.13080000  0.99010000  0.34731000  1
  C  C113  1  0.13080000  0.49010000  0.15269000  1
  C  C114  1  0.07210000  0.92030000  0.82710000  1
  C  C115  1  0.07210000  0.42030000  0.67290000  1
  C  C116  1  0.06430000  0.31290000  0.27940000  1
  C  C117  1  0.06430000  0.81290000  0.22060000  1
  C  C118  1  0.00460000  0.05570000  0.98336000  1
  C  C119  1  0.00460000  0.55570000  0.51664000  1
  C  C120  1  0.00450000  0.27690000  0.33120000  1
  C  C121  1  0.00450000  0.77690000  0.16880000  1
  C  C122  1  0.00040000  0.14860000  0.33940000  1
  C  C123  1  0.00040000  0.64860000  0.16060000  1
  N  N124  1  0.86820000  0.38400000  0.83693000  1
  N  N125  1  0.86820000  0.88400000  0.66307000  1
  N  N126  1  0.13180000  0.11600000  0.33693000  1
  N  N127  1  0.13180000  0.61600000  0.16307000  1
  O  O128  1  0.95320000  0.90810000  0.83204000  1
  O  O129  1  0.95320000  0.40810000  0.66796000  1
  O  O130  1  0.94640000  0.92900000  0.41823000  1
  O  O131  1  0.94640000  0.42900000  0.08177000  1
  O  O132  1  0.93830000  0.05040000  0.94368000  1
  O  O133  1  0.93830000  0.55040000  0.55632000  1
  O  O134  1  0.92170000  0.35940000  0.49990000  1
  O  O135  1  0.92170000  0.85940000  0.00010000  1
  O  O136  1  0.91030000  0.62730000  0.41541000  1
  O  O137  1  0.91030000  0.12730000  0.08459000  1
  O  O138  1  0.86700000  0.55800000  0.28634000  1
  O  O139  1  0.86700000  0.05800000  0.21366000  1
  O  O140  1  0.86030000  0.67310000  0.91444000  1
  O  O141  1  0.86030000  0.17310000  0.58556000  1
  O  O142  1  0.84260000  0.47110000  0.94945000  1
  O  O143  1  0.84260000  0.97110000  0.55055000  1
  O  O144  1  0.73610000  0.75840000  0.30843000  1
  O  O145  1  0.73610000  0.25840000  0.19157000  1
  O  O146  1  0.72940000  0.56780000  0.37256000  1
  O  O147  1  0.72940000  0.06780000  0.12744000  1
  O  O148  1  0.71380000  0.99550000  0.88375000  1
  O  O149  1  0.71380000  0.49550000  0.61625000  1
  O  O150  1  0.70700000  0.93610000  0.28501000  1
  O  O151  1  0.70700000  0.43610000  0.21499000  1
  O  O152  1  0.69300000  0.78270000  0.84712000  1
  O  O153  1  0.69300000  0.28270000  0.65288000  1
  O  O154  1  0.66420000  0.18000000  0.28500000  1
  O  O155  1  0.66420000  0.68000000  0.21500000  1
  O  O156  1  0.64730000  0.35810000  0.30959000  1
  O  O157  1  0.64730000  0.85810000  0.19041000  1
  O  O158  1  0.63570000  0.10080000  0.49021000  1
  O  O159  1  0.63570000  0.60080000  0.00979000  1
  O  O160  1  0.56560000  0.87350000  0.49506000  1
  O  O161  1  0.56560000  0.37350000  0.00494000  1
  O  O162  1  0.53280000  0.01940000  0.84447000  1
  O  O163  1  0.53280000  0.51940000  0.65553000  1
  O  O164  1  0.52490000  0.81450000  0.79983000  1
  O  O165  1  0.52490000  0.31450000  0.70017000  1
  O  O166  1  0.47510000  0.68550000  0.29983000  1
  O  O167  1  0.47510000  0.18550000  0.20017000  1
  O  O168  1  0.46720000  0.48060000  0.34447000  1
  O  O169  1  0.46720000  0.98060000  0.15553000  1
  O  O170  1  0.43440000  0.62650000  0.99506000  1
  O  O171  1  0.43440000  0.12650000  0.50494000  1
  O  O172  1  0.36430000  0.39920000  0.99021000  1
  O  O173  1  0.36430000  0.89920000  0.50979000  1
  O  O174  1  0.35270000  0.14190000  0.80959000  1
  O  O175  1  0.35270000  0.64190000  0.69041000  1
  O  O176  1  0.33580000  0.32000000  0.78500000  1
  O  O177  1  0.33580000  0.82000000  0.71500000  1
  O  O178  1  0.30700000  0.71730000  0.34712000  1
  O  O179  1  0.30700000  0.21730000  0.15288000  1
  O  O180  1  0.29300000  0.56390000  0.78501000  1
  O  O181  1  0.29300000  0.06390000  0.71499000  1
  O  O182  1  0.28620000  0.50450000  0.38375000  1
  O  O183  1  0.28620000  0.00450000  0.11625000  1
  O  O184  1  0.27060000  0.93220000  0.87256000  1
  O  O185  1  0.27060000  0.43220000  0.62744000  1
  O  O186  1  0.26390000  0.74160000  0.80843000  1
  O  O187  1  0.26390000  0.24160000  0.69157000  1
  O  O188  1  0.15740000  0.02890000  0.44945000  1
  O  O189  1  0.15740000  0.52890000  0.05055000  1
  O  O190  1  0.13970000  0.82690000  0.41444000  1
  O  O191  1  0.13970000  0.32690000  0.08556000  1
  O  O192  1  0.13300000  0.94200000  0.78634000  1
  O  O193  1  0.13300000  0.44200000  0.71366000  1
  O  O194  1  0.08970000  0.87270000  0.91541000  1
  O  O195  1  0.08970000  0.37270000  0.58459000  1
  O  O196  1  0.07830000  0.14060000  0.99990000  1
  O  O197  1  0.07830000  0.64060000  0.50010000  1
  O  O198  1  0.06170000  0.44960000  0.44368000  1
  O  O199  1  0.06170000  0.94960000  0.05632000  1
  O  O200  1  0.05360000  0.57100000  0.91823000  1
  O  O201  1  0.05360000  0.07100000  0.58177000  1
  O  O202  1  0.04680000  0.59190000  0.33204000  1
  O  O203  1  0.04680000  0.09190000  0.16796000  1
