# generated using pymatgen
data_CuC2N
_symmetry_space_group_name_H-M   'P 1'
_cell_length_a   7.55770000
_cell_length_b   8.19530000
_cell_length_c   13.45930000
_cell_angle_alpha   90.00000000
_cell_angle_beta   90.00000000
_cell_angle_gamma   90.00000000
_symmetry_Int_Tables_number   1
_chemical_formula_structural   CuC2N
_chemical_formula_sum   'Cu8 C16 N8'
_cell_volume   833.63699285
_cell_formula_units_Z   8
loop_
 _symmetry_equiv_pos_site_id
 _symmetry_equiv_pos_as_xyz
  1  'x, y, z'
loop_
 _atom_site_type_symbol
 _atom_site_label
 _atom_site_symmetry_multiplicity
 _atom_site_fract_x
 _atom_site_fract_y
 _atom_site_fract_z
 _atom_site_occupancy
  Cu  Cu0  1  0.90243000  0.94366000  0.43470000  1
  Cu  Cu1  1  0.09757000  0.94366000  0.93470000  1
  Cu  Cu2  1  0.59757000  0.55634000  0.93470000  1
  Cu  Cu3  1  0.40243000  0.55634000  0.43470000  1
  Cu  Cu4  1  0.59757000  0.44366000  0.56530000  1
  Cu  Cu5  1  0.40243000  0.44366000  0.06530000  1
  Cu  Cu6  1  0.90243000  0.05634000  0.06530000  1
  Cu  Cu7  1  0.09757000  0.05634000  0.56530000  1
  C  C8  1  0.91830000  0.98500000  0.29150000  1
  C  C9  1  0.08170000  0.98500000  0.79150000  1
  C  C10  1  0.83320000  0.85810000  0.98400000  1
  C  C11  1  0.16680000  0.85810000  0.48400000  1
  C  C12  1  0.66680000  0.64190000  0.48400000  1
  C  C13  1  0.33320000  0.64190000  0.98400000  1
  C  C14  1  0.58170000  0.51500000  0.79150000  1
  C  C15  1  0.41830000  0.51500000  0.29150000  1
  C  C16  1  0.58170000  0.48500000  0.70850000  1
  C  C17  1  0.41830000  0.48500000  0.20850000  1
  C  C18  1  0.66680000  0.35810000  0.01600000  1
  C  C19  1  0.33320000  0.35810000  0.51600000  1
  C  C20  1  0.83320000  0.14190000  0.51600000  1
  C  C21  1  0.16680000  0.14190000  0.01600000  1
  C  C22  1  0.91830000  0.01500000  0.20850000  1
  C  C23  1  0.08170000  0.01500000  0.70850000  1
  N  N24  1  0.74680000  0.75140000  0.96190000  1
  N  N25  1  0.25320000  0.75140000  0.46190000  1
  N  N26  1  0.75320000  0.74860000  0.46190000  1
  N  N27  1  0.24680000  0.74860000  0.96190000  1
  N  N28  1  0.75320000  0.25140000  0.03810000  1
  N  N29  1  0.24680000  0.25140000  0.53810000  1
  N  N30  1  0.74680000  0.24860000  0.53810000  1
  N  N31  1  0.25320000  0.24860000  0.03810000  1
