# generated using pymatgen
data_Zn2H32C41(NO3)4
_symmetry_space_group_name_H-M   'P 1'
_cell_length_a   9.30460000
_cell_length_b   13.70290000
_cell_length_c   19.91110000
_cell_angle_alpha   86.57050000
_cell_angle_beta   79.85170000
_cell_angle_gamma   70.15290000
_symmetry_Int_Tables_number   1
_chemical_formula_structural   Zn2H32C41(NO3)4
_chemical_formula_sum   'Zn4 H64 C82 N8 O24'
_cell_volume   2350.51536229
_cell_formula_units_Z   2
loop_
 _symmetry_equiv_pos_site_id
 _symmetry_equiv_pos_as_xyz
  1  'x, y, z'
loop_
 _atom_site_type_symbol
 _atom_site_label
 _atom_site_symmetry_multiplicity
 _atom_site_fract_x
 _atom_site_fract_y
 _atom_site_fract_z
 _atom_site_occupancy
  Zn  Zn0  1  0.16168000  0.74166000  0.48807000  1
  Zn  Zn1  1  0.40334000  0.25834000  0.98807000  1
  Zn  Zn2  1  0.59666000  0.74166000  0.01193000  1
  Zn  Zn3  1  0.83832000  0.25834000  0.51193000  1
  H  H4  1  0.01950000  0.85440000  0.94100000  1
  H  H5  1  0.03440000  0.51440000  0.69330000  1
  H  H6  1  0.04500000  0.92580000  0.62630000  1
  H  H7  1  0.04880000  0.48560000  0.19330000  1
  H  H8  1  0.10840000  0.11480000  0.85460000  1
  H  H9  1  0.11240000  0.17500000  0.30670000  1
  H  H10  1  0.11470000  0.94760000  0.42960000  1
  H  H11  1  0.11800000  0.55720000  0.42910000  1
  H  H12  1  0.11970000  0.23600000  0.58300000  1
  H  H13  1  0.13230000  0.88260000  0.74270000  1
  H  H14  1  0.14430000  0.23600000  0.91700000  1
  H  H15  1  0.17230000  0.58860000  0.86870000  1
  H  H16  1  0.17520000  0.44280000  0.92910000  1
  H  H17  1  0.20340000  0.99180000  0.05420000  1
  H  H18  1  0.21260000  0.17500000  0.19330000  1
  H  H19  1  0.21350000  0.81280000  0.67760000  1
  H  H20  1  0.21420000  0.76240000  0.83660000  1
  H  H21  1  0.23730000  0.68520000  0.77680000  1
  H  H22  1  0.26090000  0.41140000  0.36870000  1
  H  H23  1  0.27680000  0.11480000  0.64540000  1
  H  H24  1  0.30480000  0.99180000  0.44580000  1
  H  H25  1  0.36310000  0.51380000  0.62590000  1
  H  H26  1  0.37390000  0.14560000  0.44100000  1
  H  H27  1  0.37690000  0.48620000  0.12590000  1
  H  H28  1  0.38710000  0.63200000  0.06670000  1
  H  H29  1  0.42250000  0.31480000  0.27680000  1
  H  H30  1  0.43770000  0.94760000  0.07040000  1
  H  H31  1  0.47080000  0.07420000  0.12630000  1
  H  H32  1  0.47370000  0.81280000  0.82240000  1
  H  H33  1  0.47660000  0.23760000  0.33660000  1
  H  H34  1  0.48090000  0.63200000  0.43330000  1
  H  H35  1  0.48510000  0.88260000  0.75730000  1
  H  H36  1  0.51490000  0.11740000  0.24270000  1
  H  H37  1  0.51910000  0.36800000  0.56670000  1
  H  H38  1  0.52340000  0.76240000  0.66340000  1
  H  H39  1  0.52630000  0.18720000  0.17760000  1
  H  H40  1  0.52920000  0.92580000  0.87370000  1
  H  H41  1  0.56230000  0.05240000  0.92960000  1
  H  H42  1  0.57750000  0.68520000  0.72320000  1
  H  H43  1  0.61290000  0.36800000  0.93330000  1
  H  H44  1  0.62310000  0.51380000  0.87410000  1
  H  H45  1  0.62610000  0.85440000  0.55900000  1
  H  H46  1  0.63690000  0.48620000  0.37410000  1
  H  H47  1  0.69520000  0.00820000  0.55420000  1
  H  H48  1  0.72320000  0.88520000  0.35460000  1
  H  H49  1  0.73910000  0.58860000  0.63130000  1
  H  H50  1  0.76270000  0.31480000  0.22320000  1
  H  H51  1  0.78580000  0.23760000  0.16340000  1
  H  H52  1  0.78650000  0.18720000  0.32240000  1
  H  H53  1  0.78740000  0.82500000  0.80670000  1
  H  H54  1  0.79660000  0.00820000  0.94580000  1
  H  H55  1  0.82480000  0.55720000  0.07090000  1
  H  H56  1  0.82770000  0.41140000  0.13130000  1
  H  H57  1  0.85570000  0.76400000  0.08300000  1
  H  H58  1  0.86770000  0.11740000  0.25730000  1
  H  H59  1  0.88030000  0.76400000  0.41700000  1
  H  H60  1  0.88200000  0.44280000  0.57090000  1
  H  H61  1  0.88530000  0.05240000  0.57040000  1
  H  H62  1  0.88760000  0.82500000  0.69330000  1
  H  H63  1  0.89160000  0.88520000  0.14540000  1
  H  H64  1  0.95120000  0.51440000  0.80670000  1
  H  H65  1  0.95500000  0.07420000  0.37370000  1
  H  H66  1  0.96560000  0.48560000  0.30670000  1
  H  H67  1  0.98050000  0.14560000  0.05900000  1
  C  C68  1  0.01220000  0.91240000  0.96520000  1
  C  C69  1  0.01300000  0.42280000  0.28360000  1
  C  C70  1  0.02920000  0.33060000  0.31950000  1
  C  C71  1  0.03290000  0.93500000  0.41510000  1
  C  C72  1  0.03510000  0.66740000  0.60510000  1
  C  C73  1  0.06050000  0.98940000  0.61930000  1
  C  C74  1  0.06420000  0.42280000  0.21640000  1
  C  C75  1  0.10200000  0.17360000  0.59270000  1
  C  C76  1  0.10240000  0.23780000  0.28400000  1
  C  C77  1  0.12110000  0.99800000  0.03190000  1
  C  C78  1  0.12930000  0.91080000  0.99750000  1
  C  C79  1  0.14020000  0.33060000  0.18050000  1
  C  C80  1  0.15980000  0.23780000  0.21600000  1
  C  C81  1  0.17700000  0.00640000  0.64380000  1
  C  C82  1  0.19760000  0.10060000  0.62970000  1
  C  C83  1  0.20180000  0.10060000  0.87030000  1
  C  C84  1  0.20250000  0.33260000  0.10510000  1
  C  C85  1  0.22430000  0.54300000  0.41730000  1
  C  C86  1  0.22440000  0.17360000  0.90730000  1
  C  C87  1  0.22906000  0.85468000  0.71140000  1
  C  C88  1  0.26400000  0.54440000  0.88130000  1
  C  C89  1  0.26730000  0.45700000  0.91730000  1
  C  C90  1  0.26880000  0.81500000  0.99340000  1
  C  C91  1  0.28863000  0.72094000  0.79980000  1
  C  C92  1  0.30840000  0.45560000  0.38130000  1
  C  C93  1  0.31660000  0.00640000  0.85620000  1
  C  C94  1  0.35550000  0.78900000  0.75000000  1
  C  C95  1  0.38090000  0.99800000  0.46810000  1
  C  C96  1  0.40010000  0.56660000  0.86360000  1
  C  C97  1  0.41620000  0.81500000  0.50660000  1
  C  C98  1  0.41626000  0.85468000  0.78860000  1
  C  C99  1  0.42460000  0.08760000  0.46520000  1
  C  C100  1  0.43590000  0.58680000  0.42000000  1
  C  C101  1  0.45010000  0.98940000  0.88070000  1
  C  C102  1  0.45990000  0.91080000  0.50250000  1
  C  C103  1  0.46670000  0.43340000  0.36360000  1
  C  C104  1  0.46790000  0.06500000  0.91510000  1
  C  C105  1  0.46950000  0.50040000  0.61580000  1
  C  C106  1  0.46990000  0.49960000  0.11580000  1
  C  C107  1  0.47730000  0.58680000  0.08000000  1
  C  C108  1  0.49043000  0.72094000  0.70020000  1
  C  C109  1  0.50957000  0.27906000  0.29980000  1
  C  C110  1  0.52270000  0.41320000  0.92000000  1
  C  C111  1  0.53010000  0.50040000  0.88420000  1
  C  C112  1  0.53050000  0.49960000  0.38420000  1
  C  C113  1  0.53210000  0.93500000  0.08490000  1
  C  C114  1  0.53330000  0.56660000  0.63640000  1
  C  C115  1  0.54010000  0.08920000  0.49750000  1
  C  C116  1  0.54990000  0.01060000  0.11930000  1
  C  C117  1  0.56410000  0.41320000  0.58000000  1
  C  C118  1  0.57540000  0.91240000  0.53480000  1
  C  C119  1  0.58374000  0.14532000  0.21140000  1
  C  C120  1  0.58380000  0.18500000  0.49340000  1
  C  C121  1  0.59990000  0.43340000  0.13640000  1
  C  C122  1  0.61910000  0.00200000  0.53190000  1
  C  C123  1  0.64450000  0.21100000  0.25000000  1
  C  C124  1  0.68340000  0.99360000  0.14380000  1
  C  C125  1  0.69160000  0.54440000  0.61870000  1
  C  C126  1  0.71137000  0.27906000  0.20020000  1
  C  C127  1  0.73120000  0.18500000  0.00660000  1
  C  C128  1  0.73270000  0.54300000  0.08270000  1
  C  C129  1  0.73600000  0.45560000  0.11870000  1
  C  C130  1  0.77094000  0.14532000  0.28860000  1
  C  C131  1  0.77560000  0.82640000  0.09270000  1
  C  C132  1  0.77570000  0.45700000  0.58270000  1
  C  C133  1  0.79750000  0.66740000  0.89490000  1
  C  C134  1  0.79820000  0.89940000  0.12970000  1
  C  C135  1  0.80240000  0.89940000  0.37030000  1
  C  C136  1  0.82300000  0.99360000  0.35620000  1
  C  C137  1  0.84020000  0.76220000  0.78400000  1
  C  C138  1  0.85980000  0.66940000  0.81950000  1
  C  C139  1  0.87070000  0.08920000  0.00250000  1
  C  C140  1  0.87890000  0.00200000  0.96810000  1
  C  C141  1  0.89760000  0.76220000  0.71600000  1
  C  C142  1  0.89800000  0.82640000  0.40730000  1
  C  C143  1  0.93580000  0.57720000  0.78360000  1
  C  C144  1  0.93950000  0.01060000  0.38070000  1
  C  C145  1  0.96490000  0.33260000  0.39490000  1
  C  C146  1  0.96710000  0.06500000  0.58490000  1
  C  C147  1  0.97080000  0.66940000  0.68050000  1
  C  C148  1  0.98700000  0.57720000  0.71640000  1
  C  C149  1  0.98780000  0.08760000  0.03480000  1
  N  N150  1  0.01474000  0.84132000  0.42990000  1
  N  N151  1  0.28436000  0.61008000  0.43690000  1
  N  N152  1  0.35606000  0.15868000  0.92990000  1
  N  N153  1  0.39444000  0.38992000  0.93690000  1
  N  N154  1  0.60556000  0.61008000  0.06310000  1
  N  N155  1  0.64394000  0.84132000  0.07010000  1
  N  N156  1  0.71564000  0.38992000  0.56310000  1
  N  N157  1  0.98526000  0.15868000  0.57010000  1
  O  O158  1  0.05435000  0.75010000  0.58060000  1
  O  O159  1  0.06310000  0.58900000  0.57190000  1
  O  O160  1  0.15210000  0.41100000  0.07190000  1
  O  O161  1  0.26898000  0.73404000  0.97150000  1
  O  O162  1  0.27554000  0.93692000  0.67890000  1
  O  O163  1  0.28754000  0.93692000  0.82110000  1
  O  O164  1  0.29581000  0.82658000  0.48300000  1
  O  O165  1  0.30445000  0.24990000  0.08060000  1
  O  O166  1  0.37761000  0.82658000  0.01700000  1
  O  O167  1  0.41809000  0.64802000  0.82580000  1
  O  O168  1  0.43389000  0.64802000  0.67420000  1
  O  O169  1  0.49698000  0.73404000  0.52850000  1
  O  O170  1  0.50302000  0.26596000  0.47150000  1
  O  O171  1  0.56611000  0.35198000  0.32580000  1
  O  O172  1  0.58191000  0.35198000  0.17420000  1
  O  O173  1  0.62239000  0.17342000  0.98300000  1
  O  O174  1  0.69555000  0.75010000  0.91940000  1
  O  O175  1  0.70419000  0.17342000  0.51700000  1
  O  O176  1  0.71246000  0.06308000  0.17890000  1
  O  O177  1  0.72446000  0.06308000  0.32110000  1
  O  O178  1  0.73102000  0.26596000  0.02850000  1
  O  O179  1  0.84790000  0.58900000  0.92810000  1
  O  O180  1  0.93690000  0.41100000  0.42810000  1
  O  O181  1  0.94565000  0.24990000  0.41940000  1
