# generated using pymatgen
data_Ba3P4H8C4(NO6)2
_symmetry_space_group_name_H-M   'P 1'
_cell_length_a   7.18620000
_cell_length_b   13.48360000
_cell_length_c   13.48360000
_cell_angle_alpha   60.56900000
_cell_angle_beta   82.46710000
_cell_angle_gamma   82.46710000
_symmetry_Int_Tables_number   1
_chemical_formula_structural   Ba3P4H8C4(NO6)2
_chemical_formula_sum   'Ba6 P8 H16 C8 N4 O24'
_cell_volume   1124.70874897
_cell_formula_units_Z   2
loop_
 _symmetry_equiv_pos_site_id
 _symmetry_equiv_pos_as_xyz
  1  'x, y, z'
loop_
 _atom_site_type_symbol
 _atom_site_label
 _atom_site_symmetry_multiplicity
 _atom_site_fract_x
 _atom_site_fract_y
 _atom_site_fract_z
 _atom_site_occupancy
  Ba  Ba0  1  0.89041000  0.66819000  0.84871000  1
  Ba  Ba1  1  0.75000000  0.89938000  0.10062000  1
  Ba  Ba2  1  0.60959000  0.15129000  0.33181000  1
  Ba  Ba3  1  0.39041000  0.84871000  0.66819000  1
  Ba  Ba4  1  0.25000000  0.10062000  0.89938000  1
  Ba  Ba5  1  0.10959000  0.33181000  0.15129000  1
  P  P6  1  0.89795000  0.19722000  0.03416000  1
  P  P7  1  0.85466000  0.85432000  0.56022000  1
  P  P8  1  0.64534000  0.43978000  0.14568000  1
  P  P9  1  0.60205000  0.96584000  0.80278000  1
  P  P10  1  0.39795000  0.03416000  0.19722000  1
  P  P11  1  0.35466000  0.56022000  0.85432000  1
  P  P12  1  0.14534000  0.14568000  0.43978000  1
  P  P13  1  0.10205000  0.80278000  0.96584000  1
  H  H14  1  0.97300000  0.21000000  0.55800000  1
  H  H15  1  0.89900000  0.01400000  0.79200000  1
  H  H16  1  0.87800000  0.87600000  0.39400000  1
  H  H17  1  0.77000000  0.12600000  0.72800000  1
  H  H18  1  0.73000000  0.27200000  0.87400000  1
  H  H19  1  0.62200000  0.60600000  0.12400000  1
  H  H20  1  0.60100000  0.20800000  0.98600000  1
  H  H21  1  0.52700000  0.44200000  0.79000000  1
  H  H22  1  0.47300000  0.55800000  0.21000000  1
  H  H23  1  0.39900000  0.79200000  0.01400000  1
  H  H24  1  0.37800000  0.39400000  0.87600000  1
  H  H25  1  0.27000000  0.72800000  0.12600000  1
  H  H26  1  0.23000000  0.87400000  0.27200000  1
  H  H27  1  0.12200000  0.12400000  0.60600000  1
  H  H28  1  0.10100000  0.98600000  0.20800000  1
  H  H29  1  0.02700000  0.79000000  0.44200000  1
  C  C30  1  0.96880000  0.85580000  0.43080000  1
  C  C31  1  0.80750000  0.04885000  0.73885000  1
  C  C32  1  0.69250000  0.26115000  0.95115000  1
  C  C33  1  0.53120000  0.56920000  0.14420000  1
  C  C34  1  0.46880000  0.43080000  0.85580000  1
  C  C35  1  0.30750000  0.73885000  0.04885000  1
  C  C36  1  0.19250000  0.95115000  0.26115000  1
  C  C37  1  0.03120000  0.14420000  0.56920000  1
  N  N38  1  0.89000000  0.05732000  0.62832000  1
  N  N39  1  0.61000000  0.37168000  0.94268000  1
  N  N40  1  0.39000000  0.62832000  0.05732000  1
  N  N41  1  0.11000000  0.94268000  0.37168000  1
  O  O42  1  0.99000000  0.14009000  0.37629000  1
  O  O43  1  0.93690000  0.73059000  0.03399000  1
  O  O44  1  0.92910000  0.08152000  0.03852000  1
  O  O45  1  0.85250000  0.19305000  0.14845000  1
  O  O46  1  0.79010000  0.47637000  0.04397000  1
  O  O47  1  0.76180000  0.74143000  0.62743000  1
  O  O48  1  0.73820000  0.37257000  0.25857000  1
  O  O49  1  0.70990000  0.95603000  0.52363000  1
  O  O50  1  0.64750000  0.85155000  0.80695000  1
  O  O51  1  0.57090000  0.96148000  0.91848000  1
  O  O52  1  0.56310000  0.96601000  0.26941000  1
  O  O53  1  0.51000000  0.62371000  0.85991000  1
  O  O54  1  0.49000000  0.37629000  0.14009000  1
  O  O55  1  0.43690000  0.03399000  0.73059000  1
  O  O56  1  0.42910000  0.03852000  0.08152000  1
  O  O57  1  0.35250000  0.14845000  0.19305000  1
  O  O58  1  0.29010000  0.04397000  0.47637000  1
  O  O59  1  0.26180000  0.62743000  0.74143000  1
  O  O60  1  0.23820000  0.25857000  0.37257000  1
  O  O61  1  0.20990000  0.52363000  0.95603000  1
  O  O62  1  0.14750000  0.80695000  0.85155000  1
  O  O63  1  0.07090000  0.91848000  0.96148000  1
  O  O64  1  0.06310000  0.26941000  0.96601000  1
  O  O65  1  0.01000000  0.85991000  0.62371000  1
