# generated using pymatgen
data_Co9H72C108(N9O20)2
_symmetry_space_group_name_H-M   'P 1'
_cell_length_a   12.65300000
_cell_length_b   25.49700000
_cell_length_c   28.55100000
_cell_angle_alpha   90.00000000
_cell_angle_beta   90.94500000
_cell_angle_gamma   90.00000000
_symmetry_Int_Tables_number   1
_chemical_formula_structural   Co9H72C108(N9O20)2
_chemical_formula_sum   'Co18 H144 C216 N36 O80'
_cell_volume   9209.68640712
_cell_formula_units_Z   2
loop_
 _symmetry_equiv_pos_site_id
 _symmetry_equiv_pos_as_xyz
  1  'x, y, z'
loop_
 _atom_site_type_symbol
 _atom_site_label
 _atom_site_symmetry_multiplicity
 _atom_site_fract_x
 _atom_site_fract_y
 _atom_site_fract_z
 _atom_site_occupancy
  Co  Co0  1  0.10457000  0.25101000  0.52427000  1
  Co  Co1  1  0.11313000  0.24935000  0.96762000  1
  Co  Co2  1  0.24478000  0.00185000  0.31303000  1
  Co  Co3  1  0.24573000  0.49964000  0.18707000  1
  Co  Co4  1  0.25000000  0.74901000  0.75000000  1
  Co  Co5  1  0.25427000  0.49964000  0.31293000  1
  Co  Co6  1  0.25522000  0.00185000  0.18697000  1
  Co  Co7  1  0.38687000  0.24935000  0.53238000  1
  Co  Co8  1  0.39543000  0.25101000  0.97573000  1
  Co  Co9  1  0.60457000  0.74899000  0.02427000  1
  Co  Co10  1  0.61313000  0.75065000  0.46762000  1
  Co  Co11  1  0.74478000  0.99815000  0.81303000  1
  Co  Co12  1  0.74573000  0.50036000  0.68707000  1
  Co  Co13  1  0.75000000  0.25099000  0.25000000  1
  Co  Co14  1  0.75427000  0.50036000  0.81293000  1
  Co  Co15  1  0.75522000  0.99815000  0.68697000  1
  Co  Co16  1  0.88687000  0.75065000  0.03238000  1
  Co  Co17  1  0.89543000  0.74899000  0.47573000  1
  H  H18  1  0.00280000  0.14380000  0.96650000  1
  H  H19  1  0.01090000  0.68320000  0.31600000  1
  H  H20  1  0.01480000  0.17300000  0.80760000  1
  H  H21  1  0.01800000  0.95560000  0.29670000  1
  H  H22  1  0.01930000  0.64450000  0.47350000  1
  H  H23  1  0.02120000  0.54670000  0.21360000  1
  H  H24  1  0.04110000  0.90460000  0.68620000  1
  H  H25  1  0.04470000  0.13490000  0.18290000  1
  H  H26  1  0.04590000  0.59150000  0.68510000  1
  H  H27  1  0.04930000  0.73990000  0.64030000  1
  H  H28  1  0.05130000  0.36470000  0.18620000  1
  H  H29  1  0.06150000  0.26120000  0.62890000  1
  H  H30  1  0.06170000  0.61460000  0.06520000  1
  H  H31  1  0.07220000  0.70200000  0.81280000  1
  H  H32  1  0.07280000  0.91860000  0.08250000  1
  H  H33  1  0.07690000  0.26000000  0.41970000  1
  H  H34  1  0.07730000  0.79840000  0.81540000  1
  H  H35  1  0.08470000  0.11730000  0.06330000  1
  H  H36  1  0.08730000  0.37690000  0.06550000  1
  H  H37  1  0.08990000  0.44290000  0.12050000  1
  H  H38  1  0.09030000  0.23060000  0.86170000  1
  H  H39  1  0.09280000  0.05920000  0.37820000  1
  H  H40  1  0.09440000  0.38380000  0.43610000  1
  H  H41  1  0.09630000  0.05020000  0.11800000  1
  H  H42  1  0.09650000  0.12710000  0.43180000  1
  H  H43  1  0.09930000  0.10400000  0.67080000  1
  H  H44  1  0.09940000  0.44980000  0.38140000  1
  H  H45  1  0.10120000  0.58690000  0.42240000  1
  H  H46  1  0.10230000  0.39380000  0.81610000  1
  H  H47  1  0.10730000  0.87570000  0.43680000  1
  H  H48  1  0.14160000  0.75720000  0.48440000  1
  H  H49  1  0.16450000  0.83940000  0.68880000  1
  H  H50  1  0.17000000  0.65730000  0.68840000  1
  H  H51  1  0.17780000  0.55270000  0.09620000  1
  H  H52  1  0.21620000  0.93740000  0.40270000  1
  H  H53  1  0.22570000  0.75930000  0.95800000  1
  H  H54  1  0.27430000  0.75930000  0.54200000  1
  H  H55  1  0.28380000  0.93740000  0.09730000  1
  H  H56  1  0.32220000  0.55270000  0.40380000  1
  H  H57  1  0.33000000  0.65730000  0.81160000  1
  H  H58  1  0.33550000  0.83940000  0.81120000  1
  H  H59  1  0.35840000  0.75720000  0.01560000  1
  H  H60  1  0.39270000  0.87570000  0.06320000  1
  H  H61  1  0.39770000  0.39380000  0.68390000  1
  H  H62  1  0.39880000  0.58690000  0.07760000  1
  H  H63  1  0.40060000  0.44980000  0.11860000  1
  H  H64  1  0.40070000  0.10400000  0.82920000  1
  H  H65  1  0.40350000  0.12710000  0.06820000  1
  H  H66  1  0.40370000  0.05020000  0.38200000  1
  H  H67  1  0.40560000  0.38380000  0.06390000  1
  H  H68  1  0.40720000  0.05920000  0.12180000  1
  H  H69  1  0.40970000  0.23060000  0.63830000  1
  H  H70  1  0.41010000  0.44290000  0.37950000  1
  H  H71  1  0.41270000  0.37690000  0.43450000  1
  H  H72  1  0.41530000  0.11730000  0.43670000  1
  H  H73  1  0.42270000  0.79840000  0.68460000  1
  H  H74  1  0.42310000  0.26000000  0.08030000  1
  H  H75  1  0.42720000  0.91860000  0.41750000  1
  H  H76  1  0.42780000  0.70200000  0.68720000  1
  H  H77  1  0.43830000  0.61460000  0.43480000  1
  H  H78  1  0.43850000  0.26120000  0.87110000  1
  H  H79  1  0.44870000  0.36470000  0.31380000  1
  H  H80  1  0.45070000  0.73990000  0.85970000  1
  H  H81  1  0.45410000  0.59150000  0.81490000  1
  H  H82  1  0.45530000  0.13490000  0.31710000  1
  H  H83  1  0.45890000  0.90460000  0.81380000  1
  H  H84  1  0.47880000  0.54670000  0.28640000  1
  H  H85  1  0.48070000  0.64450000  0.02650000  1
  H  H86  1  0.48200000  0.95560000  0.20330000  1
  H  H87  1  0.48520000  0.17300000  0.69240000  1
  H  H88  1  0.48910000  0.68320000  0.18400000  1
  H  H89  1  0.49720000  0.14380000  0.53350000  1
  H  H90  1  0.50280000  0.85620000  0.46650000  1
  H  H91  1  0.51090000  0.31680000  0.81600000  1
  H  H92  1  0.51480000  0.82700000  0.30760000  1
  H  H93  1  0.51800000  0.04440000  0.79670000  1
  H  H94  1  0.51930000  0.35550000  0.97350000  1
  H  H95  1  0.52120000  0.45330000  0.71360000  1
  H  H96  1  0.54110000  0.09540000  0.18620000  1
  H  H97  1  0.54470000  0.86510000  0.68290000  1
  H  H98  1  0.54590000  0.40850000  0.18510000  1
  H  H99  1  0.54930000  0.26010000  0.14030000  1
  H  H100  1  0.55130000  0.63530000  0.68620000  1
  H  H101  1  0.56150000  0.73880000  0.12890000  1
  H  H102  1  0.56170000  0.38540000  0.56520000  1
  H  H103  1  0.57220000  0.29800000  0.31280000  1
  H  H104  1  0.57280000  0.08140000  0.58250000  1
  H  H105  1  0.57690000  0.74000000  0.91970000  1
  H  H106  1  0.57730000  0.20160000  0.31540000  1
  H  H107  1  0.58470000  0.88270000  0.56330000  1
  H  H108  1  0.58730000  0.62310000  0.56550000  1
  H  H109  1  0.58990000  0.55710000  0.62050000  1
  H  H110  1  0.59030000  0.76940000  0.36170000  1
  H  H111  1  0.59280000  0.94080000  0.87820000  1
  H  H112  1  0.59440000  0.61620000  0.93610000  1
  H  H113  1  0.59630000  0.94980000  0.61800000  1
  H  H114  1  0.59650000  0.87290000  0.93180000  1
  H  H115  1  0.59930000  0.89600000  0.17080000  1
  H  H116  1  0.59940000  0.55020000  0.88140000  1
  H  H117  1  0.60120000  0.41310000  0.92240000  1
  H  H118  1  0.60230000  0.60620000  0.31610000  1
  H  H119  1  0.60730000  0.12430000  0.93680000  1
  H  H120  1  0.64160000  0.24280000  0.98440000  1
  H  H121  1  0.66450000  0.16060000  0.18880000  1
  H  H122  1  0.67000000  0.34270000  0.18840000  1
  H  H123  1  0.67780000  0.44730000  0.59620000  1
  H  H124  1  0.71620000  0.06260000  0.90270000  1
  H  H125  1  0.72570000  0.24070000  0.45800000  1
  H  H126  1  0.77430000  0.24070000  0.04200000  1
  H  H127  1  0.78380000  0.06260000  0.59730000  1
  H  H128  1  0.82220000  0.44730000  0.90380000  1
  H  H129  1  0.83000000  0.34270000  0.31160000  1
  H  H130  1  0.83550000  0.16060000  0.31120000  1
  H  H131  1  0.85840000  0.24280000  0.51560000  1
  H  H132  1  0.89270000  0.12430000  0.56320000  1
  H  H133  1  0.89770000  0.60620000  0.18390000  1
  H  H134  1  0.89880000  0.41310000  0.57760000  1
  H  H135  1  0.90060000  0.55020000  0.61860000  1
  H  H136  1  0.90070000  0.89600000  0.32920000  1
  H  H137  1  0.90350000  0.87290000  0.56820000  1
  H  H138  1  0.90370000  0.94980000  0.88200000  1
  H  H139  1  0.90560000  0.61620000  0.56390000  1
  H  H140  1  0.90720000  0.94080000  0.62180000  1
  H  H141  1  0.90970000  0.76940000  0.13830000  1
  H  H142  1  0.91010000  0.55710000  0.87950000  1
  H  H143  1  0.91270000  0.62310000  0.93450000  1
  H  H144  1  0.91530000  0.88270000  0.93670000  1
  H  H145  1  0.92270000  0.20160000  0.18460000  1
  H  H146  1  0.92310000  0.74000000  0.58030000  1
  H  H147  1  0.92720000  0.08140000  0.91750000  1
  H  H148  1  0.92780000  0.29800000  0.18720000  1
  H  H149  1  0.93830000  0.38540000  0.93480000  1
  H  H150  1  0.93850000  0.73880000  0.37110000  1
  H  H151  1  0.94870000  0.63530000  0.81380000  1
  H  H152  1  0.95070000  0.26010000  0.35970000  1
  H  H153  1  0.95410000  0.40850000  0.31490000  1
  H  H154  1  0.95530000  0.86510000  0.81710000  1
  H  H155  1  0.95890000  0.09540000  0.31380000  1
  H  H156  1  0.97880000  0.45330000  0.78640000  1
  H  H157  1  0.98070000  0.35550000  0.52650000  1
  H  H158  1  0.98200000  0.04440000  0.70330000  1
  H  H159  1  0.98520000  0.82700000  0.19240000  1
  H  H160  1  0.98910000  0.31680000  0.68400000  1
  H  H161  1  0.99720000  0.85620000  0.03350000  1
  C  C162  1  0.00380000  0.14012000  0.21015000  1
  C  C163  1  0.00430000  0.25653000  0.42712000  1
  C  C164  1  0.00480000  0.14960000  0.93370000  1
  C  C165  1  0.00760000  0.12117000  0.61357000  1
  C  C166  1  0.00760000  0.36044000  0.21270000  1
  C  C167  1  0.01100000  0.16610000  0.84020000  1
  C  C168  1  0.01360000  0.67440000  0.34840000  1
  C  C169  1  0.01810000  0.65290000  0.44110000  1
  C  C170  1  0.01830000  0.10777000  0.24895000  1
  C  C171  1  0.01890000  0.39375000  0.25058000  1
  C  C172  1  0.02940000  0.29280000  0.61840000  1
  C  C173  1  0.02970000  0.38150000  0.87756000  1
  C  C174  1  0.03130000  0.56100000  0.18330000  1
  C  C175  1  0.03380000  0.09680000  0.65546000  1
  C  C176  1  0.03740000  0.93859000  0.32517000  1
  C  C177  1  0.03950000  0.87880000  0.14330000  1
  C  C178  1  0.04130000  0.88800000  0.09500000  1
  C  C179  1  0.04290000  0.40310000  0.83420000  1
  C  C180  1  0.04720000  0.88320000  0.71338000  1
  C  C181  1  0.05020000  0.61369000  0.71179000  1
  C  C182  1  0.05230000  0.60160000  0.09610000  1
  C  C183  1  0.05520000  0.20020000  0.87290000  1
  C  C184  1  0.06110000  0.62800000  0.36390000  1
  C  C185  1  0.06620000  0.61730000  0.41083000  1
  C  C186  1  0.06710000  0.67898000  0.78664000  1
  C  C187  1  0.06980000  0.82041000  0.78874000  1
  C  C188  1  0.07000000  0.74361000  0.60860000  1
  C  C189  1  0.07880000  0.16188000  0.59309000  1
  C  C190  1  0.08710000  0.89150000  0.40784000  1
  C  C191  1  0.09480000  0.91550000  0.17640000  1
  C  C192  1  0.09950000  0.33820000  0.89600000  1
  C  C193  1  0.09990000  0.06535000  0.24935000  1
  C  C194  1  0.10060000  0.43688000  0.25189000  1
  C  C195  1  0.11040000  0.59190000  0.32904000  1
  C  C196  1  0.11990000  0.84400000  0.71494000  1
  C  C197  1  0.12230000  0.56490000  0.11540000  1
  C  C198  1  0.12300000  0.75378000  0.51640000  1
  C  C199  1  0.12350000  0.65312000  0.71395000  1
  C  C200  1  0.15170000  0.10634000  0.07524000  1
  C  C201  1  0.15280000  0.39101000  0.07633000  1
  C  C202  1  0.15290000  0.92770000  0.38660000  1
  C  C203  1  0.15510000  0.43025000  0.10897000  1
  C  C204  1  0.15910000  0.07141000  0.38988000  1
  C  C205  1  0.15950000  0.06628000  0.10764000  1
  C  C206  1  0.16050000  0.39522000  0.42457000  1
  C  C207  1  0.16100000  0.11190000  0.42195000  1
  C  C208  1  0.16400000  0.43442000  0.39196000  1
  C  C209  1  0.17740000  0.74930000  0.59750000  1
  C  C210  1  0.20270000  0.75480000  0.55070000  1
  C  C211  1  0.23710000  0.74903000  0.86440000  1
  C  C212  1  0.24070000  0.17635000  0.02713000  1
  C  C213  1  0.24510000  0.13044000  0.06031000  1
  C  C214  1  0.24720000  0.37223000  0.05931000  1
  C  C215  1  0.24910000  0.32668000  0.02511000  1
  C  C216  1  0.25090000  0.32668000  0.47489000  1
  C  C217  1  0.25280000  0.37223000  0.44069000  1
  C  C218  1  0.25490000  0.13044000  0.43969000  1
  C  C219  1  0.25930000  0.17635000  0.47287000  1
  C  C220  1  0.26290000  0.74903000  0.63560000  1
  C  C221  1  0.29730000  0.75480000  0.94930000  1
  C  C222  1  0.32260000  0.74930000  0.90250000  1
  C  C223  1  0.33600000  0.43442000  0.10804000  1
  C  C224  1  0.33900000  0.11190000  0.07805000  1
  C  C225  1  0.33950000  0.39522000  0.07543000  1
  C  C226  1  0.34050000  0.06628000  0.39236000  1
  C  C227  1  0.34090000  0.07141000  0.11012000  1
  C  C228  1  0.34490000  0.43025000  0.39103000  1
  C  C229  1  0.34710000  0.92770000  0.11340000  1
  C  C230  1  0.34720000  0.39101000  0.42367000  1
  C  C231  1  0.34830000  0.10634000  0.42476000  1
  C  C232  1  0.37650000  0.65312000  0.78605000  1
  C  C233  1  0.37700000  0.75378000  0.98360000  1
  C  C234  1  0.37770000  0.56490000  0.38460000  1
  C  C235  1  0.38010000  0.84400000  0.78506000  1
  C  C236  1  0.38960000  0.59190000  0.17096000  1
  C  C237  1  0.39940000  0.43688000  0.24811000  1
  C  C238  1  0.40010000  0.06535000  0.25065000  1
  C  C239  1  0.40050000  0.33820000  0.60400000  1
  C  C240  1  0.40520000  0.91550000  0.32360000  1
  C  C241  1  0.41290000  0.89150000  0.09216000  1
  C  C242  1  0.42120000  0.16188000  0.90691000  1
  C  C243  1  0.43000000  0.74361000  0.89140000  1
  C  C244  1  0.43020000  0.82041000  0.71126000  1
  C  C245  1  0.43290000  0.67898000  0.71336000  1
  C  C246  1  0.43380000  0.61730000  0.08917000  1
  C  C247  1  0.43890000  0.62800000  0.13610000  1
  C  C248  1  0.44480000  0.20020000  0.62710000  1
  C  C249  1  0.44770000  0.60160000  0.40390000  1
  C  C250  1  0.44980000  0.61369000  0.78821000  1
  C  C251  1  0.45280000  0.88320000  0.78662000  1
  C  C252  1  0.45710000  0.40310000  0.66580000  1
  C  C253  1  0.45870000  0.88800000  0.40500000  1
  C  C254  1  0.46050000  0.87880000  0.35670000  1
  C  C255  1  0.46260000  0.93859000  0.17483000  1
  C  C256  1  0.46620000  0.09680000  0.84454000  1
  C  C257  1  0.46870000  0.56100000  0.31670000  1
  C  C258  1  0.47030000  0.38150000  0.62244000  1
  C  C259  1  0.47060000  0.29280000  0.88160000  1
  C  C260  1  0.48110000  0.39375000  0.24942000  1
  C  C261  1  0.48170000  0.10777000  0.25105000  1
  C  C262  1  0.48190000  0.65290000  0.05890000  1
  C  C263  1  0.48640000  0.67440000  0.15160000  1
  C  C264  1  0.48900000  0.16610000  0.65980000  1
  C  C265  1  0.49240000  0.12117000  0.88643000  1
  C  C266  1  0.49240000  0.36044000  0.28730000  1
  C  C267  1  0.49520000  0.14960000  0.56630000  1
  C  C268  1  0.49570000  0.25653000  0.07288000  1
  C  C269  1  0.49620000  0.14012000  0.28985000  1
  C  C270  1  0.50380000  0.85988000  0.71015000  1
  C  C271  1  0.50430000  0.74347000  0.92712000  1
  C  C272  1  0.50480000  0.85040000  0.43370000  1
  C  C273  1  0.50760000  0.63956000  0.71270000  1
  C  C274  1  0.50760000  0.87883000  0.11357000  1
  C  C275  1  0.51100000  0.83390000  0.34020000  1
  C  C276  1  0.51360000  0.32560000  0.84840000  1
  C  C277  1  0.51810000  0.34710000  0.94110000  1
  C  C278  1  0.51830000  0.89223000  0.74895000  1
  C  C279  1  0.51890000  0.60625000  0.75058000  1
  C  C280  1  0.52940000  0.70720000  0.11840000  1
  C  C281  1  0.52970000  0.61850000  0.37756000  1
  C  C282  1  0.53130000  0.43900000  0.68330000  1
  C  C283  1  0.53380000  0.90320000  0.15546000  1
  C  C284  1  0.53740000  0.06141000  0.82517000  1
  C  C285  1  0.53950000  0.12120000  0.64330000  1
  C  C286  1  0.54130000  0.11200000  0.59500000  1
  C  C287  1  0.54290000  0.59690000  0.33420000  1
  C  C288  1  0.54720000  0.11680000  0.21338000  1
  C  C289  1  0.55020000  0.38631000  0.21179000  1
  C  C290  1  0.55230000  0.39840000  0.59610000  1
  C  C291  1  0.55520000  0.79980000  0.37290000  1
  C  C292  1  0.56110000  0.37200000  0.86390000  1
  C  C293  1  0.56620000  0.38270000  0.91083000  1
  C  C294  1  0.56710000  0.32102000  0.28664000  1
  C  C295  1  0.56980000  0.17959000  0.28874000  1
  C  C296  1  0.57000000  0.25639000  0.10860000  1
  C  C297  1  0.57880000  0.83812000  0.09309000  1
  C  C298  1  0.58710000  0.10850000  0.90784000  1
  C  C299  1  0.59480000  0.08450000  0.67640000  1
  C  C300  1  0.59950000  0.66180000  0.39600000  1
  C  C301  1  0.59990000  0.93465000  0.74935000  1
  C  C302  1  0.60060000  0.56312000  0.75189000  1
  C  C303  1  0.61040000  0.40810000  0.82904000  1
  C  C304  1  0.61990000  0.15600000  0.21494000  1
  C  C305  1  0.62230000  0.43510000  0.61540000  1
  C  C306  1  0.62300000  0.24622000  0.01640000  1
  C  C307  1  0.62350000  0.34688000  0.21395000  1
  C  C308  1  0.65170000  0.89366000  0.57524000  1
  C  C309  1  0.65280000  0.60899000  0.57633000  1
  C  C310  1  0.65290000  0.07230000  0.88660000  1
  C  C311  1  0.65510000  0.56975000  0.60897000  1
  C  C312  1  0.65910000  0.92859000  0.88988000  1
  C  C313  1  0.65950000  0.93372000  0.60764000  1
  C  C314  1  0.66050000  0.60478000  0.92457000  1
  C  C315  1  0.66100000  0.88810000  0.92195000  1
  C  C316  1  0.66400000  0.56558000  0.89196000  1
  C  C317  1  0.67740000  0.25070000  0.09750000  1
  C  C318  1  0.70270000  0.24520000  0.05070000  1
  C  C319  1  0.73710000  0.25097000  0.36440000  1
  C  C320  1  0.74070000  0.82365000  0.52713000  1
  C  C321  1  0.74510000  0.86956000  0.56031000  1
  C  C322  1  0.74720000  0.62777000  0.55931000  1
  C  C323  1  0.74910000  0.67332000  0.52511000  1
  C  C324  1  0.75090000  0.67332000  0.97489000  1
  C  C325  1  0.75280000  0.62777000  0.94069000  1
  C  C326  1  0.75490000  0.86956000  0.93969000  1
  C  C327  1  0.75930000  0.82365000  0.97287000  1
  C  C328  1  0.76290000  0.25097000  0.13560000  1
  C  C329  1  0.79730000  0.24520000  0.44930000  1
  C  C330  1  0.82260000  0.25070000  0.40250000  1
  C  C331  1  0.83600000  0.56558000  0.60804000  1
  C  C332  1  0.83900000  0.88810000  0.57805000  1
  C  C333  1  0.83950000  0.60478000  0.57543000  1
  C  C334  1  0.84050000  0.93372000  0.89236000  1
  C  C335  1  0.84090000  0.92859000  0.61012000  1
  C  C336  1  0.84490000  0.56975000  0.89103000  1
  C  C337  1  0.84710000  0.07230000  0.61340000  1
  C  C338  1  0.84720000  0.60899000  0.92367000  1
  C  C339  1  0.84830000  0.89366000  0.92476000  1
  C  C340  1  0.87650000  0.34688000  0.28605000  1
  C  C341  1  0.87700000  0.24622000  0.48360000  1
  C  C342  1  0.87770000  0.43510000  0.88460000  1
  C  C343  1  0.88010000  0.15600000  0.28506000  1
  C  C344  1  0.88960000  0.40810000  0.67096000  1
  C  C345  1  0.89940000  0.56312000  0.74811000  1
  C  C346  1  0.90010000  0.93465000  0.75065000  1
  C  C347  1  0.90050000  0.66180000  0.10400000  1
  C  C348  1  0.90520000  0.08450000  0.82360000  1
  C  C349  1  0.91290000  0.10850000  0.59216000  1
  C  C350  1  0.92120000  0.83812000  0.40691000  1
  C  C351  1  0.93000000  0.25639000  0.39140000  1
  C  C352  1  0.93020000  0.17959000  0.21126000  1
  C  C353  1  0.93290000  0.32102000  0.21336000  1
  C  C354  1  0.93380000  0.38270000  0.58917000  1
  C  C355  1  0.93890000  0.37200000  0.63610000  1
  C  C356  1  0.94480000  0.79980000  0.12710000  1
  C  C357  1  0.94770000  0.39840000  0.90390000  1
  C  C358  1  0.94980000  0.38631000  0.28821000  1
  C  C359  1  0.95280000  0.11680000  0.28662000  1
  C  C360  1  0.95710000  0.59690000  0.16580000  1
  C  C361  1  0.95870000  0.11200000  0.90500000  1
  C  C362  1  0.96050000  0.12120000  0.85670000  1
  C  C363  1  0.96260000  0.06141000  0.67483000  1
  C  C364  1  0.96620000  0.90320000  0.34454000  1
  C  C365  1  0.96870000  0.43900000  0.81670000  1
  C  C366  1  0.97030000  0.61850000  0.12244000  1
  C  C367  1  0.97060000  0.70720000  0.38160000  1
  C  C368  1  0.98110000  0.60625000  0.74942000  1
  C  C369  1  0.98170000  0.89223000  0.75105000  1
  C  C370  1  0.98190000  0.34710000  0.55890000  1
  C  C371  1  0.98640000  0.32560000  0.65160000  1
  C  C372  1  0.98900000  0.83390000  0.15980000  1
  C  C373  1  0.99240000  0.63956000  0.78730000  1
  C  C374  1  0.99240000  0.87883000  0.38643000  1
  C  C375  1  0.99520000  0.85040000  0.06630000  1
  C  C376  1  0.99570000  0.74347000  0.57288000  1
  C  C377  1  0.99620000  0.85988000  0.78985000  1
  N  N378  1  0.02350000  0.74824000  0.52698000  1
  N  N379  1  0.02870000  0.30301000  0.57131000  1
  N  N380  1  0.05100000  0.19271000  0.91933000  1
  N  N381  1  0.11720000  0.54572000  0.15884000  1
  N  N382  1  0.13200000  0.81130000  0.75154000  1
  N  N383  1  0.13310000  0.94997000  0.34505000  1
  N  N384  1  0.13320000  0.68642000  0.75058000  1
  N  N385  1  0.24560000  0.45192000  0.12563000  1
  N  N386  1  0.24740000  0.04887000  0.37473000  1
  N  N387  1  0.25260000  0.04887000  0.12527000  1
  N  N388  1  0.25440000  0.45192000  0.37437000  1
  N  N389  1  0.36680000  0.68642000  0.74942000  1
  N  N390  1  0.36690000  0.94997000  0.15495000  1
  N  N391  1  0.36800000  0.81130000  0.74846000  1
  N  N392  1  0.38280000  0.54572000  0.34116000  1
  N  N393  1  0.44900000  0.19271000  0.58067000  1
  N  N394  1  0.47130000  0.30301000  0.92869000  1
  N  N395  1  0.47650000  0.74824000  0.97302000  1
  N  N396  1  0.52350000  0.25176000  0.02698000  1
  N  N397  1  0.52870000  0.69699000  0.07131000  1
  N  N398  1  0.55100000  0.80729000  0.41933000  1
  N  N399  1  0.61720000  0.45428000  0.65884000  1
  N  N400  1  0.63200000  0.18870000  0.25154000  1
  N  N401  1  0.63310000  0.05003000  0.84505000  1
  N  N402  1  0.63320000  0.31358000  0.25058000  1
  N  N403  1  0.74560000  0.54808000  0.62563000  1
  N  N404  1  0.74740000  0.95113000  0.87473000  1
  N  N405  1  0.75260000  0.95113000  0.62527000  1
  N  N406  1  0.75440000  0.54808000  0.87437000  1
  N  N407  1  0.86680000  0.31358000  0.24942000  1
  N  N408  1  0.86690000  0.05003000  0.65495000  1
  N  N409  1  0.86800000  0.18870000  0.24846000  1
  N  N410  1  0.88280000  0.45428000  0.84116000  1
  N  N411  1  0.94900000  0.80729000  0.08067000  1
  N  N412  1  0.97130000  0.69699000  0.42869000  1
  N  N413  1  0.97650000  0.25176000  0.47302000  1
  O  O414  1  0.03980000  0.18868000  0.55959000  1
  O  O415  1  0.05820000  0.31046000  0.92668000  1
  O  O416  1  0.09770000  0.90320000  0.21887000  1
  O  O417  1  0.10890000  0.60433000  0.28666000  1
  O  O418  1  0.11640000  0.04350000  0.28837000  1
  O  O419  1  0.12080000  0.45787000  0.29001000  1
  O  O420  1  0.13490000  0.95577000  0.15882000  1
  O  O421  1  0.14140000  0.44630000  0.21309000  1
  O  O422  1  0.14520000  0.74799000  0.87687000  1
  O  O423  1  0.14660000  0.05633000  0.21216000  1
  O  O424  1  0.15350000  0.55094000  0.34583000  1
  O  O425  1  0.15380000  0.18750000  0.00973000  1
  O  O426  1  0.16090000  0.31638000  0.49125000  1
  O  O427  1  0.16520000  0.30441000  0.01631000  1
  O  O428  1  0.16690000  0.16943000  0.61198000  1
  O  O429  1  0.17270000  0.19928000  0.47909000  1
  O  O430  1  0.19000000  0.33139000  0.87910000  1
  O  O431  1  0.22980000  0.74911000  0.67761000  1
  O  O432  1  0.24170000  0.25041000  0.57063000  1
  O  O433  1  0.25000000  0.54577000  0.25000000  1
  O  O434  1  0.25000000  0.95757000  0.25000000  1
  O  O435  1  0.25830000  0.25041000  0.92937000  1
  O  O436  1  0.27020000  0.74911000  0.82239000  1
  O  O437  1  0.31000000  0.33139000  0.62090000  1
  O  O438  1  0.32730000  0.19928000  0.02091000  1
  O  O439  1  0.33310000  0.16943000  0.88802000  1
  O  O440  1  0.33480000  0.30441000  0.48369000  1
  O  O441  1  0.33910000  0.31638000  0.00875000  1
  O  O442  1  0.34620000  0.18750000  0.49027000  1
  O  O443  1  0.34650000  0.55094000  0.15417000  1
  O  O444  1  0.35340000  0.05633000  0.28784000  1
  O  O445  1  0.35480000  0.74799000  0.62313000  1
  O  O446  1  0.35860000  0.44630000  0.28691000  1
  O  O447  1  0.36510000  0.95577000  0.34118000  1
  O  O448  1  0.37920000  0.45787000  0.20999000  1
  O  O449  1  0.38360000  0.04350000  0.21163000  1
  O  O450  1  0.39110000  0.60433000  0.21334000  1
  O  O451  1  0.40230000  0.90320000  0.28113000  1
  O  O452  1  0.44180000  0.31046000  0.57332000  1
  O  O453  1  0.46020000  0.18868000  0.94041000  1
  O  O454  1  0.53980000  0.81132000  0.05959000  1
  O  O455  1  0.55820000  0.68954000  0.42668000  1
  O  O456  1  0.59770000  0.09680000  0.71887000  1
  O  O457  1  0.60890000  0.39567000  0.78666000  1
  O  O458  1  0.61640000  0.95650000  0.78837000  1
  O  O459  1  0.62080000  0.54213000  0.79001000  1
  O  O460  1  0.63490000  0.04423000  0.65882000  1
  O  O461  1  0.64140000  0.55370000  0.71309000  1
  O  O462  1  0.64520000  0.25201000  0.37687000  1
  O  O463  1  0.64660000  0.94367000  0.71216000  1
  O  O464  1  0.65350000  0.44906000  0.84583000  1
  O  O465  1  0.65380000  0.81250000  0.50973000  1
  O  O466  1  0.66090000  0.68362000  0.99125000  1
  O  O467  1  0.66520000  0.69559000  0.51631000  1
  O  O468  1  0.66690000  0.83057000  0.11198000  1
  O  O469  1  0.67270000  0.80072000  0.97909000  1
  O  O470  1  0.69000000  0.66861000  0.37910000  1
  O  O471  1  0.72980000  0.25089000  0.17761000  1
  O  O472  1  0.74170000  0.74959000  0.07063000  1
  O  O473  1  0.75000000  0.04243000  0.75000000  1
  O  O474  1  0.75000000  0.45423000  0.75000000  1
  O  O475  1  0.75830000  0.74959000  0.42937000  1
  O  O476  1  0.77020000  0.25089000  0.32239000  1
  O  O477  1  0.81000000  0.66861000  0.12090000  1
  O  O478  1  0.82730000  0.80072000  0.52091000  1
  O  O479  1  0.83310000  0.83057000  0.38802000  1
  O  O480  1  0.83480000  0.69559000  0.98369000  1
  O  O481  1  0.83910000  0.68362000  0.50875000  1
  O  O482  1  0.84620000  0.81250000  0.99027000  1
  O  O483  1  0.84650000  0.44906000  0.65417000  1
  O  O484  1  0.85340000  0.94367000  0.78784000  1
  O  O485  1  0.85480000  0.25201000  0.12313000  1
  O  O486  1  0.85860000  0.55370000  0.78691000  1
  O  O487  1  0.86510000  0.04423000  0.84118000  1
  O  O488  1  0.87920000  0.54213000  0.70999000  1
  O  O489  1  0.88360000  0.95650000  0.71163000  1
  O  O490  1  0.89110000  0.39567000  0.71334000  1
  O  O491  1  0.90230000  0.09680000  0.78113000  1
  O  O492  1  0.94180000  0.68954000  0.07332000  1
  O  O493  1  0.96020000  0.81132000  0.44041000  1
