# generated using pymatgen
data_CdH10C14NO4
_symmetry_space_group_name_H-M   'P 1'
_cell_length_a   9.45000000
_cell_length_b   9.75000000
_cell_length_c   10.29000000
_cell_angle_alpha   96.11000000
_cell_angle_beta   90.40000000
_cell_angle_gamma   116.54000000
_symmetry_Int_Tables_number   1
_chemical_formula_structural   CdH10C14NO4
_chemical_formula_sum   'Cd2 H20 C28 N2 O8'
_cell_volume   841.78221251
_cell_formula_units_Z   2
loop_
 _symmetry_equiv_pos_site_id
 _symmetry_equiv_pos_as_xyz
  1  'x, y, z'
loop_
 _atom_site_type_symbol
 _atom_site_label
 _atom_site_symmetry_multiplicity
 _atom_site_fract_x
 _atom_site_fract_y
 _atom_site_fract_z
 _atom_site_occupancy
  Cd  Cd0  1  0.23604000  0.05758000  0.02924000  1
  Cd  Cd1  1  0.76396000  0.94242000  0.97076000  1
  H  H2  1  0.01720000  0.20450000  0.44460000  1
  H  H3  1  0.04390000  0.96560000  0.74840000  1
  H  H4  1  0.04770000  0.61970000  0.41670000  1
  H  H5  1  0.09960000  0.70020000  0.17440000  1
  H  H6  1  0.16090000  0.55700000  0.46470000  1
  H  H7  1  0.18380000  0.51020000  0.15870000  1
  H  H8  1  0.27100000  0.63610000  0.69790000  1
  H  H9  1  0.32650000  0.80260000  0.88720000  1
  H  H10  1  0.39750000  0.17230000  0.49780000  1
  H  H11  1  0.47930000  0.84300000  0.30810000  1
  H  H12  1  0.52070000  0.15700000  0.69190000  1
  H  H13  1  0.60250000  0.82770000  0.50220000  1
  H  H14  1  0.67350000  0.19740000  0.11280000  1
  H  H15  1  0.72900000  0.36390000  0.30210000  1
  H  H16  1  0.81620000  0.48980000  0.84130000  1
  H  H17  1  0.83910000  0.44300000  0.53530000  1
  H  H18  1  0.90040000  0.29980000  0.82560000  1
  H  H19  1  0.95230000  0.38030000  0.58330000  1
  H  H20  1  0.95610000  0.03440000  0.25160000  1
  H  H21  1  0.98280000  0.79550000  0.55540000  1
  C  C22  1  0.05130000  0.38360000  0.99150000  1
  C  C23  1  0.05300000  0.79400000  0.62520000  1
  C  C24  1  0.05900000  0.61730000  0.10300000  1
  C  C25  1  0.07600000  0.57700000  0.48860000  1
  C  C26  1  0.08900000  0.89400000  0.73980000  1
  C  C27  1  0.09900000  0.25900000  0.98510000  1
  C  C28  1  0.10700000  0.50500000  0.09400000  1
  C  C29  1  0.12100000  0.69300000  0.60880000  1
  C  C30  1  0.22300000  0.70100000  0.70750000  1
  C  C31  1  0.25500000  0.80100000  0.81840000  1
  C  C32  1  0.36400000  0.03000000  0.25980000  1
  C  C33  1  0.43300000  0.01250000  0.38320000  1
  C  C34  1  0.44400000  0.10600000  0.49870000  1
  C  C35  1  0.48900000  0.90700000  0.38730000  1
  C  C36  1  0.51100000  0.09300000  0.61270000  1
  C  C37  1  0.55600000  0.89400000  0.50130000  1
  C  C38  1  0.56700000  0.98750000  0.61680000  1
  C  C39  1  0.63600000  0.97000000  0.74020000  1
  C  C40  1  0.74500000  0.19900000  0.18160000  1
  C  C41  1  0.77700000  0.29900000  0.29250000  1
  C  C42  1  0.87900000  0.30700000  0.39120000  1
  C  C43  1  0.89300000  0.49500000  0.90600000  1
  C  C44  1  0.90100000  0.74100000  0.01490000  1
  C  C45  1  0.91100000  0.10600000  0.26020000  1
  C  C46  1  0.92400000  0.42300000  0.51140000  1
  C  C47  1  0.94100000  0.38270000  0.89700000  1
  C  C48  1  0.94700000  0.20600000  0.37480000  1
  C  C49  1  0.94870000  0.61640000  0.00850000  1
  N  N50  1  0.18860000  0.89820000  0.83600000  1
  N  N51  1  0.81140000  0.10180000  0.16400000  1
  O  O52  1  0.01600000  0.13040000  0.91850000  1
  O  O53  1  0.22250000  0.28180000  0.05000000  1
  O  O54  1  0.30540000  0.12500000  0.26040000  1
  O  O55  1  0.36270000  0.95120000  0.15400000  1
  O  O56  1  0.63730000  0.04880000  0.84600000  1
  O  O57  1  0.69460000  0.87500000  0.73960000  1
  O  O58  1  0.77750000  0.71820000  0.95000000  1
  O  O59  1  0.98400000  0.86960000  0.08150000  1
