# generated using pymatgen
data_Mn3H22(C21O8)2
_symmetry_space_group_name_H-M   'P 1'
_cell_length_a   9.52370000
_cell_length_b   17.67270000
_cell_length_c   17.67270000
_cell_angle_alpha   76.52800000
_cell_angle_beta   76.20100000
_cell_angle_gamma   76.20080000
_symmetry_Int_Tables_number   1
_chemical_formula_structural   Mn3H22(C21O8)2
_chemical_formula_sum   'Mn6 H44 C84 O32'
_cell_volume   2755.93663215
_cell_formula_units_Z   2
loop_
 _symmetry_equiv_pos_site_id
 _symmetry_equiv_pos_as_xyz
  1  'x, y, z'
loop_
 _atom_site_type_symbol
 _atom_site_label
 _atom_site_symmetry_multiplicity
 _atom_site_fract_x
 _atom_site_fract_y
 _atom_site_fract_z
 _atom_site_occupancy
  Mn  Mn0  1  1.00000000  0.50000000  0.00000000  1
  Mn  Mn1  1  0.93578000  0.67770000  0.81274000  1
  Mn  Mn2  1  0.56422000  0.18726000  0.32230000  1
  Mn  Mn3  1  0.50000000  0.00000000  0.50000000  1
  Mn  Mn4  1  0.43578000  0.81274000  0.67770000  1
  Mn  Mn5  1  0.06422000  0.32230000  0.18726000  1
  H  H6  1  0.96900000  0.02090000  0.21450000  1
  H  H7  1  0.94370000  0.34580000  0.36780000  1
  H  H8  1  0.93930000  0.33910000  0.87130000  1
  H  H9  1  0.93060000  0.29180000  0.66200000  1
  H  H10  1  0.91580000  0.51450000  0.68290000  1
  H  H11  1  0.88610000  0.09060000  0.83000000  1
  H  H12  1  0.82480000  0.65180000  0.10820000  1
  H  H13  1  0.82230000  0.41650000  0.46630000  1
  H  H14  1  0.81820000  0.64770000  0.43610000  1
  H  H15  1  0.81190000  0.78210000  0.29690000  1
  H  H16  1  0.80160000  0.46740000  0.28020000  1
  H  H17  1  0.69840000  0.71980000  0.53260000  1
  H  H18  1  0.68810000  0.70310000  0.21790000  1
  H  H19  1  0.68180000  0.56390000  0.35230000  1
  H  H20  1  0.67770000  0.53370000  0.58350000  1
  H  H21  1  0.67520000  0.89180000  0.34820000  1
  H  H22  1  0.61390000  0.17000000  0.90940000  1
  H  H23  1  0.58420000  0.31710000  0.48550000  1
  H  H24  1  0.56940000  0.33800000  0.70820000  1
  H  H25  1  0.56070000  0.12870000  0.66090000  1
  H  H26  1  0.55630000  0.63220000  0.65420000  1
  H  H27  1  0.53100000  0.78550000  0.97910000  1
  H  H28  1  0.46900000  0.21450000  0.02090000  1
  H  H29  1  0.44370000  0.36780000  0.34580000  1
  H  H30  1  0.43930000  0.87130000  0.33910000  1
  H  H31  1  0.43060000  0.66200000  0.29180000  1
  H  H32  1  0.41580000  0.68290000  0.51450000  1
  H  H33  1  0.38610000  0.83000000  0.09060000  1
  H  H34  1  0.32480000  0.10820000  0.65180000  1
  H  H35  1  0.32230000  0.46630000  0.41650000  1
  H  H36  1  0.31820000  0.43610000  0.64770000  1
  H  H37  1  0.31190000  0.29690000  0.78210000  1
  H  H38  1  0.30160000  0.28020000  0.46740000  1
  H  H39  1  0.19840000  0.53260000  0.71980000  1
  H  H40  1  0.18810000  0.21790000  0.70310000  1
  H  H41  1  0.18180000  0.35230000  0.56390000  1
  H  H42  1  0.17770000  0.58350000  0.53370000  1
  H  H43  1  0.17520000  0.34820000  0.89180000  1
  H  H44  1  0.11390000  0.90940000  0.17000000  1
  H  H45  1  0.08420000  0.48550000  0.31710000  1
  H  H46  1  0.06940000  0.70820000  0.33800000  1
  H  H47  1  0.06070000  0.66090000  0.12870000  1
  H  H48  1  0.05630000  0.65420000  0.63220000  1
  H  H49  1  0.03100000  0.97910000  0.78550000  1
  C  C50  1  0.99170000  0.34732000  0.40732000  1
  C  C51  1  0.99090000  0.38967000  0.52507000  1
  C  C52  1  0.97590000  0.83574000  0.22934000  1
  C  C53  1  0.97570000  0.09361000  0.79521000  1
  C  C54  1  0.93840000  0.97255000  0.23255000  1
  C  C55  1  0.93400000  0.30364000  0.77144000  1
  C  C56  1  0.93380000  0.35673000  0.81813000  1
  C  C57  1  0.93000000  0.32805000  0.69265000  1
  C  C58  1  0.92620000  0.49538000  0.83398000  1
  C  C59  1  0.92530000  0.43582000  0.78482000  1
  C  C60  1  0.92510000  0.40749000  0.65889000  1
  C  C61  1  0.92120000  0.46113000  0.70533000  1
  C  C62  1  0.91870000  0.38908000  0.46608000  1
  C  C63  1  0.86600000  0.64973000  0.47553000  1
  C  C64  1  0.86370000  0.69281000  0.59421000  1
  C  C65  1  0.84460000  0.82989000  0.28169000  1
  C  C66  1  0.80720000  0.96861000  0.28681000  1
  C  C67  1  0.79410000  0.69179000  0.53339000  1
  C  C68  1  0.78670000  0.68627000  0.95807000  1
  C  C69  1  0.78320000  0.73643000  0.66003000  1
  C  C70  1  0.76220000  0.89606000  0.31126000  1
  C  C71  1  0.73780000  0.68874000  0.10394000  1
  C  C72  1  0.71680000  0.33997000  0.26357000  1
  C  C73  1  0.71330000  0.04193000  0.31373000  1
  C  C74  1  0.70590000  0.46661000  0.30821000  1
  C  C75  1  0.69280000  0.71319000  0.03139000  1
  C  C76  1  0.65540000  0.71831000  0.17011000  1
  C  C77  1  0.63630000  0.40579000  0.30719000  1
  C  C78  1  0.63400000  0.52447000  0.35027000  1
  C  C79  1  0.58130000  0.53392000  0.61092000  1
  C  C80  1  0.57880000  0.29467000  0.53887000  1
  C  C81  1  0.57490000  0.34111000  0.59251000  1
  C  C82  1  0.57470000  0.21518000  0.56418000  1
  C  C83  1  0.57380000  0.16602000  0.50462000  1
  C  C84  1  0.57000000  0.30735000  0.67195000  1
  C  C85  1  0.56620000  0.18187000  0.64327000  1
  C  C86  1  0.56600000  0.22856000  0.69636000  1
  C  C87  1  0.56160000  0.76745000  0.02745000  1
  C  C88  1  0.52430000  0.20479000  0.90639000  1
  C  C89  1  0.52410000  0.77066000  0.16426000  1
  C  C90  1  0.50910000  0.47493000  0.61033000  1
  C  C91  1  0.50830000  0.59268000  0.65268000  1
  C  C92  1  0.49170000  0.40732000  0.34732000  1
  C  C93  1  0.49090000  0.52507000  0.38967000  1
  C  C94  1  0.47590000  0.22934000  0.83574000  1
  C  C95  1  0.47570000  0.79521000  0.09361000  1
  C  C96  1  0.43840000  0.23255000  0.97255000  1
  C  C97  1  0.43400000  0.77144000  0.30364000  1
  C  C98  1  0.43380000  0.81813000  0.35673000  1
  C  C99  1  0.43000000  0.69265000  0.32805000  1
  C  C100  1  0.42620000  0.83398000  0.49538000  1
  C  C101  1  0.42530000  0.78482000  0.43582000  1
  C  C102  1  0.42510000  0.65889000  0.40749000  1
  C  C103  1  0.42120000  0.70533000  0.46113000  1
  C  C104  1  0.41870000  0.46608000  0.38908000  1
  C  C105  1  0.36600000  0.47553000  0.64973000  1
  C  C106  1  0.36370000  0.59421000  0.69281000  1
  C  C107  1  0.34460000  0.28169000  0.82989000  1
  C  C108  1  0.30720000  0.28681000  0.96861000  1
  C  C109  1  0.29410000  0.53339000  0.69179000  1
  C  C110  1  0.28670000  0.95807000  0.68627000  1
  C  C111  1  0.28320000  0.66003000  0.73643000  1
  C  C112  1  0.26220000  0.31126000  0.89606000  1
  C  C113  1  0.23780000  0.10394000  0.68874000  1
  C  C114  1  0.21680000  0.26357000  0.33997000  1
  C  C115  1  0.21330000  0.31373000  0.04193000  1
  C  C116  1  0.20590000  0.30821000  0.46661000  1
  C  C117  1  0.19280000  0.03139000  0.71319000  1
  C  C118  1  0.15540000  0.17011000  0.71831000  1
  C  C119  1  0.13630000  0.30719000  0.40579000  1
  C  C120  1  0.13400000  0.35027000  0.52447000  1
  C  C121  1  0.08130000  0.61092000  0.53392000  1
  C  C122  1  0.07880000  0.53887000  0.29467000  1
  C  C123  1  0.07490000  0.59251000  0.34111000  1
  C  C124  1  0.07470000  0.56418000  0.21518000  1
  C  C125  1  0.07380000  0.50462000  0.16602000  1
  C  C126  1  0.07000000  0.67195000  0.30735000  1
  C  C127  1  0.06620000  0.64327000  0.18187000  1
  C  C128  1  0.06600000  0.69636000  0.22856000  1
  C  C129  1  0.06160000  0.02745000  0.76745000  1
  C  C130  1  0.02430000  0.90639000  0.20479000  1
  C  C131  1  0.02410000  0.16426000  0.77066000  1
  C  C132  1  0.00910000  0.61033000  0.47493000  1
  C  C133  1  0.00830000  0.65268000  0.59268000  1
  O  O134  1  0.93960000  0.46845000  0.90445000  1
  O  O135  1  0.93570000  0.22475000  0.80839000  1
  O  O136  1  0.91650000  0.43630000  0.58064000  1
  O  O137  1  0.91170000  0.56632000  0.80020000  1
  O  O138  1  0.90530000  0.63540000  0.95954000  1
  O  O139  1  0.84530000  0.34470000  0.22842000  1
  O  O140  1  0.84470000  0.73805000  0.71397000  1
  O  O141  1  0.75610000  0.10638000  0.28222000  1
  O  O142  1  0.74390000  0.71778000  0.89362000  1
  O  O143  1  0.65530000  0.28603000  0.26195000  1
  O  O144  1  0.65470000  0.77158000  0.65530000  1
  O  O145  1  0.59470000  0.04046000  0.36460000  1
  O  O146  1  0.58830000  0.19980000  0.43368000  1
  O  O147  1  0.58350000  0.41936000  0.56370000  1
  O  O148  1  0.56430000  0.19161000  0.77525000  1
  O  O149  1  0.56040000  0.09555000  0.53155000  1
  O  O150  1  0.43960000  0.90445000  0.46845000  1
  O  O151  1  0.43570000  0.80839000  0.22475000  1
  O  O152  1  0.41650000  0.58064000  0.43630000  1
  O  O153  1  0.41170000  0.80020000  0.56632000  1
  O  O154  1  0.40530000  0.95954000  0.63540000  1
  O  O155  1  0.34530000  0.22842000  0.34470000  1
  O  O156  1  0.34470000  0.71397000  0.73805000  1
  O  O157  1  0.25610000  0.28222000  0.10638000  1
  O  O158  1  0.24390000  0.89362000  0.71778000  1
  O  O159  1  0.15530000  0.26195000  0.28603000  1
  O  O160  1  0.15470000  0.65530000  0.77158000  1
  O  O161  1  0.09470000  0.36460000  0.04046000  1
  O  O162  1  0.08830000  0.43368000  0.19980000  1
  O  O163  1  0.08350000  0.56370000  0.41936000  1
  O  O164  1  0.06430000  0.77525000  0.19161000  1
  O  O165  1  0.06040000  0.53155000  0.09555000  1
