# generated using pymatgen
data_MgH3(CO2)3
_symmetry_space_group_name_H-M   'P 1'
_cell_length_a   7.40070000
_cell_length_b   7.89280000
_cell_length_c   13.76930000
_cell_angle_alpha   90.00000000
_cell_angle_beta   90.00000000
_cell_angle_gamma   90.00000000
_symmetry_Int_Tables_number   1
_chemical_formula_structural   MgH3(CO2)3
_chemical_formula_sum   'Mg4 H12 C12 O24'
_cell_volume   804.29572453
_cell_formula_units_Z   4
loop_
 _symmetry_equiv_pos_site_id
 _symmetry_equiv_pos_as_xyz
  1  'x, y, z'
loop_
 _atom_site_type_symbol
 _atom_site_label
 _atom_site_symmetry_multiplicity
 _atom_site_fract_x
 _atom_site_fract_y
 _atom_site_fract_z
 _atom_site_occupancy
  Mg  Mg0  1  0.25959000  0.22279000  0.16466000  1
  Mg  Mg1  1  0.75959000  0.27721000  0.83534000  1
  Mg  Mg2  1  0.74041000  0.72279000  0.33534000  1
  Mg  Mg3  1  0.24041000  0.77721000  0.66466000  1
  H  H4  1  0.50220000  0.00500000  0.27530000  1
  H  H5  1  0.52710000  0.05700000  0.70220000  1
  H  H6  1  0.47840000  0.19170000  0.98530000  1
  H  H7  1  0.97840000  0.30830000  0.01470000  1
  H  H8  1  0.02710000  0.44300000  0.29780000  1
  H  H9  1  0.00220000  0.49500000  0.72470000  1
  H  H10  1  0.49780000  0.50500000  0.22470000  1
  H  H11  1  0.47290000  0.55700000  0.79780000  1
  H  H12  1  0.52160000  0.69170000  0.51470000  1
  H  H13  1  0.02160000  0.80830000  0.48530000  1
  H  H14  1  0.97290000  0.94300000  0.20220000  1
  H  H15  1  0.99780000  0.99500000  0.77530000  1
  C  C16  1  0.50440000  0.01040000  0.76463000  1
  C  C17  1  0.99380000  0.05480000  0.71542000  1
  C  C18  1  0.00370000  0.19400000  0.99787000  1
  C  C19  1  0.50370000  0.30600000  0.00213000  1
  C  C20  1  0.49380000  0.44520000  0.28458000  1
  C  C21  1  0.00440000  0.48960000  0.23537000  1
  C  C22  1  0.49560000  0.51040000  0.73537000  1
  C  C23  1  0.00620000  0.55480000  0.78458000  1
  C  C24  1  0.99630000  0.69400000  0.50213000  1
  C  C25  1  0.49630000  0.80600000  0.49787000  1
  C  C26  1  0.50620000  0.94520000  0.21542000  1
  C  C27  1  0.99560000  0.98960000  0.26463000  1
  O  O28  1  0.42130000  0.00720000  0.14710000  1
  O  O29  1  0.59137000  0.07053000  0.83374000  1
  O  O30  1  0.10876000  0.10437000  0.26952000  1
  O  O31  1  0.11935000  0.11838000  0.04813000  1
  O  O32  1  0.91926000  0.13429000  0.92851000  1
  O  O33  1  0.90248000  0.18908000  0.71401000  1
  O  O34  1  0.40248000  0.31092000  0.28599000  1
  O  O35  1  0.41926000  0.36571000  0.07149000  1
  O  O36  1  0.61935000  0.38162000  0.95187000  1
  O  O37  1  0.60876000  0.39563000  0.73048000  1
  O  O38  1  0.09137000  0.42947000  0.16626000  1
  O  O39  1  0.92130000  0.49280000  0.85290000  1
  O  O40  1  0.57870000  0.50720000  0.35290000  1
  O  O41  1  0.40863000  0.57053000  0.66626000  1
  O  O42  1  0.89124000  0.60437000  0.23048000  1
  O  O43  1  0.88065000  0.61838000  0.45187000  1
  O  O44  1  0.08074000  0.63429000  0.57149000  1
  O  O45  1  0.09752000  0.68908000  0.78599000  1
  O  O46  1  0.59752000  0.81092000  0.21401000  1
  O  O47  1  0.58074000  0.86571000  0.42851000  1
  O  O48  1  0.38065000  0.88162000  0.54813000  1
  O  O49  1  0.39124000  0.89563000  0.76952000  1
  O  O50  1  0.90863000  0.92947000  0.33374000  1
  O  O51  1  0.07870000  0.99280000  0.64710000  1
