# generated using pymatgen
data_Zn7H16C40(N2O15)2
_symmetry_space_group_name_H-M   'P 1'
_cell_length_a   12.93760000
_cell_length_b   12.93760000
_cell_length_c   14.16210000
_cell_angle_alpha   85.05810000
_cell_angle_beta   85.05810000
_cell_angle_gamma   89.59630000
_symmetry_Int_Tables_number   1
_chemical_formula_structural   Zn7H16C40(N2O15)2
_chemical_formula_sum   'Zn7 H16 C40 N4 O30'
_cell_volume   2352.88188097
_cell_formula_units_Z   1
loop_
 _symmetry_equiv_pos_site_id
 _symmetry_equiv_pos_as_xyz
  1  'x, y, z'
loop_
 _atom_site_type_symbol
 _atom_site_label
 _atom_site_symmetry_multiplicity
 _atom_site_fract_x
 _atom_site_fract_y
 _atom_site_fract_z
 _atom_site_occupancy
  Zn  Zn0  1  0.00000000  0.00000000  0.50000000  1
  Zn  Zn1  1  0.01724000  0.18736000  0.33517000  1
  Zn  Zn2  1  0.16584000  0.16584000  0.50514000  1
  Zn  Zn3  1  0.18736000  0.01724000  0.33517000  1
  Zn  Zn4  1  0.81264000  0.98276000  0.66483000  1
  Zn  Zn5  1  0.83416000  0.83416000  0.49486000  1
  Zn  Zn6  1  0.98276000  0.81264000  0.66483000  1
  H  H7  1  0.03740000  0.50341000  0.25964000  1
  H  H8  1  0.08752000  0.84719000  0.92684000  1
  H  H9  1  0.15281000  0.91248000  0.07316000  1
  H  H10  1  0.16878000  0.68394000  0.52714000  1
  H  H11  1  0.17503000  0.48908000  0.53336000  1
  H  H12  1  0.31606000  0.83122000  0.47286000  1
  H  H13  1  0.48908000  0.17503000  0.53336000  1
  H  H14  1  0.49659000  0.96260000  0.74036000  1
  H  H15  1  0.50341000  0.03740000  0.25964000  1
  H  H16  1  0.51092000  0.82497000  0.46664000  1
  H  H17  1  0.68394000  0.16878000  0.52714000  1
  H  H18  1  0.82502000  0.51118000  0.46675000  1
  H  H19  1  0.83049000  0.31915000  0.47140000  1
  H  H20  1  0.84722000  0.08712000  0.92644000  1
  H  H21  1  0.91288000  0.15278000  0.07356000  1
  H  H22  1  0.96242000  0.49747000  0.73993000  1
  C  C23  1  0.03740000  0.03740000  0.08040000  1
  C  C24  1  0.04750000  0.91590000  0.95980000  1
  C  C25  1  0.06790000  0.54290000  0.32060000  1
  C  C26  1  0.06930000  0.64830000  0.31800000  1
  C  C27  1  0.06980000  0.06980000  0.17100000  1
  C  C28  1  0.08410000  0.95250000  0.04020000  1
  C  C29  1  0.09990000  0.36890000  0.40310000  1
  C  C30  1  0.10180000  0.81820000  0.39240000  1
  C  C31  1  0.10260000  0.70220000  0.39160000  1
  C  C32  1  0.10380000  0.48460000  0.39780000  1
  C  C33  1  0.13960000  0.64220000  0.46690000  1
  C  C34  1  0.14200000  0.53560000  0.47080000  1
  C  C35  1  0.18180000  0.89820000  0.60760000  1
  C  C36  1  0.29780000  0.89740000  0.60840000  1
  C  C37  1  0.35170000  0.93070000  0.68200000  1
  C  C38  1  0.35780000  0.86040000  0.53310000  1
  C  C39  1  0.36890000  0.09990000  0.40310000  1
  C  C40  1  0.45710000  0.93210000  0.67940000  1
  C  C41  1  0.46440000  0.85800000  0.52920000  1
  C  C42  1  0.48460000  0.10380000  0.39780000  1
  C  C43  1  0.51540000  0.89620000  0.60220000  1
  C  C44  1  0.53560000  0.14200000  0.47080000  1
  C  C45  1  0.54290000  0.06790000  0.32060000  1
  C  C46  1  0.63110000  0.90010000  0.59690000  1
  C  C47  1  0.64220000  0.13960000  0.46690000  1
  C  C48  1  0.64830000  0.06930000  0.31800000  1
  C  C49  1  0.70220000  0.10260000  0.39160000  1
  C  C50  1  0.81820000  0.10180000  0.39240000  1
  C  C51  1  0.85800000  0.46440000  0.52920000  1
  C  C52  1  0.86040000  0.35780000  0.53310000  1
  C  C53  1  0.89620000  0.51540000  0.60220000  1
  C  C54  1  0.89740000  0.29780000  0.60840000  1
  C  C55  1  0.89820000  0.18180000  0.60760000  1
  C  C56  1  0.90010000  0.63110000  0.59690000  1
  C  C57  1  0.91590000  0.04750000  0.95980000  1
  C  C58  1  0.93020000  0.93020000  0.82900000  1
  C  C59  1  0.93070000  0.35170000  0.68200000  1
  C  C60  1  0.93210000  0.45710000  0.67940000  1
  C  C61  1  0.95250000  0.08410000  0.04020000  1
  C  C62  1  0.96260000  0.96260000  0.91960000  1
  N  N63  1  0.03500000  0.70680000  0.23440000  1
  N  N64  1  0.29320000  0.96500000  0.76560000  1
  N  N65  1  0.70680000  0.03500000  0.23440000  1
  N  N66  1  0.96500000  0.29320000  0.76560000  1
  O  O67  1  0.00960000  0.66000000  0.17100000  1
  O  O68  1  0.02040000  0.14540000  0.20630000  1
  O  O69  1  0.02093000  0.85913000  0.42380000  1
  O  O70  1  0.03710000  0.79810000  0.22570000  1
  O  O71  1  0.04706000  0.33208000  0.34120000  1
  O  O72  1  0.09276000  0.09276000  0.41630000  1
  O  O73  1  0.13603000  0.81351000  0.63420000  1
  O  O74  1  0.14087000  0.97907000  0.57620000  1
  O  O75  1  0.14540000  0.02040000  0.20630000  1
  O  O76  1  0.14703000  0.31899000  0.46520000  1
  O  O77  1  0.18649000  0.86397000  0.36580000  1
  O  O78  1  0.20190000  0.96290000  0.77430000  1
  O  O79  1  0.31899000  0.14703000  0.46520000  1
  O  O80  1  0.33208000  0.04706000  0.34120000  1
  O  O81  1  0.34000000  0.99040000  0.82900000  1
  O  O82  1  0.66000000  0.00960000  0.17100000  1
  O  O83  1  0.66792000  0.95294000  0.65880000  1
  O  O84  1  0.68101000  0.85297000  0.53480000  1
  O  O85  1  0.79810000  0.03710000  0.22570000  1
  O  O86  1  0.81351000  0.13603000  0.63420000  1
  O  O87  1  0.85297000  0.68101000  0.53480000  1
  O  O88  1  0.85460000  0.97960000  0.79370000  1
  O  O89  1  0.85913000  0.02093000  0.42380000  1
  O  O90  1  0.86397000  0.18649000  0.36580000  1
  O  O91  1  0.90724000  0.90724000  0.58370000  1
  O  O92  1  0.95294000  0.66792000  0.65880000  1
  O  O93  1  0.96290000  0.20190000  0.77430000  1
  O  O94  1  0.97907000  0.14087000  0.57620000  1
  O  O95  1  0.97960000  0.85460000  0.79370000  1
  O  O96  1  0.99040000  0.34000000  0.82900000  1
