# generated using pymatgen
data_MgH3(CO2)3
_symmetry_space_group_name_H-M   'P 1'
_cell_length_a   8.21840000
_cell_length_b   12.57200000
_cell_length_c   12.57200000
_cell_angle_alpha   120.00000000
_cell_angle_beta   90.00000000
_cell_angle_gamma   90.00000000
_symmetry_Int_Tables_number   1
_chemical_formula_structural   MgH3(CO2)3
_chemical_formula_sum   'Mg6 H18 C18 O36'
_cell_volume   1124.93298566
_cell_formula_units_Z   6
loop_
 _symmetry_equiv_pos_site_id
 _symmetry_equiv_pos_as_xyz
  1  'x, y, z'
loop_
 _atom_site_type_symbol
 _atom_site_label
 _atom_site_symmetry_multiplicity
 _atom_site_fract_x
 _atom_site_fract_y
 _atom_site_fract_z
 _atom_site_occupancy
  Mg  Mg0  1  0.91334000  0.99872000  0.33274000  1
  Mg  Mg1  1  0.91334000  0.66726000  0.66598000  1
  Mg  Mg2  1  0.41334000  0.66598000  0.99872000  1
  Mg  Mg3  1  0.91334000  0.33402000  0.00128000  1
  Mg  Mg4  1  0.41334000  0.33274000  0.33402000  1
  Mg  Mg5  1  0.41334000  0.00128000  0.66726000  1
  H  H6  1  0.17320000  0.95450000  0.47160000  1
  H  H7  1  0.16790000  0.85820000  0.14600000  1
  H  H8  1  0.16790000  0.85400000  0.71220000  1
  H  H9  1  0.65040000  0.81750000  0.19590000  1
  H  H10  1  0.65040000  0.80410000  0.62160000  1
  H  H11  1  0.66790000  0.71220000  0.85820000  1
  H  H12  1  0.15040000  0.62160000  0.81750000  1
  H  H13  1  0.17320000  0.52840000  0.48290000  1
  H  H14  1  0.17320000  0.51710000  0.04550000  1
  H  H15  1  0.67320000  0.48290000  0.95450000  1
  H  H16  1  0.67320000  0.47160000  0.51710000  1
  H  H17  1  0.65040000  0.37840000  0.18250000  1
  H  H18  1  0.16790000  0.28780000  0.14180000  1
  H  H19  1  0.15040000  0.19590000  0.37840000  1
  H  H20  1  0.15040000  0.18250000  0.80410000  1
  H  H21  1  0.66790000  0.14600000  0.28780000  1
  H  H22  1  0.66790000  0.14180000  0.85400000  1
  H  H23  1  0.67320000  0.04550000  0.52840000  1
  C  C24  1  0.66790000  0.96022000  0.48260000  1
  C  C25  1  0.65810000  0.85539000  0.14878000  1
  C  C26  1  0.65810000  0.85122000  0.70661000  1
  C  C27  1  0.16530000  0.81360000  0.18678000  1
  C  C28  1  0.16530000  0.81322000  0.62682000  1
  C  C29  1  0.15810000  0.70661000  0.85539000  1
  C  C30  1  0.66530000  0.62682000  0.81360000  1
  C  C31  1  0.66790000  0.52238000  0.03978000  1
  C  C32  1  0.66790000  0.51740000  0.47762000  1
  C  C33  1  0.16790000  0.48260000  0.52238000  1
  C  C34  1  0.16790000  0.47762000  0.96022000  1
  C  C35  1  0.16530000  0.37318000  0.18640000  1
  C  C36  1  0.65810000  0.29339000  0.14461000  1
  C  C37  1  0.66530000  0.18678000  0.37318000  1
  C  C38  1  0.66530000  0.18640000  0.81322000  1
  C  C39  1  0.15810000  0.14878000  0.29339000  1
  C  C40  1  0.15810000  0.14461000  0.85122000  1
  C  C41  1  0.16790000  0.03978000  0.51740000  1
  O  O42  1  0.55662000  0.93463000  0.75864000  1
  O  O43  1  0.76882000  0.93186000  0.17624000  1
  O  O44  1  0.55879000  0.91076000  0.51054000  1
  O  O45  1  0.77081000  0.90871000  0.40039000  1
  O  O46  1  0.27022000  0.84382000  0.57605000  1
  O  O47  1  0.05809000  0.84188000  0.26519000  1
  O  O48  1  0.55662000  0.82401000  0.06537000  1
  O  O49  1  0.76882000  0.82376000  0.75562000  1
  O  O50  1  0.05662000  0.75864000  0.82401000  1
  O  O51  1  0.26882000  0.75562000  0.93186000  1
  O  O52  1  0.05809000  0.73481000  0.57669000  1
  O  O53  1  0.27022000  0.73223000  0.15618000  1
  O  O54  1  0.55879000  0.59978000  0.08924000  1
  O  O55  1  0.77081000  0.59961000  0.50832000  1
  O  O56  1  0.55809000  0.57669000  0.84188000  1
  O  O57  1  0.77022000  0.57605000  0.73223000  1
  O  O58  1  0.05879000  0.51054000  0.59978000  1
  O  O59  1  0.27081000  0.50832000  0.90871000  1
  O  O60  1  0.77081000  0.49168000  0.09129000  1
  O  O61  1  0.55879000  0.48946000  0.40022000  1
  O  O62  1  0.27022000  0.42395000  0.26777000  1
  O  O63  1  0.05809000  0.42331000  0.15812000  1
  O  O64  1  0.27081000  0.40039000  0.49168000  1
  O  O65  1  0.05879000  0.40022000  0.91076000  1
  O  O66  1  0.77022000  0.26777000  0.84382000  1
  O  O67  1  0.55809000  0.26519000  0.42331000  1
  O  O68  1  0.76882000  0.24438000  0.06814000  1
  O  O69  1  0.55662000  0.24136000  0.17599000  1
  O  O70  1  0.26882000  0.17624000  0.24438000  1
  O  O71  1  0.05662000  0.17599000  0.93463000  1
  O  O72  1  0.55809000  0.15812000  0.73481000  1
  O  O73  1  0.77022000  0.15618000  0.42395000  1
  O  O74  1  0.27081000  0.09129000  0.59961000  1
  O  O75  1  0.05879000  0.08924000  0.48946000  1
  O  O76  1  0.26882000  0.06814000  0.82376000  1
  O  O77  1  0.05662000  0.06537000  0.24136000  1
