# generated using pymatgen
data_EuH16C24NO8
_symmetry_space_group_name_H-M   'P 1'
_cell_length_a   11.04800000
_cell_length_b   16.70200000
_cell_length_c   18.73900000
_cell_angle_alpha   90.00000000
_cell_angle_beta   90.00000000
_cell_angle_gamma   90.00000000
_symmetry_Int_Tables_number   1
_chemical_formula_structural   EuH16C24NO8
_chemical_formula_sum   'Eu4 H64 C96 N4 O32'
_cell_volume   3457.78953934
_cell_formula_units_Z   4
loop_
 _symmetry_equiv_pos_site_id
 _symmetry_equiv_pos_as_xyz
  1  'x, y, z'
loop_
 _atom_site_type_symbol
 _atom_site_label
 _atom_site_symmetry_multiplicity
 _atom_site_fract_x
 _atom_site_fract_y
 _atom_site_fract_z
 _atom_site_occupancy
  Eu  Eu0  1  0.20288000  0.75000000  0.20476000  1
  Eu  Eu1  1  0.29712000  0.25000000  0.70476000  1
  Eu  Eu2  1  0.70288000  0.75000000  0.29524000  1
  Eu  Eu3  1  0.79712000  0.25000000  0.79524000  1
  H  H4  1  0.02060000  0.67240000  0.45610000  1
  H  H5  1  0.02060000  0.82760000  0.45610000  1
  H  H6  1  0.02510000  0.10690000  0.36440000  1
  H  H7  1  0.02510000  0.39310000  0.36440000  1
  H  H8  1  0.02940000  0.25000000  0.08810000  1
  H  H9  1  0.02940000  0.75000000  0.02570000  1
  H  H10  1  0.04470000  0.01010000  0.68100000  1
  H  H11  1  0.04470000  0.48990000  0.68100000  1
  H  H12  1  0.07400000  0.17900000  0.48170000  1
  H  H13  1  0.07400000  0.32100000  0.48170000  1
  H  H14  1  0.12710000  0.75000000  0.70720000  1
  H  H15  1  0.17430000  0.57030000  0.45860000  1
  H  H16  1  0.17430000  0.92970000  0.45860000  1
  H  H17  1  0.18260000  0.75000000  0.40930000  1
  H  H18  1  0.24800000  0.54580000  0.01200000  1
  H  H19  1  0.24800000  0.95420000  0.01200000  1
  H  H20  1  0.25200000  0.04580000  0.51200000  1
  H  H21  1  0.25200000  0.45420000  0.51200000  1
  H  H22  1  0.31740000  0.25000000  0.90930000  1
  H  H23  1  0.32570000  0.07030000  0.95860000  1
  H  H24  1  0.32570000  0.42970000  0.95860000  1
  H  H25  1  0.37290000  0.25000000  0.20720000  1
  H  H26  1  0.42600000  0.67900000  0.98170000  1
  H  H27  1  0.42600000  0.82100000  0.98170000  1
  H  H28  1  0.45530000  0.51010000  0.18100000  1
  H  H29  1  0.45530000  0.98990000  0.18100000  1
  H  H30  1  0.47060000  0.25000000  0.52570000  1
  H  H31  1  0.47060000  0.75000000  0.58810000  1
  H  H32  1  0.47490000  0.60690000  0.86440000  1
  H  H33  1  0.47490000  0.89310000  0.86440000  1
  H  H34  1  0.47940000  0.17240000  0.95610000  1
  H  H35  1  0.47940000  0.32760000  0.95610000  1
  H  H36  1  0.52060000  0.67240000  0.04390000  1
  H  H37  1  0.52060000  0.82760000  0.04390000  1
  H  H38  1  0.52510000  0.10690000  0.13560000  1
  H  H39  1  0.52510000  0.39310000  0.13560000  1
  H  H40  1  0.52940000  0.25000000  0.41190000  1
  H  H41  1  0.52940000  0.75000000  0.47430000  1
  H  H42  1  0.54470000  0.01010000  0.81900000  1
  H  H43  1  0.54470000  0.48990000  0.81900000  1
  H  H44  1  0.57400000  0.17900000  0.01830000  1
  H  H45  1  0.57400000  0.32100000  0.01830000  1
  H  H46  1  0.62710000  0.75000000  0.79280000  1
  H  H47  1  0.67430000  0.57030000  0.04140000  1
  H  H48  1  0.67430000  0.92970000  0.04140000  1
  H  H49  1  0.68260000  0.75000000  0.09070000  1
  H  H50  1  0.74800000  0.54580000  0.48800000  1
  H  H51  1  0.74800000  0.95420000  0.48800000  1
  H  H52  1  0.75200000  0.04580000  0.98800000  1
  H  H53  1  0.75200000  0.45420000  0.98800000  1
  H  H54  1  0.81740000  0.25000000  0.59070000  1
  H  H55  1  0.82570000  0.07030000  0.54140000  1
  H  H56  1  0.82570000  0.42970000  0.54140000  1
  H  H57  1  0.87290000  0.25000000  0.29280000  1
  H  H58  1  0.92600000  0.67900000  0.51830000  1
  H  H59  1  0.92600000  0.82100000  0.51830000  1
  H  H60  1  0.95530000  0.51010000  0.31900000  1
  H  H61  1  0.95530000  0.98990000  0.31900000  1
  H  H62  1  0.97060000  0.25000000  0.97430000  1
  H  H63  1  0.97060000  0.75000000  0.91190000  1
  H  H64  1  0.97490000  0.60690000  0.63560000  1
  H  H65  1  0.97490000  0.89310000  0.63560000  1
  H  H66  1  0.97940000  0.17240000  0.54390000  1
  H  H67  1  0.97940000  0.32760000  0.54390000  1
  C  C68  1  0.01170000  0.67540000  0.50750000  1
  C  C69  1  0.01170000  0.82460000  0.50750000  1
  C  C70  1  0.02820000  0.57580000  0.60900000  1
  C  C71  1  0.02820000  0.92420000  0.60900000  1
  C  C72  1  0.05270000  0.25000000  0.98510000  1
  C  C73  1  0.06330000  0.60070000  0.54110000  1
  C  C74  1  0.06330000  0.89930000  0.54110000  1
  C  C75  1  0.07160000  0.50640000  0.63640000  1
  C  C76  1  0.07160000  0.99360000  0.63640000  1
  C  C77  1  0.08790000  0.25000000  0.05250000  1
  C  C78  1  0.10070000  0.25000000  0.85270000  1
  C  C79  1  0.13910000  0.25000000  0.92910000  1
  C  C80  1  0.14820000  0.55480000  0.50370000  1
  C  C81  1  0.14820000  0.94520000  0.50370000  1
  C  C82  1  0.15360000  0.04040000  0.60080000  1
  C  C83  1  0.15360000  0.45960000  0.60080000  1
  C  C84  1  0.19370000  0.01580000  0.53580000  1
  C  C85  1  0.19370000  0.48420000  0.53580000  1
  C  C86  1  0.19580000  0.11760000  0.63100000  1
  C  C87  1  0.19580000  0.38240000  0.63100000  1
  C  C88  1  0.20480000  0.75000000  0.51850000  1
  C  C89  1  0.21140000  0.25000000  0.07220000  1
  C  C90  1  0.24050000  0.75000000  0.44540000  1
  C  C91  1  0.24680000  0.25000000  0.15190000  1
  C  C92  1  0.25320000  0.75000000  0.65190000  1
  C  C93  1  0.25950000  0.25000000  0.94540000  1
  C  C94  1  0.28860000  0.75000000  0.57220000  1
  C  C95  1  0.29520000  0.25000000  0.01850000  1
  C  C96  1  0.30420000  0.61760000  0.13100000  1
  C  C97  1  0.30420000  0.88240000  0.13100000  1
  C  C98  1  0.30630000  0.51580000  0.03580000  1
  C  C99  1  0.30630000  0.98420000  0.03580000  1
  C  C100  1  0.34640000  0.54040000  0.10080000  1
  C  C101  1  0.34640000  0.95960000  0.10080000  1
  C  C102  1  0.35180000  0.05480000  0.00370000  1
  C  C103  1  0.35180000  0.44520000  0.00370000  1
  C  C104  1  0.36090000  0.75000000  0.42910000  1
  C  C105  1  0.39930000  0.75000000  0.35270000  1
  C  C106  1  0.41210000  0.75000000  0.55250000  1
  C  C107  1  0.42840000  0.00640000  0.13640000  1
  C  C108  1  0.42840000  0.49360000  0.13640000  1
  C  C109  1  0.43670000  0.10070000  0.04110000  1
  C  C110  1  0.43670000  0.39930000  0.04110000  1
  C  C111  1  0.44730000  0.75000000  0.48510000  1
  C  C112  1  0.47180000  0.07580000  0.10900000  1
  C  C113  1  0.47180000  0.42420000  0.10900000  1
  C  C114  1  0.48830000  0.17540000  0.00750000  1
  C  C115  1  0.48830000  0.32460000  0.00750000  1
  C  C116  1  0.51170000  0.67540000  0.99250000  1
  C  C117  1  0.51170000  0.82460000  0.99250000  1
  C  C118  1  0.52820000  0.57580000  0.89100000  1
  C  C119  1  0.52820000  0.92420000  0.89100000  1
  C  C120  1  0.55270000  0.25000000  0.51490000  1
  C  C121  1  0.56330000  0.60070000  0.95890000  1
  C  C122  1  0.56330000  0.89930000  0.95890000  1
  C  C123  1  0.57160000  0.50640000  0.86360000  1
  C  C124  1  0.57160000  0.99360000  0.86360000  1
  C  C125  1  0.58790000  0.25000000  0.44750000  1
  C  C126  1  0.60070000  0.25000000  0.64730000  1
  C  C127  1  0.63910000  0.25000000  0.57090000  1
  C  C128  1  0.64820000  0.55480000  0.99630000  1
  C  C129  1  0.64820000  0.94520000  0.99630000  1
  C  C130  1  0.65360000  0.04040000  0.89920000  1
  C  C131  1  0.65360000  0.45960000  0.89920000  1
  C  C132  1  0.69370000  0.01580000  0.96420000  1
  C  C133  1  0.69370000  0.48420000  0.96420000  1
  C  C134  1  0.69580000  0.11760000  0.86900000  1
  C  C135  1  0.69580000  0.38240000  0.86900000  1
  C  C136  1  0.70480000  0.75000000  0.98150000  1
  C  C137  1  0.71140000  0.25000000  0.42780000  1
  C  C138  1  0.74050000  0.75000000  0.05460000  1
  C  C139  1  0.74680000  0.25000000  0.34810000  1
  C  C140  1  0.75320000  0.75000000  0.84810000  1
  C  C141  1  0.75950000  0.25000000  0.55460000  1
  C  C142  1  0.78860000  0.75000000  0.92780000  1
  C  C143  1  0.79520000  0.25000000  0.48150000  1
  C  C144  1  0.80420000  0.61760000  0.36900000  1
  C  C145  1  0.80420000  0.88240000  0.36900000  1
  C  C146  1  0.80630000  0.51580000  0.46420000  1
  C  C147  1  0.80630000  0.98420000  0.46420000  1
  C  C148  1  0.84640000  0.54040000  0.39920000  1
  C  C149  1  0.84640000  0.95960000  0.39920000  1
  C  C150  1  0.85180000  0.05480000  0.49630000  1
  C  C151  1  0.85180000  0.44520000  0.49630000  1
  C  C152  1  0.86090000  0.75000000  0.07090000  1
  C  C153  1  0.89930000  0.75000000  0.14730000  1
  C  C154  1  0.91210000  0.75000000  0.94750000  1
  C  C155  1  0.92840000  0.00640000  0.36360000  1
  C  C156  1  0.92840000  0.49360000  0.36360000  1
  C  C157  1  0.93670000  0.10070000  0.45890000  1
  C  C158  1  0.93670000  0.39930000  0.45890000  1
  C  C159  1  0.94730000  0.75000000  0.01490000  1
  C  C160  1  0.97180000  0.07580000  0.39100000  1
  C  C161  1  0.97180000  0.42420000  0.39100000  1
  C  C162  1  0.98830000  0.17540000  0.49250000  1
  C  C163  1  0.98830000  0.32460000  0.49250000  1
  N  N164  1  0.07580000  0.75000000  0.53500000  1
  N  N165  1  0.42420000  0.25000000  0.03500000  1
  N  N166  1  0.57580000  0.75000000  0.96500000  1
  N  N167  1  0.92420000  0.25000000  0.46500000  1
  O  O168  1  0.00910000  0.75000000  0.16160000  1
  O  O169  1  0.13900000  0.75000000  0.66410000  1
  O  O170  1  0.13960000  0.14950000  0.68180000  1
  O  O171  1  0.13960000  0.35050000  0.68180000  1
  O  O172  1  0.16900000  0.25000000  0.19590000  1
  O  O173  1  0.18390000  0.25000000  0.80730000  1
  O  O174  1  0.21180000  0.65210000  0.10660000  1
  O  O175  1  0.21180000  0.84790000  0.10660000  1
  O  O176  1  0.28820000  0.15210000  0.60660000  1
  O  O177  1  0.28820000  0.34790000  0.60660000  1
  O  O178  1  0.31610000  0.75000000  0.30730000  1
  O  O179  1  0.33100000  0.75000000  0.69590000  1
  O  O180  1  0.36040000  0.64950000  0.18180000  1
  O  O181  1  0.36040000  0.85050000  0.18180000  1
  O  O182  1  0.36100000  0.25000000  0.16410000  1
  O  O183  1  0.49090000  0.25000000  0.66160000  1
  O  O184  1  0.50910000  0.75000000  0.33840000  1
  O  O185  1  0.63900000  0.75000000  0.83590000  1
  O  O186  1  0.63960000  0.14950000  0.81820000  1
  O  O187  1  0.63960000  0.35050000  0.81820000  1
  O  O188  1  0.66900000  0.25000000  0.30410000  1
  O  O189  1  0.68390000  0.25000000  0.69270000  1
  O  O190  1  0.71180000  0.65210000  0.39340000  1
  O  O191  1  0.71180000  0.84790000  0.39340000  1
  O  O192  1  0.78820000  0.15210000  0.89340000  1
  O  O193  1  0.78820000  0.34790000  0.89340000  1
  O  O194  1  0.81610000  0.75000000  0.19270000  1
  O  O195  1  0.83100000  0.75000000  0.80410000  1
  O  O196  1  0.86040000  0.64950000  0.31820000  1
  O  O197  1  0.86040000  0.85050000  0.31820000  1
  O  O198  1  0.86100000  0.25000000  0.33590000  1
  O  O199  1  0.99090000  0.25000000  0.83840000  1
