# generated using pymatgen
data_CeH3C9(NO2)3
_symmetry_space_group_name_H-M   'P 1'
_cell_length_a   6.09900000
_cell_length_b   10.50100000
_cell_length_c   13.68800000
_cell_angle_alpha   72.60700000
_cell_angle_beta   88.78900000
_cell_angle_gamma   88.98000000
_symmetry_Int_Tables_number   1
_chemical_formula_structural   CeH3C9(NO2)3
_chemical_formula_sum   'Ce2 H6 C18 N6 O12'
_cell_volume   836.32523863
_cell_formula_units_Z   2
loop_
 _symmetry_equiv_pos_site_id
 _symmetry_equiv_pos_as_xyz
  1  'x, y, z'
loop_
 _atom_site_type_symbol
 _atom_site_label
 _atom_site_symmetry_multiplicity
 _atom_site_fract_x
 _atom_site_fract_y
 _atom_site_fract_z
 _atom_site_occupancy
  Ce  Ce0  1  0.25140000  0.66102000  0.70931000  1
  Ce  Ce1  1  0.74860000  0.33898000  0.29069000  1
  H  H2  1  0.18940000  0.08530000  0.35110000  1
  H  H3  1  0.29710000  0.53190000  0.13120000  1
  H  H4  1  0.34900000  0.57380000  0.47140000  1
  H  H5  1  0.65100000  0.42620000  0.52860000  1
  H  H6  1  0.70290000  0.46810000  0.86880000  1
  H  H7  1  0.81060000  0.91470000  0.64890000  1
  C  C8  1  0.10890000  0.05170000  0.41160000  1
  C  C9  1  0.10920000  0.65700000  0.95190000  1
  C  C10  1  0.11660000  0.47100000  0.42570000  1
  C  C11  1  0.18670000  0.93970000  0.48640000  1
  C  C12  1  0.20540000  0.54420000  0.48440000  1
  C  C13  1  0.24750000  0.43260000  0.34330000  1
  C  C14  1  0.31740000  0.57380000  0.97770000  1
  C  C15  1  0.38260000  0.51770000  0.07830000  1
  C  C16  1  0.39930000  0.86870000  0.47310000  1
  C  C17  1  0.60070000  0.13130000  0.52690000  1
  C  C18  1  0.61740000  0.48230000  0.92170000  1
  C  C19  1  0.68260000  0.42620000  0.02230000  1
  C  C20  1  0.75250000  0.56740000  0.65670000  1
  C  C21  1  0.79460000  0.45580000  0.51560000  1
  C  C22  1  0.81330000  0.06030000  0.51360000  1
  C  C23  1  0.88340000  0.52900000  0.57430000  1
  C  C24  1  0.89080000  0.34300000  0.04810000  1
  C  C25  1  0.89110000  0.94830000  0.58840000  1
  N  N26  1  0.07860000  0.88810000  0.57510000  1
  N  N27  1  0.08980000  0.57270000  0.55870000  1
  N  N28  1  0.43440000  0.55630000  0.89950000  1
  N  N29  1  0.56560000  0.44370000  0.10050000  1
  N  N30  1  0.91020000  0.42730000  0.44130000  1
  N  N31  1  0.92140000  0.11190000  0.42490000  1
  O  O32  1  0.00150000  0.32110000  0.97780000  1
  O  O33  1  0.06240000  0.69760000  0.85840000  1
  O  O34  1  0.15540000  0.35890000  0.30110000  1
  O  O35  1  0.43900000  0.47740000  0.32510000  1
  O  O36  1  0.45420000  0.77160000  0.54710000  1
  O  O37  1  0.49740000  0.08940000  0.60970000  1
  O  O38  1  0.50260000  0.91060000  0.39030000  1
  O  O39  1  0.54580000  0.22840000  0.45290000  1
  O  O40  1  0.56100000  0.52260000  0.67490000  1
  O  O41  1  0.84460000  0.64110000  0.69890000  1
  O  O42  1  0.93760000  0.30240000  0.14160000  1
  O  O43  1  0.99850000  0.67890000  0.02220000  1
