# generated using pymatgen
data_Co3H13(CO)11
_symmetry_space_group_name_H-M   'P 1'
_cell_length_a   9.08620000
_cell_length_b   10.72990000
_cell_length_c   19.54960000
_cell_angle_alpha   89.45200000
_cell_angle_beta   87.33700000
_cell_angle_gamma   80.34700000
_symmetry_Int_Tables_number   1
_chemical_formula_structural   Co3H13(CO)11
_chemical_formula_sum   'Co12 H52 C44 O44'
_cell_volume   1876.95091086
_cell_formula_units_Z   4
loop_
 _symmetry_equiv_pos_site_id
 _symmetry_equiv_pos_as_xyz
  1  'x, y, z'
loop_
 _atom_site_type_symbol
 _atom_site_label
 _atom_site_symmetry_multiplicity
 _atom_site_fract_x
 _atom_site_fract_y
 _atom_site_fract_z
 _atom_site_occupancy
  Co  Co0  1  0.00000000  0.00000000  0.00000000  1
  Co  Co1  1  0.00000000  0.00000000  0.50000000  1
  Co  Co2  1  0.00000000  0.50000000  0.00000000  1
  Co  Co3  1  0.00000000  0.50000000  0.50000000  1
  Co  Co4  1  0.05762000  0.74403000  0.91108000  1
  Co  Co5  1  0.06547000  0.24082000  0.41060000  1
  Co  Co6  1  0.15303000  0.76516000  0.72303000  1
  Co  Co7  1  0.17207000  0.25159000  0.22156000  1
  Co  Co8  1  0.82793000  0.74841000  0.77844000  1
  Co  Co9  1  0.84697000  0.23484000  0.27697000  1
  Co  Co10  1  0.93453000  0.75918000  0.58940000  1
  Co  Co11  1  0.94238000  0.25597000  0.08892000  1
  H  H12  1  0.00120000  0.63990000  0.35040000  1
  H  H13  1  0.00290000  0.13940000  0.84880000  1
  H  H14  1  0.06300000  0.63000000  0.80700000  1
  H  H15  1  0.07800000  0.11700000  0.31000000  1
  H  H16  1  0.11360000  0.73780000  0.17050000  1
  H  H17  1  0.11610000  0.23930000  0.67140000  1
  H  H18  1  0.26410000  0.86240000  0.07760000  1
  H  H19  1  0.27370000  0.37220000  0.57940000  1
  H  H20  1  0.28250000  0.81500000  0.44930000  1
  H  H21  1  0.29500000  0.84900000  0.15760000  1
  H  H22  1  0.30180000  0.30690000  0.95170000  1
  H  H23  1  0.30240000  0.35710000  0.65970000  1
  H  H24  1  0.35570000  0.49650000  0.03980000  1
  H  H25  1  0.36700000  0.98210000  0.54330000  1
  H  H26  1  0.36780000  0.57040000  0.53280000  1
  H  H27  1  0.36810000  0.07180000  0.03200000  1
  H  H28  1  0.44510000  0.03260000  0.88740000  1
  H  H29  1  0.44530000  0.53920000  0.38840000  1
  H  H30  1  0.45190000  0.83540000  0.43610000  1
  H  H31  1  0.46200000  0.34690000  0.93780000  1
  H  H32  1  0.46450000  0.84420000  0.54770000  1
  H  H33  1  0.46720000  0.36610000  0.04850000  1
  H  H34  1  0.49870000  0.86680000  0.00310000  1
  H  H35  1  0.49900000  0.39100000  0.37520000  1
  H  H36  1  0.49910000  0.11600000  0.12340000  1
  H  H37  1  0.49920000  0.36640000  0.50120000  1
  H  H38  1  0.50080000  0.63360000  0.49880000  1
  H  H39  1  0.50090000  0.88400000  0.87660000  1
  H  H40  1  0.50100000  0.60900000  0.62480000  1
  H  H41  1  0.50130000  0.13320000  0.99690000  1
  H  H42  1  0.53280000  0.63390000  0.95150000  1
  H  H43  1  0.53550000  0.15580000  0.45230000  1
  H  H44  1  0.53800000  0.65310000  0.06220000  1
  H  H45  1  0.54810000  0.16460000  0.56390000  1
  H  H46  1  0.55470000  0.46080000  0.61160000  1
  H  H47  1  0.55490000  0.96740000  0.11260000  1
  H  H48  1  0.63190000  0.92820000  0.96800000  1
  H  H49  1  0.63220000  0.42960000  0.46720000  1
  H  H50  1  0.63300000  0.01790000  0.45670000  1
  H  H51  1  0.64430000  0.50350000  0.96020000  1
  H  H52  1  0.69760000  0.64290000  0.34030000  1
  H  H53  1  0.69820000  0.69310000  0.04830000  1
  H  H54  1  0.70500000  0.15100000  0.84240000  1
  H  H55  1  0.71750000  0.18500000  0.55070000  1
  H  H56  1  0.72630000  0.62780000  0.42060000  1
  H  H57  1  0.73590000  0.13760000  0.92240000  1
  H  H58  1  0.88390000  0.76070000  0.32860000  1
  H  H59  1  0.88640000  0.26220000  0.82950000  1
  H  H60  1  0.92200000  0.88300000  0.69000000  1
  H  H61  1  0.93700000  0.37000000  0.19300000  1
  H  H62  1  0.99710000  0.86060000  0.15120000  1
  H  H63  1  0.99880000  0.36010000  0.64960000  1
  C  C64  1  0.05410000  0.73850000  0.07043000  1
  C  C65  1  0.06830000  0.23800000  0.56934000  1
  C  C66  1  0.08800000  0.80260000  0.13465000  1
  C  C67  1  0.09200000  0.30340000  0.63500000  1
  C  C68  1  0.16030000  0.52260000  0.63676000  1
  C  C69  1  0.16440000  0.01770000  0.13338000  1
  C  C70  1  0.21780000  0.87830000  0.12422000  1
  C  C71  1  0.22570000  0.38480000  0.62590000  1
  C  C72  1  0.24570000  0.84910000  0.58036000  1
  C  C73  1  0.25010000  0.35450000  0.07984000  1
  C  C74  1  0.28500000  0.43200000  0.41869000  1
  C  C75  1  0.28650000  0.92530000  0.91906000  1
  C  C76  1  0.28920000  0.48750000  0.91411000  1
  C  C77  1  0.30000000  0.99680000  0.42020000  1
  C  C78  1  0.35320000  0.87400000  0.45649000  1
  C  C79  1  0.35930000  0.37670000  0.95663000  1
  C  C80  1  0.36670000  0.89140000  0.53446000  1
  C  C81  1  0.36690000  0.40390000  0.03352000  1
  C  C82  1  0.44440000  0.45390000  0.40799000  1
  C  C83  1  0.44500000  0.94830000  0.90834000  1
  C  C84  1  0.47720000  0.55780000  0.52333000  1
  C  C85  1  0.47760000  0.05860000  0.02264000  1
  C  C86  1  0.52240000  0.94140000  0.97736000  1
  C  C87  1  0.52280000  0.44220000  0.47667000  1
  C  C88  1  0.55500000  0.05170000  0.09166000  1
  C  C89  1  0.55560000  0.54610000  0.59201000  1
  C  C90  1  0.63310000  0.59610000  0.96648000  1
  C  C91  1  0.63330000  0.10860000  0.46554000  1
  C  C92  1  0.64070000  0.62330000  0.04337000  1
  C  C93  1  0.64680000  0.12600000  0.54351000  1
  C  C94  1  0.70000000  0.00320000  0.57980000  1
  C  C95  1  0.71080000  0.51250000  0.08589000  1
  C  C96  1  0.71350000  0.07470000  0.08094000  1
  C  C97  1  0.71500000  0.56800000  0.58131000  1
  C  C98  1  0.74990000  0.64550000  0.92016000  1
  C  C99  1  0.75430000  0.15090000  0.41964000  1
  C  C100  1  0.77430000  0.61520000  0.37410000  1
  C  C101  1  0.78220000  0.12170000  0.87578000  1
  C  C102  1  0.83560000  0.98230000  0.86662000  1
  C  C103  1  0.83970000  0.47740000  0.36324000  1
  C  C104  1  0.90800000  0.69660000  0.36500000  1
  C  C105  1  0.91200000  0.19740000  0.86535000  1
  C  C106  1  0.93170000  0.76200000  0.43066000  1
  C  C107  1  0.94590000  0.26150000  0.92957000  1
  O  O108  1  0.02150000  0.62830000  0.07558000  1
  O  O109  1  0.03600000  0.12870000  0.57412000  1
  O  O110  1  0.04350000  0.70270000  0.81188000  1
  O  O111  1  0.05940000  0.79820000  0.01410000  1
  O  O112  1  0.06240000  0.19200000  0.31075000  1
  O  O113  1  0.06830000  0.57500000  0.59292000  1
  O  O114  1  0.07040000  0.30040000  0.51403000  1
  O  O115  1  0.07310000  0.07370000  0.09014000  1
  O  O116  1  0.11560000  0.85220000  0.55689000  1
  O  O117  1  0.12010000  0.35560000  0.05686000  1
  O  O118  1  0.17250000  0.05950000  0.44203000  1
  O  O119  1  0.17470000  0.56070000  0.94034000  1
  O  O120  1  0.19500000  0.57770000  0.68809000  1
  O  O121  1  0.19560000  0.51580000  0.45204000  1
  O  O122  1  0.19630000  0.01060000  0.95067000  1
  O  O123  1  0.20880000  0.07070000  0.18326000  1
  O  O124  1  0.25090000  0.33190000  0.39461000  1
  O  O125  1  0.25520000  0.82070000  0.89941000  1
  O  O126  1  0.27890000  0.81550000  0.63984000  1
  O  O127  1  0.28790000  0.31610000  0.13794000  1
  O  O128  1  0.34050000  0.49940000  0.85441000  1
  O  O129  1  0.37750000  0.03550000  0.37358000  1
  O  O130  1  0.62250000  0.96450000  0.62642000  1
  O  O131  1  0.65950000  0.50060000  0.14559000  1
  O  O132  1  0.71210000  0.68390000  0.86206000  1
  O  O133  1  0.72110000  0.18450000  0.36016000  1
  O  O134  1  0.74480000  0.17930000  0.10059000  1
  O  O135  1  0.74910000  0.66810000  0.60539000  1
  O  O136  1  0.79120000  0.92930000  0.81674000  1
  O  O137  1  0.80370000  0.98940000  0.04933000  1
  O  O138  1  0.80440000  0.48420000  0.54796000  1
  O  O139  1  0.80500000  0.42230000  0.31191000  1
  O  O140  1  0.82530000  0.43930000  0.05966000  1
  O  O141  1  0.82750000  0.94050000  0.55797000  1
  O  O142  1  0.87990000  0.64440000  0.94314000  1
  O  O143  1  0.88440000  0.14780000  0.44311000  1
  O  O144  1  0.92690000  0.92630000  0.90986000  1
  O  O145  1  0.92960000  0.69960000  0.48597000  1
  O  O146  1  0.93170000  0.42500000  0.40708000  1
  O  O147  1  0.93760000  0.80800000  0.68925000  1
  O  O148  1  0.94060000  0.20180000  0.98590000  1
  O  O149  1  0.95650000  0.29730000  0.18812000  1
  O  O150  1  0.96400000  0.87130000  0.42588000  1
  O  O151  1  0.97850000  0.37170000  0.92442000  1
