# generated using pymatgen
data_CuH8C6N8O
_symmetry_space_group_name_H-M   'P 1'
_cell_length_a   7.90730000
_cell_length_b   12.29960000
_cell_length_c   12.29960000
_cell_angle_alpha   90.00000000
_cell_angle_beta   90.00000000
_cell_angle_gamma   90.00000000
_symmetry_Int_Tables_number   1
_chemical_formula_structural   CuH8C6N8O
_chemical_formula_sum   'Cu4 H32 C24 N32 O4'
_cell_volume   1196.21761043
_cell_formula_units_Z   4
loop_
 _symmetry_equiv_pos_site_id
 _symmetry_equiv_pos_as_xyz
  1  'x, y, z'
loop_
 _atom_site_type_symbol
 _atom_site_label
 _atom_site_symmetry_multiplicity
 _atom_site_fract_x
 _atom_site_fract_y
 _atom_site_fract_z
 _atom_site_occupancy
  Cu  Cu0  1  0.09757000  0.98460000  0.32355000  1
  Cu  Cu1  1  0.34757000  0.32355000  0.01540000  1
  Cu  Cu2  1  0.59757000  0.01540000  0.67645000  1
  Cu  Cu3  1  0.84757000  0.67645000  0.98460000  1
  H  H4  1  0.00480000  0.48860000  0.84120000  1
  H  H5  1  0.01520000  0.77070000  0.70660000  1
  H  H6  1  0.02890000  0.16160000  0.63590000  1
  H  H7  1  0.16470000  0.60970000  0.73730000  1
  H  H8  1  0.17300000  0.81460000  0.77060000  1
  H  H9  1  0.19500000  0.45330000  0.84170000  1
  H  H10  1  0.21020000  0.77620000  0.05410000  1
  H  H11  1  0.24330000  0.89440000  0.09650000  1
  H  H12  1  0.25480000  0.84120000  0.51140000  1
  H  H13  1  0.26520000  0.70660000  0.22930000  1
  H  H14  1  0.27890000  0.63590000  0.83840000  1
  H  H15  1  0.41470000  0.73730000  0.39030000  1
  H  H16  1  0.42300000  0.77060000  0.18540000  1
  H  H17  1  0.44500000  0.84170000  0.54670000  1
  H  H18  1  0.46020000  0.05410000  0.22380000  1
  H  H19  1  0.49330000  0.09650000  0.10560000  1
  H  H20  1  0.50480000  0.51140000  0.15880000  1
  H  H21  1  0.51520000  0.22930000  0.29340000  1
  H  H22  1  0.52890000  0.83840000  0.36410000  1
  H  H23  1  0.66470000  0.39030000  0.26270000  1
  H  H24  1  0.67300000  0.18540000  0.22940000  1
  H  H25  1  0.69500000  0.54670000  0.15830000  1
  H  H26  1  0.71020000  0.22380000  0.94590000  1
  H  H27  1  0.74330000  0.10560000  0.90350000  1
  H  H28  1  0.75480000  0.15880000  0.48860000  1
  H  H29  1  0.76520000  0.29340000  0.77070000  1
  H  H30  1  0.77890000  0.36410000  0.16160000  1
  H  H31  1  0.91470000  0.26270000  0.60970000  1
  H  H32  1  0.92300000  0.22940000  0.81460000  1
  H  H33  1  0.94500000  0.15830000  0.45330000  1
  H  H34  1  0.96020000  0.94590000  0.77620000  1
  H  H35  1  0.99330000  0.90350000  0.89440000  1
  C  C36  1  0.01670000  0.83440000  0.14550000  1
  C  C37  1  0.05660000  0.79080000  0.77800000  1
  C  C38  1  0.11620000  0.50950000  0.98860000  1
  C  C39  1  0.11670000  0.50860000  0.86660000  1
  C  C40  1  0.16540000  0.61620000  0.81590000  1
  C  C41  1  0.19970000  0.82360000  0.11680000  1
  C  C42  1  0.26670000  0.14550000  0.16560000  1
  C  C43  1  0.30660000  0.77800000  0.20920000  1
  C  C44  1  0.36620000  0.98860000  0.49050000  1
  C  C45  1  0.36670000  0.86660000  0.49140000  1
  C  C46  1  0.41540000  0.81590000  0.38380000  1
  C  C47  1  0.44970000  0.11680000  0.17640000  1
  C  C48  1  0.51670000  0.16560000  0.85450000  1
  C  C49  1  0.55660000  0.20920000  0.22200000  1
  C  C50  1  0.61620000  0.49050000  0.01140000  1
  C  C51  1  0.61670000  0.49140000  0.13340000  1
  C  C52  1  0.66540000  0.38380000  0.18410000  1
  C  C53  1  0.69970000  0.17640000  0.88320000  1
  C  C54  1  0.76670000  0.85450000  0.83440000  1
  C  C55  1  0.80660000  0.22200000  0.79080000  1
  C  C56  1  0.86620000  0.01140000  0.50950000  1
  C  C57  1  0.86670000  0.13340000  0.50860000  1
  C  C58  1  0.91540000  0.18410000  0.61620000  1
  C  C59  1  0.94970000  0.88320000  0.82360000  1
  N  N60  1  0.01600000  0.57820000  0.04680000  1
  N  N61  1  0.03870000  0.22590000  0.10870000  1
  N  N62  1  0.04570000  0.55650000  0.15230000  1
  N  N63  1  0.13640000  0.09530000  0.21140000  1
  N  N64  1  0.15710000  0.47840000  0.15730000  1
  N  N65  1  0.20130000  0.44900000  0.05470000  1
  N  N66  1  0.21060000  0.22540000  0.10110000  1
  N  N67  1  0.24390000  0.17290000  0.85300000  1
  N  N68  1  0.26600000  0.04680000  0.42180000  1
  N  N69  1  0.28870000  0.10870000  0.77410000  1
  N  N70  1  0.29570000  0.15230000  0.44350000  1
  N  N71  1  0.38640000  0.21140000  0.90470000  1
  N  N72  1  0.40710000  0.15730000  0.52160000  1
  N  N73  1  0.45130000  0.05470000  0.55100000  1
  N  N74  1  0.46060000  0.10110000  0.77460000  1
  N  N75  1  0.49390000  0.85300000  0.82710000  1
  N  N76  1  0.51600000  0.42180000  0.95320000  1
  N  N77  1  0.53870000  0.77410000  0.89130000  1
  N  N78  1  0.54570000  0.44350000  0.84770000  1
  N  N79  1  0.63640000  0.90470000  0.78860000  1
  N  N80  1  0.65710000  0.52160000  0.84270000  1
  N  N81  1  0.70130000  0.55100000  0.94530000  1
  N  N82  1  0.71060000  0.77460000  0.89890000  1
  N  N83  1  0.74390000  0.82710000  0.14700000  1
  N  N84  1  0.76600000  0.95320000  0.57820000  1
  N  N85  1  0.78870000  0.89130000  0.22590000  1
  N  N86  1  0.79570000  0.84770000  0.55650000  1
  N  N87  1  0.88640000  0.78860000  0.09530000  1
  N  N88  1  0.90710000  0.84270000  0.47840000  1
  N  N89  1  0.95130000  0.94530000  0.44900000  1
  N  N90  1  0.96060000  0.89890000  0.22540000  1
  N  N91  1  0.99390000  0.14700000  0.17290000  1
  O  O92  1  0.04910000  0.69910000  0.84870000  1
  O  O93  1  0.29910000  0.84870000  0.30090000  1
  O  O94  1  0.54910000  0.30090000  0.15130000  1
  O  O95  1  0.79910000  0.15130000  0.69910000  1
