# generated using pymatgen
data_ZnH20C28(NO2)2
_symmetry_space_group_name_H-M   'P 1'
_cell_length_a   8.39850000
_cell_length_b   13.48360000
_cell_length_c   14.18630649
_cell_angle_alpha   61.62545151
_cell_angle_beta   85.79393485
_cell_angle_gamma   81.12200000
_symmetry_Int_Tables_number   1
_chemical_formula_structural   ZnH20C28(NO2)2
_chemical_formula_sum   'Zn2 H40 C56 N4 O8'
_cell_volume   1396.54767569
_cell_formula_units_Z   2
loop_
 _symmetry_equiv_pos_site_id
 _symmetry_equiv_pos_as_xyz
  1  'x, y, z'
loop_
 _atom_site_type_symbol
 _atom_site_label
 _atom_site_symmetry_multiplicity
 _atom_site_fract_x
 _atom_site_fract_y
 _atom_site_fract_z
 _atom_site_occupancy
  Zn  Zn0  1  0.80357000  0.39108000  0.81766000  1
  Zn  Zn1  1  0.30357000  0.20874000  0.18234000  1
  H  H2  1  0.95560000  0.27470000  0.12500000  1
  H  H3  1  0.93010000  0.48090000  0.07840000  1
  H  H4  1  0.92970000  0.18930000  0.47960000  1
  H  H5  1  0.91740000  0.74150000  0.77580000  1
  H  H6  1  0.81160000  0.05540000  0.25960000  1
  H  H7  1  0.80570000  0.73570000  0.59420000  1
  H  H8  1  0.80400000  0.20650000  0.76720000  1
  H  H9  1  0.72770000  0.02980000  0.82880000  1
  H  H10  1  0.70790000  0.30950000  0.19500000  1
  H  H11  1  0.70420000  0.25500000  0.52700000  1
  H  H12  1  0.68210000  0.20860000  0.03860000  1
  H  H13  1  0.67010000  0.55620000  0.59840000  1
  H  H14  1  0.60900000  0.88050000  0.89100000  1
  H  H15  1  0.60560000  0.02830000  0.11080000  1
  H  H16  1  0.56920000  0.86100000  0.09340000  1
  H  H17  1  0.56800000  0.85090000  0.52000000  1
  H  H18  1  0.55110000  0.28050000  0.66200000  1
  H  H19  1  0.53860000  0.28910000  0.34960000  1
  H  H20  1  0.52670000  0.73480000  0.86100000  1
  H  H21  1  0.50580000  0.69210000  0.16320000  1
  H  H22  1  0.45560000  0.39970000  0.87500000  1
  H  H23  1  0.43010000  0.55930000  0.92160000  1
  H  H24  1  0.42970000  0.66890000  0.52040000  1
  H  H25  1  0.41740000  0.51730000  0.22420000  1
  H  H26  1  0.31160000  0.31500000  0.74040000  1
  H  H27  1  0.30570000  0.32990000  0.40580000  1
  H  H28  1  0.30400000  0.97370000  0.23280000  1
  H  H29  1  0.22770000  0.85860000  0.17120000  1
  H  H30  1  0.20790000  0.50450000  0.80500000  1
  H  H31  1  0.20420000  0.78200000  0.47300000  1
  H  H32  1  0.18210000  0.24720000  0.96140000  1
  H  H33  1  0.17010000  0.15460000  0.40160000  1
  H  H34  1  0.10900000  0.77150000  0.10900000  1
  H  H35  1  0.10560000  0.13910000  0.88920000  1
  H  H36  1  0.06920000  0.95440000  0.90660000  1
  H  H37  1  0.06800000  0.37090000  0.48000000  1
  H  H38  1  0.05110000  0.94250000  0.33800000  1
  H  H39  1  0.03860000  0.63870000  0.65040000  1
  H  H40  1  0.02670000  0.59580000  0.13900000  1
  H  H41  1  0.00580000  0.85530000  0.83680000  1
  C  C42  1  0.99070000  0.77940000  0.88620000  1
  C  C43  1  0.95350000  0.82640000  0.47360000  1
  C  C44  1  0.95220000  0.92280000  0.37440000  1
  C  C45  1  0.94970000  0.25680000  0.19840000  1
  C  C46  1  0.94720000  0.55650000  0.02920000  1
  C  C47  1  0.93900000  0.71150000  0.85000000  1
  C  C48  1  0.93180000  0.20650000  0.40640000  1
  C  C49  1  0.91830000  0.60030000  0.92040000  1
  C  C50  1  0.86670000  0.52890000  0.87760000  1
  C  C51  1  0.81000000  0.99030000  0.32800000  1
  C  C52  1  0.80740000  0.80110000  0.52620000  1
  C  C53  1  0.80100000  0.27770000  0.23920000  1
  C  C54  1  0.79150000  0.25100000  0.34640000  1
  C  C55  1  0.76060000  0.17070000  0.83740000  1
  C  C56  1  0.71570000  0.06500000  0.87360000  1
  C  C57  1  0.69030000  0.17180000  0.99520000  1
  C  C58  1  0.66600000  0.86890000  0.48160000  1
  C  C59  1  0.66330000  0.96380000  0.38080000  1
  C  C60  1  0.65160000  0.00840000  0.97800000  1
  C  C61  1  0.64330000  0.06370000  0.03900000  1
  C  C62  1  0.63190000  0.27360000  0.39100000  1
  C  C63  1  0.61150000  0.27340000  0.48420000  1
  C  C64  1  0.59620000  0.89790000  0.01940000  1
  C  C65  1  0.57980000  0.84390000  0.96460000  1
  C  C66  1  0.57510000  0.54640000  0.64080000  1
  C  C67  1  0.52150000  0.73340000  0.00440000  1
  C  C68  1  0.50820000  0.03720000  0.33160000  1
  C  C69  1  0.50230000  0.69150000  0.93480000  1
  C  C70  1  0.49070000  0.66560000  0.11380000  1
  C  C71  1  0.45350000  0.30000000  0.52640000  1
  C  C72  1  0.45220000  0.29720000  0.62560000  1
  C  C73  1  0.44970000  0.45520000  0.80160000  1
  C  C74  1  0.44720000  0.58570000  0.97080000  1
  C  C75  1  0.43900000  0.56150000  0.15000000  1
  C  C76  1  0.43180000  0.61290000  0.59360000  1
  C  C77  1  0.41830000  0.52070000  0.07960000  1
  C  C78  1  0.36670000  0.40650000  0.12240000  1
  C  C79  1  0.31000000  0.31830000  0.67200000  1
  C  C80  1  0.30740000  0.32730000  0.47380000  1
  C  C81  1  0.30100000  0.51690000  0.76080000  1
  C  C82  1  0.29150000  0.59740000  0.65360000  1
  C  C83  1  0.26060000  0.00810000  0.16260000  1
  C  C84  1  0.21570000  0.93860000  0.12640000  1
  C  C85  1  0.19030000  0.16700000  0.00480000  1
  C  C86  1  0.16600000  0.35050000  0.51840000  1
  C  C87  1  0.16330000  0.34460000  0.61920000  1
  C  C88  1  0.15160000  0.98640000  0.02200000  1
  C  C89  1  0.14330000  0.10270000  0.96100000  1
  C  C90  1  0.13190000  0.66460000  0.60900000  1
  C  C91  1  0.11150000  0.75760000  0.51580000  1
  C  C92  1  0.09620000  0.91730000  0.98060000  1
  C  C93  1  0.07980000  0.80850000  0.03540000  1
  C  C94  1  0.07510000  0.18720000  0.35920000  1
  C  C95  1  0.02150000  0.73780000  0.99560000  1
  C  C96  1  0.00820000  0.36880000  0.66840000  1
  C  C97  1  0.00230000  0.62630000  0.06520000  1
  N  N98  1  0.74670000  0.22640000  0.89500000  1
  N  N99  1  0.58390000  0.46860000  0.74480000  1
  N  N100  1  0.24670000  0.12140000  0.10500000  1
  N  N101  1  0.08390000  0.21340000  0.25520000  1
  O  O102  1  0.87880000  0.39530000  0.61780000  1
  O  O103  1  0.84720000  0.42431000  0.94038000  1
  O  O104  1  0.84280000  0.56915000  0.77910000  1
  O  O105  1  0.51460000  0.11920000  0.23820000  1
  O  O106  1  0.37880000  0.01310000  0.38220000  1
  O  O107  1  0.34720000  0.36469000  0.05962000  1
  O  O108  1  0.34280000  0.34825000  0.22090000  1
  O  O109  1  0.01460000  0.35740000  0.76180000  1
