# generated using pymatgen
data_EuH15(C4O)6
_symmetry_space_group_name_H-M   'P 1'
_cell_length_a   16.57360000
_cell_length_b   21.78970000
_cell_length_c   35.13200000
_cell_angle_alpha   90.00000000
_cell_angle_beta   90.00000000
_cell_angle_gamma   90.00000000
_symmetry_Int_Tables_number   1
_chemical_formula_structural   EuH15(C4O)6
_chemical_formula_sum   'Eu8 H120 C192 O48'
_cell_volume   12687.35167509
_cell_formula_units_Z   8
loop_
 _symmetry_equiv_pos_site_id
 _symmetry_equiv_pos_as_xyz
  1  'x, y, z'
loop_
 _atom_site_type_symbol
 _atom_site_label
 _atom_site_symmetry_multiplicity
 _atom_site_fract_x
 _atom_site_fract_y
 _atom_site_fract_z
 _atom_site_occupancy
  Eu  Eu0  1  0.17561000  0.39480000  0.87925000  1
  Eu  Eu1  1  0.24283000  0.57432000  0.88597000  1
  Eu  Eu2  1  0.25717000  0.42568000  0.38597000  1
  Eu  Eu3  1  0.32439000  0.60520000  0.37925000  1
  Eu  Eu4  1  0.67561000  0.10520000  0.12075000  1
  Eu  Eu5  1  0.74283000  0.92568000  0.11403000  1
  Eu  Eu6  1  0.75717000  0.07432000  0.61403000  1
  Eu  Eu7  1  0.82439000  0.89480000  0.62075000  1
  H  H8  1  0.01680000  0.93800000  0.64250000  1
  H  H9  1  0.03600000  0.65310000  0.39010000  1
  H  H10  1  0.04150000  0.12270000  0.62560000  1
  H  H11  1  0.06510000  0.47050000  0.40300000  1
  H  H12  1  0.07350000  0.95490000  0.10860000  1
  H  H13  1  0.10190000  0.13980000  0.12140000  1
  H  H14  1  0.12150000  0.97870000  0.92030000  1
  H  H15  1  0.13320000  0.39810000  0.00920000  1
  H  H16  1  0.13480000  0.87600000  0.94900000  1
  H  H17  1  0.14100000  0.07670000  0.93080000  1
  H  H18  1  0.14350000  0.40140000  0.07560000  1
  H  H19  1  0.15290000  0.18510000  0.93520000  1
  H  H20  1  0.15520000  0.77010000  0.94600000  1
  H  H21  1  0.15860000  0.92760000  0.64000000  1
  H  H22  1  0.18020000  0.11010000  0.62230000  1
  H  H23  1  0.18170000  0.44690000  0.13320000  1
  H  H24  1  0.19180000  0.89260000  0.83750000  1
  H  H25  1  0.19790000  0.98390000  0.84960000  1
  H  H26  1  0.19960000  0.95180000  0.11960000  1
  H  H27  1  0.20630000  0.78510000  0.83350000  1
  H  H28  1  0.21000000  0.08280000  0.82170000  1
  H  H29  1  0.21400000  0.43250000  0.19050000  1
  H  H30  1  0.21810000  0.07800000  0.12020000  1
  H  H31  1  0.21960000  0.57350000  0.00470000  1
  H  H32  1  0.22190000  0.19090000  0.82440000  1
  H  H33  1  0.22540000  0.42930000  0.25710000  1
  H  H34  1  0.22730000  0.57580000  0.07090000  1
  H  H35  1  0.23170000  0.56690000  0.13190000  1
  H  H36  1  0.24220000  0.38900000  0.76090000  1
  H  H37  1  0.24400000  0.61770000  0.19440000  1
  H  H38  1  0.25600000  0.38230000  0.69440000  1
  H  H39  1  0.25780000  0.61100000  0.26090000  1
  H  H40  1  0.26830000  0.43310000  0.63190000  1
  H  H41  1  0.27270000  0.42420000  0.57090000  1
  H  H42  1  0.27460000  0.57070000  0.75710000  1
  H  H43  1  0.27810000  0.80910000  0.32440000  1
  H  H44  1  0.28040000  0.42650000  0.50470000  1
  H  H45  1  0.28190000  0.92200000  0.62020000  1
  H  H46  1  0.28600000  0.56750000  0.69050000  1
  H  H47  1  0.29000000  0.91720000  0.32170000  1
  H  H48  1  0.29370000  0.21490000  0.33350000  1
  H  H49  1  0.30040000  0.04820000  0.61960000  1
  H  H50  1  0.30210000  0.01610000  0.34960000  1
  H  H51  1  0.30820000  0.10740000  0.33750000  1
  H  H52  1  0.31830000  0.55310000  0.63320000  1
  H  H53  1  0.31980000  0.88990000  0.12230000  1
  H  H54  1  0.34140000  0.07240000  0.14000000  1
  H  H55  1  0.34480000  0.22990000  0.44600000  1
  H  H56  1  0.34710000  0.81490000  0.43520000  1
  H  H57  1  0.35650000  0.59860000  0.57560000  1
  H  H58  1  0.35900000  0.92330000  0.43080000  1
  H  H59  1  0.36520000  0.12400000  0.44900000  1
  H  H60  1  0.36680000  0.60190000  0.50920000  1
  H  H61  1  0.37850000  0.02130000  0.42030000  1
  H  H62  1  0.39810000  0.86020000  0.62140000  1
  H  H63  1  0.42650000  0.04510000  0.60860000  1
  H  H64  1  0.43490000  0.52950000  0.90300000  1
  H  H65  1  0.45850000  0.87730000  0.12560000  1
  H  H66  1  0.46400000  0.34690000  0.89010000  1
  H  H67  1  0.48320000  0.06200000  0.14250000  1
  H  H68  1  0.51680000  0.56200000  0.35750000  1
  H  H69  1  0.53600000  0.84690000  0.60990000  1
  H  H70  1  0.54150000  0.37730000  0.37440000  1
  H  H71  1  0.56510000  0.02950000  0.59700000  1
  H  H72  1  0.57350000  0.54510000  0.89140000  1
  H  H73  1  0.60190000  0.36020000  0.87860000  1
  H  H74  1  0.62150000  0.52130000  0.07970000  1
  H  H75  1  0.63320000  0.10190000  0.99080000  1
  H  H76  1  0.63480000  0.62400000  0.05100000  1
  H  H77  1  0.64100000  0.42330000  0.06920000  1
  H  H78  1  0.64350000  0.09860000  0.92440000  1
  H  H79  1  0.65290000  0.31490000  0.06480000  1
  H  H80  1  0.65520000  0.72990000  0.05400000  1
  H  H81  1  0.65860000  0.57240000  0.36000000  1
  H  H82  1  0.68020000  0.38990000  0.37770000  1
  H  H83  1  0.68170000  0.05310000  0.86680000  1
  H  H84  1  0.69180000  0.60740000  0.16250000  1
  H  H85  1  0.69790000  0.51610000  0.15040000  1
  H  H86  1  0.69960000  0.54820000  0.88040000  1
  H  H87  1  0.70630000  0.71490000  0.16650000  1
  H  H88  1  0.71000000  0.41720000  0.17830000  1
  H  H89  1  0.71400000  0.06750000  0.80950000  1
  H  H90  1  0.71810000  0.42200000  0.87980000  1
  H  H91  1  0.71960000  0.92650000  0.99530000  1
  H  H92  1  0.72190000  0.30910000  0.17560000  1
  H  H93  1  0.72540000  0.07070000  0.74290000  1
  H  H94  1  0.72730000  0.92420000  0.92910000  1
  H  H95  1  0.73170000  0.93310000  0.86810000  1
  H  H96  1  0.74220000  0.11100000  0.23910000  1
  H  H97  1  0.74400000  0.88230000  0.80560000  1
  H  H98  1  0.75600000  0.11770000  0.30560000  1
  H  H99  1  0.75780000  0.88900000  0.73910000  1
  H  H100  1  0.76830000  0.06690000  0.36810000  1
  H  H101  1  0.77270000  0.07580000  0.42910000  1
  H  H102  1  0.77460000  0.92930000  0.24290000  1
  H  H103  1  0.77810000  0.69090000  0.67560000  1
  H  H104  1  0.78040000  0.07350000  0.49530000  1
  H  H105  1  0.78190000  0.57800000  0.37980000  1
  H  H106  1  0.78600000  0.93250000  0.30950000  1
  H  H107  1  0.79000000  0.58280000  0.67830000  1
  H  H108  1  0.79370000  0.28510000  0.66650000  1
  H  H109  1  0.80040000  0.45180000  0.38040000  1
  H  H110  1  0.80210000  0.48390000  0.65040000  1
  H  H111  1  0.80820000  0.39260000  0.66250000  1
  H  H112  1  0.81830000  0.94690000  0.36680000  1
  H  H113  1  0.81980000  0.61010000  0.87770000  1
  H  H114  1  0.84140000  0.42760000  0.86000000  1
  H  H115  1  0.84480000  0.27010000  0.55400000  1
  H  H116  1  0.84710000  0.68510000  0.56480000  1
  H  H117  1  0.85650000  0.90140000  0.42440000  1
  H  H118  1  0.85900000  0.57670000  0.56920000  1
  H  H119  1  0.86520000  0.37600000  0.55100000  1
  H  H120  1  0.86680000  0.89810000  0.49080000  1
  H  H121  1  0.87850000  0.47870000  0.57970000  1
  H  H122  1  0.89810000  0.63980000  0.37860000  1
  H  H123  1  0.92650000  0.45490000  0.39140000  1
  H  H124  1  0.93490000  0.97050000  0.09700000  1
  H  H125  1  0.95850000  0.62270000  0.87440000  1
  H  H126  1  0.96400000  0.15310000  0.10990000  1
  H  H127  1  0.98320000  0.43800000  0.85750000  1
  C  C128  1  0.01380000  0.61290000  0.38910000  1
  C  C129  1  0.01580000  0.03180000  0.63410000  1
  C  C130  1  0.03160000  0.50440000  0.39670000  1
  C  C131  1  0.05010000  0.97290000  0.63830000  1
  C  C132  1  0.05150000  0.99520000  0.10840000  1
  C  C133  1  0.06460000  0.08300000  0.62810000  1
  C  C134  1  0.06510000  0.56150000  0.39280000  1
  C  C135  1  0.06850000  0.10550000  0.11600000  1
  C  C136  1  0.07360000  0.53770000  0.86790000  1
  C  C137  1  0.10170000  0.04700000  0.11320000  1
  C  C138  1  0.13470000  0.96670000  0.63630000  1
  C  C139  1  0.14700000  0.07500000  0.62590000  1
  C  C140  1  0.14820000  0.96300000  0.89840000  1
  C  C141  1  0.14980000  0.85770000  0.92550000  1
  C  C142  1  0.15200000  0.43410000  0.02170000  1
  C  C143  1  0.15590000  0.57090000  0.39460000  1
  C  C144  1  0.15790000  0.09970000  0.90930000  1
  C  C145  1  0.15840000  0.43630000  0.06110000  1
  C  C146  1  0.15870000  0.89490000  0.89360000  1
  C  C147  1  0.16200000  0.79480000  0.92390000  1
  C  C148  1  0.16410000  0.16450000  0.91190000  1
  C  C149  1  0.17440000  0.48410000  0.95820000  1
  C  C150  1  0.17450000  0.48790000  0.00000000  1
  C  C151  1  0.17590000  0.06940000  0.87580000  1
  C  C152  1  0.17620000  0.00110000  0.87220000  1
  C  C153  1  0.18260000  0.86780000  0.85940000  1
  C  C154  1  0.18400000  0.01740000  0.62880000  1
  C  C155  1  0.18470000  0.76840000  0.88910000  1
  C  C156  1  0.18600000  0.48830000  0.07950000  1
  C  C157  1  0.18670000  0.19610000  0.88040000  1
  C  C158  1  0.18800000  0.04100000  0.11870000  1
  C  C159  1  0.19330000  0.80370000  0.85710000  1
  C  C160  1  0.19470000  0.48490000  0.12150000  1
  C  C161  1  0.19530000  0.26510000  0.88200000  1
  C  C162  1  0.19850000  0.10340000  0.84490000  1
  C  C163  1  0.20310000  0.53860000  0.01890000  1
  C  C164  1  0.20530000  0.16790000  0.84600000  1
  C  C165  1  0.20570000  0.70000000  0.88740000  1
  C  C166  1  0.20850000  0.54000000  0.05830000  1
  C  C167  1  0.21830000  0.52890000  0.14360000  1
  C  C168  1  0.22190000  0.46930000  0.20460000  1
  C  C169  1  0.22650000  0.52540000  0.18640000  1
  C  C170  1  0.22930000  0.46770000  0.24450000  1
  C  C171  1  0.22950000  0.98880000  0.12200000  1
  C  C172  1  0.24010000  0.57920000  0.20690000  1
  C  C173  1  0.24190000  0.51920000  0.26550000  1
  C  C174  1  0.24800000  0.57480000  0.24660000  1
  C  C175  1  0.24970000  0.48260000  0.80780000  1
  C  C176  1  0.25030000  0.51740000  0.30780000  1
  C  C177  1  0.25200000  0.42520000  0.74660000  1
  C  C178  1  0.25810000  0.48080000  0.76550000  1
  C  C179  1  0.25990000  0.42080000  0.70690000  1
  C  C180  1  0.27050000  0.01120000  0.62200000  1
  C  C181  1  0.27070000  0.53230000  0.74450000  1
  C  C182  1  0.27350000  0.47460000  0.68640000  1
  C  C183  1  0.27810000  0.53070000  0.70460000  1
  C  C184  1  0.28170000  0.47110000  0.64360000  1
  C  C185  1  0.29150000  0.46000000  0.55830000  1
  C  C186  1  0.29430000  0.30000000  0.38740000  1
  C  C187  1  0.29470000  0.83210000  0.34600000  1
  C  C188  1  0.29690000  0.46140000  0.51890000  1
  C  C189  1  0.30150000  0.89660000  0.34490000  1
  C  C190  1  0.30470000  0.73490000  0.38200000  1
  C  C191  1  0.30530000  0.51510000  0.62150000  1
  C  C192  1  0.30670000  0.19630000  0.35710000  1
  C  C193  1  0.31200000  0.95900000  0.61870000  1
  C  C194  1  0.31330000  0.80390000  0.38040000  1
  C  C195  1  0.31400000  0.51170000  0.57950000  1
  C  C196  1  0.31530000  0.23160000  0.38910000  1
  C  C197  1  0.31600000  0.98260000  0.12880000  1
  C  C198  1  0.31740000  0.13220000  0.35940000  1
  C  C199  1  0.32380000  0.99890000  0.37220000  1
  C  C200  1  0.32410000  0.93060000  0.37580000  1
  C  C201  1  0.32550000  0.51210000  0.50000000  1
  C  C202  1  0.32560000  0.51590000  0.45820000  1
  C  C203  1  0.33590000  0.83550000  0.41190000  1
  C  C204  1  0.33800000  0.20520000  0.42390000  1
  C  C205  1  0.34130000  0.10510000  0.39360000  1
  C  C206  1  0.34160000  0.56370000  0.56110000  1
  C  C207  1  0.34210000  0.90030000  0.40930000  1
  C  C208  1  0.34410000  0.42910000  0.89460000  1
  C  C209  1  0.34800000  0.56590000  0.52170000  1
  C  C210  1  0.35020000  0.14230000  0.42550000  1
  C  C211  1  0.35180000  0.03700000  0.39840000  1
  C  C212  1  0.35300000  0.92500000  0.12590000  1
  C  C213  1  0.36530000  0.03330000  0.13630000  1
  C  C214  1  0.39830000  0.95300000  0.61320000  1
  C  C215  1  0.42640000  0.46230000  0.36790000  1
  C  C216  1  0.43150000  0.89450000  0.61600000  1
  C  C217  1  0.43490000  0.43850000  0.89280000  1
  C  C218  1  0.43540000  0.91700000  0.12810000  1
  C  C219  1  0.44850000  0.00480000  0.60840000  1
  C  C220  1  0.44990000  0.02710000  0.13830000  1
  C  C221  1  0.46840000  0.49560000  0.89670000  1
  C  C222  1  0.48420000  0.96820000  0.13410000  1
  C  C223  1  0.48620000  0.38710000  0.88910000  1
  C  C224  1  0.51380000  0.88710000  0.61090000  1
  C  C225  1  0.51580000  0.46820000  0.36590000  1
  C  C226  1  0.53160000  0.99560000  0.60330000  1
  C  C227  1  0.55010000  0.52710000  0.36170000  1
  C  C228  1  0.55150000  0.50480000  0.89160000  1
  C  C229  1  0.56460000  0.41700000  0.37190000  1
  C  C230  1  0.56510000  0.93850000  0.60720000  1
  C  C231  1  0.56850000  0.39450000  0.88400000  1
  C  C232  1  0.57360000  0.96230000  0.13210000  1
  C  C233  1  0.60170000  0.45300000  0.88680000  1
  C  C234  1  0.63470000  0.53330000  0.36370000  1
  C  C235  1  0.64700000  0.42500000  0.37410000  1
  C  C236  1  0.64820000  0.53700000  0.10160000  1
  C  C237  1  0.64980000  0.64230000  0.07450000  1
  C  C238  1  0.65200000  0.06590000  0.97830000  1
  C  C239  1  0.65590000  0.92910000  0.60540000  1
  C  C240  1  0.65790000  0.40030000  0.09070000  1
  C  C241  1  0.65840000  0.06370000  0.93890000  1
  C  C242  1  0.65870000  0.60510000  0.10640000  1
  C  C243  1  0.66200000  0.70520000  0.07610000  1
  C  C244  1  0.66410000  0.33550000  0.08810000  1
  C  C245  1  0.67440000  0.01590000  0.04180000  1
  C  C246  1  0.67450000  0.01210000  0.00000000  1
  C  C247  1  0.67590000  0.43060000  0.12420000  1
  C  C248  1  0.67620000  0.49890000  0.12780000  1
  C  C249  1  0.68260000  0.63220000  0.14060000  1
  C  C250  1  0.68400000  0.48260000  0.37120000  1
  C  C251  1  0.68470000  0.73160000  0.11090000  1
  C  C252  1  0.68600000  0.01170000  0.92050000  1
  C  C253  1  0.68670000  0.30390000  0.11960000  1
  C  C254  1  0.68800000  0.45900000  0.88130000  1
  C  C255  1  0.69330000  0.69630000  0.14290000  1
  C  C256  1  0.69470000  0.01510000  0.87850000  1
  C  C257  1  0.69530000  0.23490000  0.11800000  1
  C  C258  1  0.69850000  0.39660000  0.15510000  1
  C  C259  1  0.70310000  0.96140000  0.98110000  1
  C  C260  1  0.70530000  0.33210000  0.15400000  1
  C  C261  1  0.70570000  0.80000000  0.11260000  1
  C  C262  1  0.70850000  0.96000000  0.94170000  1
  C  C263  1  0.71830000  0.97110000  0.85640000  1
  C  C264  1  0.72190000  0.03070000  0.79540000  1
  C  C265  1  0.72650000  0.97460000  0.81360000  1
  C  C266  1  0.72930000  0.03230000  0.75550000  1
  C  C267  1  0.72950000  0.51120000  0.87800000  1
  C  C268  1  0.74010000  0.92080000  0.79310000  1
  C  C269  1  0.74190000  0.98080000  0.73450000  1
  C  C270  1  0.74800000  0.92520000  0.75340000  1
  C  C271  1  0.74970000  0.01740000  0.19220000  1
  C  C272  1  0.75030000  0.98260000  0.69220000  1
  C  C273  1  0.75200000  0.07480000  0.25340000  1
  C  C274  1  0.75810000  0.01920000  0.23450000  1
  C  C275  1  0.75990000  0.07920000  0.29310000  1
  C  C276  1  0.77050000  0.48880000  0.37800000  1
  C  C277  1  0.77070000  0.96770000  0.25550000  1
  C  C278  1  0.77350000  0.02540000  0.31360000  1
  C  C279  1  0.77810000  0.96930000  0.29540000  1
  C  C280  1  0.78170000  0.02890000  0.35640000  1
  C  C281  1  0.79150000  0.04000000  0.44170000  1
  C  C282  1  0.79430000  0.20000000  0.61260000  1
  C  C283  1  0.79470000  0.66790000  0.65400000  1
  C  C284  1  0.79690000  0.03860000  0.48110000  1
  C  C285  1  0.80150000  0.60340000  0.65510000  1
  C  C286  1  0.80470000  0.76510000  0.61800000  1
  C  C287  1  0.80530000  0.98490000  0.37850000  1
  C  C288  1  0.80670000  0.30370000  0.64290000  1
  C  C289  1  0.81200000  0.54100000  0.38130000  1
  C  C290  1  0.81330000  0.69610000  0.61960000  1
  C  C291  1  0.81400000  0.98830000  0.42050000  1
  C  C292  1  0.81530000  0.26840000  0.61090000  1
  C  C293  1  0.81600000  0.51740000  0.87120000  1
  C  C294  1  0.81740000  0.36780000  0.64060000  1
  C  C295  1  0.82380000  0.50110000  0.62780000  1
  C  C296  1  0.82410000  0.56940000  0.62420000  1
  C  C297  1  0.82550000  0.98790000  0.50000000  1
  C  C298  1  0.82560000  0.98410000  0.54180000  1
  C  C299  1  0.83590000  0.66450000  0.58810000  1
  C  C300  1  0.83800000  0.29480000  0.57610000  1
  C  C301  1  0.84130000  0.39490000  0.60640000  1
  C  C302  1  0.84160000  0.93630000  0.43890000  1
  C  C303  1  0.84210000  0.59970000  0.59070000  1
  C  C304  1  0.84410000  0.07090000  0.10540000  1
  C  C305  1  0.84800000  0.93410000  0.47830000  1
  C  C306  1  0.85020000  0.35770000  0.57450000  1
  C  C307  1  0.85180000  0.46300000  0.60160000  1
  C  C308  1  0.85300000  0.57500000  0.87410000  1
  C  C309  1  0.86530000  0.46670000  0.86370000  1
  C  C310  1  0.89830000  0.54700000  0.38680000  1
  C  C311  1  0.92640000  0.03770000  0.63210000  1
  C  C312  1  0.93150000  0.60550000  0.38400000  1
  C  C313  1  0.93490000  0.06150000  0.10720000  1
  C  C314  1  0.93540000  0.58300000  0.87190000  1
  C  C315  1  0.94850000  0.49520000  0.39160000  1
  C  C316  1  0.94990000  0.47290000  0.86170000  1
  C  C317  1  0.96840000  0.00440000  0.10330000  1
  C  C318  1  0.98420000  0.53180000  0.86590000  1
  C  C319  1  0.98620000  0.11290000  0.11090000  1
  O  O320  1  0.10260000  0.59220000  0.86992000  1
  O  O321  1  0.11860000  0.49180000  0.86844000  1
  O  O322  1  0.16790000  0.43260000  0.94189000  1
  O  O323  1  0.18060000  0.29350000  0.91326000  1
  O  O324  1  0.18080000  0.53510000  0.94044000  1
  O  O325  1  0.18550000  0.62370000  0.39444000  1
  O  O326  1  0.19980000  0.52140000  0.39533000  1
  O  O327  1  0.20070000  0.66950000  0.91764000  1
  O  O328  1  0.21240000  0.29580000  0.85186000  1
  O  O329  1  0.22950000  0.67770000  0.85630000  1
  O  O330  1  0.24190000  0.43250000  0.82474000  1
  O  O331  1  0.25000000  0.46440000  0.32283000  1
  O  O332  1  0.25000000  0.53560000  0.82283000  1
  O  O333  1  0.25810000  0.56750000  0.32474000  1
  O  O334  1  0.27050000  0.32230000  0.35630000  1
  O  O335  1  0.28760000  0.70420000  0.35186000  1
  O  O336  1  0.29930000  0.33050000  0.41764000  1
  O  O337  1  0.30020000  0.47860000  0.89533000  1
  O  O338  1  0.31450000  0.37630000  0.89444000  1
  O  O339  1  0.31920000  0.46490000  0.44044000  1
  O  O340  1  0.31940000  0.70650000  0.41326000  1
  O  O341  1  0.33210000  0.56740000  0.44189000  1
  O  O342  1  0.38140000  0.50820000  0.36844000  1
  O  O343  1  0.39740000  0.40780000  0.36992000  1
  O  O344  1  0.60260000  0.90780000  0.13008000  1
  O  O345  1  0.61860000  0.00820000  0.13156000  1
  O  O346  1  0.66790000  0.06740000  0.05811000  1
  O  O347  1  0.68060000  0.20650000  0.08674000  1
  O  O348  1  0.68080000  0.96490000  0.05956000  1
  O  O349  1  0.68550000  0.87630000  0.60556000  1
  O  O350  1  0.69980000  0.97860000  0.60467000  1
  O  O351  1  0.70070000  0.83050000  0.08236000  1
  O  O352  1  0.71240000  0.20420000  0.14814000  1
  O  O353  1  0.72950000  0.82230000  0.14370000  1
  O  O354  1  0.74190000  0.06750000  0.17526000  1
  O  O355  1  0.75000000  0.03560000  0.67717000  1
  O  O356  1  0.75000000  0.96440000  0.17717000  1
  O  O357  1  0.75810000  0.93250000  0.67526000  1
  O  O358  1  0.77050000  0.17770000  0.64370000  1
  O  O359  1  0.78760000  0.79580000  0.64814000  1
  O  O360  1  0.79930000  0.16950000  0.58236000  1
  O  O361  1  0.80020000  0.02140000  0.10467000  1
  O  O362  1  0.81450000  0.12370000  0.10556000  1
  O  O363  1  0.81920000  0.03510000  0.55956000  1
  O  O364  1  0.81940000  0.79350000  0.58674000  1
  O  O365  1  0.83210000  0.93260000  0.55811000  1
  O  O366  1  0.88140000  0.99180000  0.63156000  1
  O  O367  1  0.89740000  0.09220000  0.63008000  1
