# generated using pymatgen
data_AgH8C11N2O
_symmetry_space_group_name_H-M   'P 1'
_cell_length_a   8.42750000
_cell_length_b   19.51732103
_cell_length_c   19.51732103
_cell_angle_alpha   117.96456306
_cell_angle_beta   98.27543743
_cell_angle_gamma   98.27543743
_symmetry_Int_Tables_number   1
_chemical_formula_structural   AgH8C11N2O
_chemical_formula_sum   'Ag6 H48 C66 N12 O6'
_cell_volume   2722.56513857
_cell_formula_units_Z   6
loop_
 _symmetry_equiv_pos_site_id
 _symmetry_equiv_pos_as_xyz
  1  'x, y, z'
loop_
 _atom_site_type_symbol
 _atom_site_label
 _atom_site_symmetry_multiplicity
 _atom_site_fract_x
 _atom_site_fract_y
 _atom_site_fract_z
 _atom_site_occupancy
  Ag  Ag0  1  0.18082000  0.53113333  0.50343667  1
  Ag  Ag1  1  0.64968667  0.97230333  0.46886667  1
  Ag  Ag2  1  0.32261667  0.50343667  0.97230333  1
  Ag  Ag3  1  0.67738333  0.49656333  0.02769667  1
  Ag  Ag4  1  0.35031333  0.02769667  0.53113333  1
  Ag  Ag5  1  0.81918000  0.46886667  0.49656333  1
  C  C6  1  0.78630000  0.22795000  0.77355000  1
  C  C7  1  0.43745000  0.40144000  0.60181000  1
  C  C8  1  0.28028000  0.75393000  0.28321000  1
  C  C9  1  0.34775000  0.45081000  0.58994000  1
  C  C10  1  0.78115000  0.32318000  0.72077000  1
  C  C11  1  0.45797000  0.39759000  0.67682000  1
  C  C12  1  0.27503000  0.84764000  0.23825000  1
  C  C13  1  0.49936000  0.64845000  0.45963000  1
  C  C14  1  0.05367000  0.65103000  0.46268000  1
  C  C15  1  0.93962000  0.72077000  0.39759000  1
  C  C16  1  0.61769000  0.59636000  0.53731000  1
  C  C17  1  0.40264000  0.81165000  0.34897000  1
  C  C18  1  0.85091000  0.81118000  0.35155000  1
  C  C19  1  0.52569000  0.64655000  0.52972000  1
  C  C20  1  0.99707000  0.71679000  0.47072000  1
  C  C21  1  0.83564000  0.39819000  0.79963000  1
  C  C22  1  0.96399000  0.79963000  0.40144000  1
  C  C23  1  0.39788000  0.90056000  0.30428000  1
  C  C24  1  0.47365000  0.47072000  0.75393000  1
  C  C25  1  0.87914000  0.88317000  0.35345000  1
  C  C26  1  0.96027000  0.45963000  0.81118000  1
  C  C27  1  0.75781000  0.41006000  0.86087000  1
  C  C28  1  0.40901000  0.46268000  0.81165000  1
  C  C29  1  0.09360000  0.69572000  0.59628000  1
  C  C30  1  0.10306000  0.86087000  0.45081000  1
  C  C31  1  0.55835000  0.54560000  0.77205000  1
  C  C32  1  0.98725000  0.77355000  0.54560000  1
  C  C33  1  0.02133000  0.94095000  0.40364000  1
  C  C34  1  0.03678000  0.76175000  0.60939000  1
  C  C35  1  0.00403000  0.52972000  0.88317000  1
  C  C36  1  0.57261000  0.60939000  0.84764000  1
  C  C37  1  0.91962000  0.53731000  0.94095000  1
  C  C38  1  0.50268000  0.59628000  0.90056000  1
  C  C39  1  0.49732000  0.40372000  0.09944000  1
  C  C40  1  0.08038000  0.46269000  0.05905000  1
  C  C41  1  0.42739000  0.39061000  0.15236000  1
  C  C42  1  0.99597000  0.47028000  0.11683000  1
  C  C43  1  0.96322000  0.23825000  0.39061000  1
  C  C44  1  0.97867000  0.05905000  0.59636000  1
  C  C45  1  0.01275000  0.22645000  0.45440000  1
  C  C46  1  0.44165000  0.45440000  0.22795000  1
  C  C47  1  0.89694000  0.13913000  0.54919000  1
  C  C48  1  0.90640000  0.30428000  0.40372000  1
  C  C49  1  0.59099000  0.53732000  0.18835000  1
  C  C50  1  0.24219000  0.58994000  0.13913000  1
  C  C51  1  0.03973000  0.54037000  0.18882000  1
  C  C52  1  0.12086000  0.11683000  0.64655000  1
  C  C53  1  0.52635000  0.52928000  0.24607000  1
  C  C54  1  0.60212000  0.09944000  0.69572000  1
  C  C55  1  0.03601000  0.20037000  0.59856000  1
  C  C56  1  0.16436000  0.60181000  0.20037000  1
  C  C57  1  0.00293000  0.28321000  0.52928000  1
  C  C58  1  0.47431000  0.35345000  0.47028000  1
  C  C59  1  0.14909000  0.18882000  0.64845000  1
  C  C60  1  0.59736000  0.18835000  0.65103000  1
  C  C61  1  0.38231000  0.40364000  0.46269000  1
  C  C62  1  0.06038000  0.27923000  0.60241000  1
  C  C63  1  0.94633000  0.34897000  0.53732000  1
  C  C64  1  0.50064000  0.35155000  0.54037000  1
  C  C65  1  0.72497000  0.15236000  0.76175000  1
  C  C66  1  0.54203000  0.60241000  0.32318000  1
  C  C67  1  0.21885000  0.67682000  0.27923000  1
  C  C68  1  0.65225000  0.54919000  0.41006000  1
  C  C69  1  0.71972000  0.24607000  0.71679000  1
  C  C70  1  0.56255000  0.59856000  0.39819000  1
  C  C71  1  0.21370000  0.77205000  0.22645000  1
  H  H72  1  0.05730000  0.61150000  0.41080000  1
  H  H73  1  0.23190000  0.86230000  0.20070000  1
  H  H74  1  0.87150000  0.26620000  0.81930000  1
  H  H75  1  0.75510000  0.77000000  0.31650000  1
  H  H76  1  0.30500000  0.48540000  0.63230000  1
  H  H77  1  0.43860000  0.68350000  0.45350000  1
  H  H78  1  0.63680000  0.59580000  0.58620000  1
  H  H79  1  0.44580000  0.79930000  0.38850000  1
  H  H80  1  0.35350000  0.41080000  0.79930000  1
  H  H81  1  0.80190000  0.89300000  0.32070000  1
  H  H82  1  0.67270000  0.36770000  0.85310000  1
  H  H83  1  0.01490000  0.45350000  0.77000000  1
  H  H84  1  0.48120000  0.67930000  0.57230000  1
  H  H85  1  0.43930000  0.95200000  0.31140000  1
  H  H86  1  0.60530000  0.55310000  0.73380000  1
  H  H87  1  0.12790000  0.68860000  0.64060000  1
  H  H88  1  0.18040000  0.85310000  0.48540000  1
  H  H89  1  0.94780000  0.81930000  0.55310000  1
  H  H90  1  0.04100000  0.99040000  0.40420000  1
  H  H91  1  0.48730000  0.35940000  0.04800000  1
  H  H92  1  0.05060000  0.41380000  0.00960000  1
  H  H93  1  0.03120000  0.79930000  0.66160000  1
  H  H94  1  0.09110000  0.57230000  0.89300000  1
  H  H95  1  0.36960000  0.33840000  0.13770000  1
  H  H96  1  0.63040000  0.66160000  0.86230000  1
  H  H97  1  0.90890000  0.42770000  0.10700000  1
  H  H98  1  0.96880000  0.20070000  0.33840000  1
  H  H99  1  0.94940000  0.58620000  0.99040000  1
  H  H100  1  0.51270000  0.64060000  0.95200000  1
  H  H101  1  0.95900000  0.00960000  0.59580000  1
  H  H102  1  0.05220000  0.18070000  0.44690000  1
  H  H103  1  0.81960000  0.14690000  0.51460000  1
  H  H104  1  0.87210000  0.31140000  0.35940000  1
  H  H105  1  0.39470000  0.44690000  0.26620000  1
  H  H106  1  0.56070000  0.04800000  0.68860000  1
  H  H107  1  0.51880000  0.32070000  0.42770000  1
  H  H108  1  0.98510000  0.54650000  0.23000000  1
  H  H109  1  0.32730000  0.63230000  0.14690000  1
  H  H110  1  0.19810000  0.10700000  0.67930000  1
  H  H111  1  0.64650000  0.58920000  0.20070000  1
  H  H112  1  0.55420000  0.20070000  0.61150000  1
  H  H113  1  0.36320000  0.40420000  0.41380000  1
  H  H114  1  0.56140000  0.31650000  0.54650000  1
  H  H115  1  0.69500000  0.51460000  0.36770000  1
  H  H116  1  0.24490000  0.23000000  0.68350000  1
  H  H117  1  0.12850000  0.73380000  0.18070000  1
  H  H118  1  0.76810000  0.13770000  0.79930000  1
  H  H119  1  0.94270000  0.38850000  0.58920000  1
  N  N120  1  0.68092000  0.54847000  0.47879000  1
  N  N121  1  0.10323000  0.64024000  0.52405000  1
  N  N122  1  0.46299000  0.88381000  0.35976000  1
  N  N123  1  0.13245000  0.93032000  0.45153000  1
  N  N124  1  0.42082000  0.52405000  0.88381000  1
  N  N125  1  0.79787000  0.47879000  0.93032000  1
  N  N126  1  0.20213000  0.52121000  0.06968000  1
  N  N127  1  0.57918000  0.47595000  0.11619000  1
  N  N128  1  0.86755000  0.06968000  0.54847000  1
  N  N129  1  0.53701000  0.11619000  0.64024000  1
  N  N130  1  0.89677000  0.35976000  0.47595000  1
  N  N131  1  0.31908000  0.45153000  0.52121000  1
  O  O132  1  0.12731000  0.33976000  0.66497000  1
  O  O133  1  0.46234000  0.33503000  0.67479000  1
  O  O134  1  0.21245000  0.67479000  0.33976000  1
  O  O135  1  0.78755000  0.32521000  0.66024000  1
  O  O136  1  0.53766000  0.66497000  0.32521000  1
  O  O137  1  0.87269000  0.66024000  0.33503000  1
