# generated using pymatgen
data_AgH8(CN)2
_symmetry_space_group_name_H-M   'P 1'
_cell_length_a   6.18950000
_cell_length_b   13.88441338
_cell_length_c   13.88441338
_cell_angle_alpha   91.73760779
_cell_angle_beta   97.68015270
_cell_angle_gamma   97.68015270
_symmetry_Int_Tables_number   1
_chemical_formula_structural   AgH8(CN)2
_chemical_formula_sum   'Ag8 H64 C16 N16'
_cell_volume   1170.47082603
_cell_formula_units_Z   8
loop_
 _symmetry_equiv_pos_site_id
 _symmetry_equiv_pos_as_xyz
  1  'x, y, z'
loop_
 _atom_site_type_symbol
 _atom_site_label
 _atom_site_symmetry_multiplicity
 _atom_site_fract_x
 _atom_site_fract_y
 _atom_site_fract_z
 _atom_site_occupancy
  Ag  Ag0  1  0.00000000  0.00000000  0.00000000  1
  Ag  Ag1  1  0.50000000  0.00000000  0.00000000  1
  Ag  Ag2  1  0.00000000  0.50000000  0.50000000  1
  Ag  Ag3  1  0.50000000  0.50000000  0.50000000  1
  Ag  Ag4  1  0.50000000  0.00000000  0.50000000  1
  Ag  Ag5  1  1.00000000  0.00000000  0.50000000  1
  Ag  Ag6  1  0.50000000  0.50000000  1.00000000  1
  Ag  Ag7  1  0.00000000  0.50000000  1.00000000  1
  C  C8  1  0.27700000  0.30960000  0.52140000  1
  C  C9  1  0.77700000  0.52140000  0.30960000  1
  C  C10  1  0.77700000  0.01700000  0.79800000  1
  C  C11  1  0.27700000  0.79800000  0.01700000  1
  C  C12  1  0.21820000  0.20270000  0.49250000  1
  C  C13  1  0.71820000  0.49250000  0.20270000  1
  C  C14  1  0.73380000  0.98110000  0.69270000  1
  C  C15  1  0.23380000  0.69270000  0.98110000  1
  C  C16  1  0.26620000  0.01890000  0.30730000  1
  C  C17  1  0.76620000  0.30730000  0.01890000  1
  C  C18  1  0.78180000  0.79730000  0.50750000  1
  C  C19  1  0.28180000  0.50750000  0.79730000  1
  C  C20  1  0.22300000  0.98300000  0.20200000  1
  C  C21  1  0.72300000  0.20200000  0.98300000  1
  C  C22  1  0.72300000  0.69040000  0.47860000  1
  C  C23  1  0.22300000  0.47860000  0.69040000  1
  H  H24  1  0.35170000  0.31730000  0.58770000  1
  H  H25  1  0.85170000  0.58770000  0.31730000  1
  H  H26  1  0.83460000  0.08570000  0.80430000  1
  H  H27  1  0.33460000  0.80430000  0.08570000  1
  H  H28  1  0.14340000  0.33940000  0.51880000  1
  H  H29  1  0.64340000  0.51880000  0.33940000  1
  H  H30  1  0.64350000  0.00660000  0.82800000  1
  H  H31  1  0.14350000  0.82800000  0.00660000  1
  H  H32  1  0.54180000  0.33020000  0.45800000  1
  H  H33  1  0.04180000  0.45800000  0.33020000  1
  H  H34  1  0.06840000  0.96980000  0.81660000  1
  H  H35  1  0.56840000  0.81660000  0.96980000  1
  H  H36  1  0.13700000  0.15350000  0.61730000  1
  H  H37  1  0.63700000  0.61730000  0.15350000  1
  H  H38  1  0.63950000  0.10670000  0.65950000  1
  H  H39  1  0.13950000  0.65950000  0.10670000  1
  H  H40  1  0.34860000  0.35320000  0.39540000  1
  H  H41  1  0.84860000  0.39540000  0.35320000  1
  H  H42  1  0.94540000  0.17660000  0.55360000  1
  H  H43  1  0.44540000  0.55360000  0.17660000  1
  H  H44  1  0.89150000  0.89380000  0.83300000  1
  H  H45  1  0.39150000  0.83300000  0.89380000  1
  H  H46  1  0.45670000  0.03630000  0.68110000  1
  H  H47  1  0.95670000  0.68110000  0.03630000  1
  H  H48  1  0.35220000  0.17320000  0.49560000  1
  H  H49  1  0.85220000  0.49560000  0.17320000  1
  H  H50  1  0.86770000  0.98970000  0.66270000  1
  H  H51  1  0.36770000  0.66270000  0.98970000  1
  H  H52  1  0.14640000  0.19560000  0.42560000  1
  H  H53  1  0.64640000  0.42560000  0.19560000  1
  H  H54  1  0.66990000  0.91320000  0.68560000  1
  H  H55  1  0.16990000  0.68560000  0.91320000  1
  H  H56  1  0.33010000  0.08680000  0.31440000  1
  H  H57  1  0.83010000  0.31440000  0.08680000  1
  H  H58  1  0.85360000  0.80440000  0.57440000  1
  H  H59  1  0.35360000  0.57440000  0.80440000  1
  H  H60  1  0.13230000  0.01030000  0.33730000  1
  H  H61  1  0.63230000  0.33730000  0.01030000  1
  H  H62  1  0.64780000  0.82680000  0.50440000  1
  H  H63  1  0.14780000  0.50440000  0.82680000  1
  H  H64  1  0.54330000  0.96370000  0.31890000  1
  H  H65  1  0.04330000  0.31890000  0.96370000  1
  H  H66  1  0.10850000  0.10620000  0.16700000  1
  H  H67  1  0.60850000  0.16700000  0.10620000  1
  H  H68  1  0.05460000  0.82340000  0.44640000  1
  H  H69  1  0.55460000  0.44640000  0.82340000  1
  H  H70  1  0.65140000  0.64680000  0.60460000  1
  H  H71  1  0.15140000  0.60460000  0.64680000  1
  H  H72  1  0.36050000  0.89330000  0.34050000  1
  H  H73  1  0.86050000  0.34050000  0.89330000  1
  H  H74  1  0.86300000  0.84650000  0.38270000  1
  H  H75  1  0.36300000  0.38270000  0.84650000  1
  H  H76  1  0.93160000  0.03020000  0.18340000  1
  H  H77  1  0.43160000  0.18340000  0.03020000  1
  H  H78  1  0.45820000  0.66980000  0.54200000  1
  H  H79  1  0.95820000  0.54200000  0.66980000  1
  H  H80  1  0.35650000  0.99340000  0.17200000  1
  H  H81  1  0.85650000  0.17200000  0.99340000  1
  H  H82  1  0.85660000  0.66060000  0.48120000  1
  H  H83  1  0.35660000  0.48120000  0.66060000  1
  H  H84  1  0.16540000  0.91430000  0.19570000  1
  H  H85  1  0.66540000  0.19570000  0.91430000  1
  H  H86  1  0.64830000  0.68270000  0.41230000  1
  H  H87  1  0.14830000  0.41230000  0.68270000  1
  N  N88  1  0.41940000  0.35850000  0.45690000  1
  N  N89  1  0.91940000  0.45690000  0.35850000  1
  N  N90  1  0.94220000  0.95760000  0.84260000  1
  N  N91  1  0.44220000  0.84260000  0.95760000  1
  N  N92  1  0.07040000  0.15010000  0.55530000  1
  N  N93  1  0.57040000  0.55530000  0.15010000  1
  N  N94  1  0.57860000  0.04380000  0.65180000  1
  N  N95  1  0.07860000  0.65180000  0.04380000  1
  N  N96  1  0.42140000  0.95620000  0.34820000  1
  N  N97  1  0.92140000  0.34820000  0.95620000  1
  N  N98  1  0.92960000  0.84990000  0.44470000  1
  N  N99  1  0.42960000  0.44470000  0.84990000  1
  N  N100  1  0.05780000  0.04240000  0.15740000  1
  N  N101  1  0.55780000  0.15740000  0.04240000  1
  N  N102  1  0.58060000  0.64150000  0.54310000  1
  N  N103  1  0.08060000  0.54310000  0.64150000  1
