# generated using pymatgen
data_CuH7(C7O2)2
_symmetry_space_group_name_H-M   'P 1'
_cell_length_a   18.11480000
_cell_length_b   18.11480000
_cell_length_c   24.39707374
_cell_angle_alpha   105.45799411
_cell_angle_beta   105.45799411
_cell_angle_gamma   106.38400000
_symmetry_Int_Tables_number   1
_chemical_formula_structural   CuH7(C7O2)2
_chemical_formula_sum   'Cu8 H56 C112 O32'
_cell_volume   6878.84041408
_cell_formula_units_Z   8
loop_
 _symmetry_equiv_pos_site_id
 _symmetry_equiv_pos_as_xyz
  1  'x, y, z'
loop_
 _atom_site_type_symbol
 _atom_site_label
 _atom_site_symmetry_multiplicity
 _atom_site_fract_x
 _atom_site_fract_y
 _atom_site_fract_z
 _atom_site_occupancy
  Cu  Cu0  1  0.50474000  0.44734000  0.45382000  1
  Cu  Cu1  1  0.49352000  0.05092000  0.04618000  1
  Cu  Cu2  1  0.44734000  0.50474000  0.95382000  1
  Cu  Cu3  1  0.94908000  0.50648000  0.45382000  1
  Cu  Cu4  1  0.05092000  0.49352000  0.54618000  1
  Cu  Cu5  1  0.55266000  0.49526000  0.04618000  1
  Cu  Cu6  1  0.50648000  0.94908000  0.95382000  1
  Cu  Cu7  1  0.49526000  0.55266000  0.54618000  1
  H  H8  1  0.22640000  0.41220000  0.22280000  1
  H  H9  1  0.96710000  0.71710000  0.93420000  1
  H  H10  1  0.73370000  0.59810000  0.68360000  1
  H  H11  1  0.57630000  0.77690000  0.50520000  1
  H  H12  1  0.12420000  0.38540000  0.03620000  1
  H  H13  1  0.28640000  0.35140000  0.16360000  1
  H  H14  1  0.08800000  0.84920000  0.96380000  1
  H  H15  1  0.61460000  0.87580000  0.46380000  1
  H  H16  1  0.22830000  0.92890000  0.00520000  1
  H  H17  1  0.00360000  0.68940000  0.77720000  1
  H  H18  1  0.22310000  0.42370000  0.99480000  1
  H  H19  1  0.60720000  0.61240000  0.37660000  1
  H  H20  1  0.76230000  0.51230000  0.52460000  1
  H  H21  1  0.38760000  0.39280000  0.12340000  1
  H  H22  1  0.94990000  0.58550000  0.68360000  1
  H  H23  1  0.71710000  0.96710000  0.43420000  1
  H  H24  1  0.12280000  0.68780000  0.83640000  1
  H  H25  1  0.58780000  0.77360000  0.27720000  1
  H  H26  1  0.64860000  0.71360000  0.33640000  1
  H  H27  1  0.68780000  0.12280000  0.33640000  1
  H  H28  1  0.84920000  0.08800000  0.46380000  1
  H  H29  1  0.26420000  0.76940000  0.87660000  1
  H  H30  1  0.76940000  0.26420000  0.37660000  1
  H  H31  1  0.58550000  0.94990000  0.18360000  1
  H  H32  1  0.68940000  0.00360000  0.27720000  1
  H  H33  1  0.59810000  0.73370000  0.18360000  1
  H  H34  1  0.92890000  0.22830000  0.50520000  1
  H  H35  1  0.51230000  0.76230000  0.02460000  1
  H  H36  1  0.48770000  0.23770000  0.97540000  1
  H  H37  1  0.07110000  0.77170000  0.49480000  1
  H  H38  1  0.40190000  0.26630000  0.81640000  1
  H  H39  1  0.31060000  0.99640000  0.72280000  1
  H  H40  1  0.41450000  0.05010000  0.81640000  1
  H  H41  1  0.23060000  0.73580000  0.62340000  1
  H  H42  1  0.73580000  0.23060000  0.12340000  1
  H  H43  1  0.15080000  0.91200000  0.53620000  1
  H  H44  1  0.31220000  0.87720000  0.66360000  1
  H  H45  1  0.35140000  0.28640000  0.66360000  1
  H  H46  1  0.41220000  0.22640000  0.72280000  1
  H  H47  1  0.87720000  0.31220000  0.16360000  1
  H  H48  1  0.28290000  0.03290000  0.56580000  1
  H  H49  1  0.05010000  0.41450000  0.31640000  1
  H  H50  1  0.61240000  0.60720000  0.87660000  1
  H  H51  1  0.23770000  0.48770000  0.47540000  1
  H  H52  1  0.39280000  0.38760000  0.62340000  1
  H  H53  1  0.77690000  0.57630000  0.00520000  1
  H  H54  1  0.99640000  0.31060000  0.22280000  1
  H  H55  1  0.77170000  0.07110000  0.99480000  1
  H  H56  1  0.38540000  0.12420000  0.53620000  1
  H  H57  1  0.91200000  0.15080000  0.03620000  1
  H  H58  1  0.71360000  0.64860000  0.83640000  1
  H  H59  1  0.87580000  0.61460000  0.96380000  1
  H  H60  1  0.42370000  0.22310000  0.49480000  1
  H  H61  1  0.26630000  0.40190000  0.31640000  1
  H  H62  1  0.03290000  0.28290000  0.06580000  1
  H  H63  1  0.77360000  0.58780000  0.77720000  1
  C  C64  1  0.86223000  0.65023000  0.86026000  1
  C  C65  1  0.82987000  0.61847000  0.79794000  1
  C  C66  1  0.94585000  0.69585000  0.89170000  1
  C  C67  1  0.64745000  0.53165000  0.56630000  1
  C  C68  1  0.55257000  0.61337000  0.46474000  1
  C  C69  1  0.19717000  0.36897000  0.10594000  1
  C  C70  1  0.76780000  0.58440000  0.66360000  1
  C  C71  1  0.88250000  0.63250000  0.76500000  1
  C  C72  1  0.58885000  0.76365000  0.47010000  1
  C  C73  1  0.17753000  0.38813000  0.05446000  1
  C  C74  1  0.73544000  0.55004000  0.60068000  1
  C  C75  1  0.99803000  0.71003000  0.86026000  1
  C  C76  1  0.58445000  0.68465000  0.44190000  1
  C  C77  1  0.27426000  0.36826000  0.13052000  1
  C  C78  1  0.84990000  0.59990000  0.69980000  1
  C  C79  1  0.61187000  0.82247000  0.44554000  1
  C  C80  1  0.96807000  0.67947000  0.79794000  1
  C  C81  1  0.12307000  0.83367000  0.94554000  1
  C  C82  1  0.09123000  0.76303000  0.89406000  1
  C  C83  1  0.23635000  0.41115000  0.02990000  1
  C  C84  1  0.60751000  0.66511000  0.39362000  1
  C  C85  1  0.78354000  0.53354000  0.56708000  1
  C  C86  1  0.33489000  0.39249000  0.10638000  1
  C  C87  1  0.89580000  0.57920000  0.66360000  1
  C  C88  1  0.20645000  0.88125000  0.97010000  1
  C  C89  1  0.63103000  0.80283000  0.39406000  1
  C  C90  1  0.31535000  0.41555000  0.05810000  1
  C  C91  1  0.63174000  0.72574000  0.36948000  1
  C  C92  1  0.86524000  0.55064000  0.60068000  1
  C  C93  1  0.14374000  0.73774000  0.86948000  1
  C  C94  1  0.65023000  0.86223000  0.36026000  1
  C  C95  1  0.69585000  0.94585000  0.39170000  1
  C  C96  1  0.25725000  0.85745000  0.94190000  1
  C  C97  1  0.61847000  0.82987000  0.29794000  1
  C  C98  1  0.22851000  0.78611000  0.89362000  1
  C  C99  1  0.71003000  0.99803000  0.36026000  1
  C  C100  1  0.38663000  0.44743000  0.03526000  1
  C  C101  1  0.91885000  0.53465000  0.56630000  1
  C  C102  1  0.63250000  0.88250000  0.26500000  1
  C  C103  1  0.73774000  0.14374000  0.36948000  1
  C  C104  1  0.76303000  0.09123000  0.39406000  1
  C  C105  1  0.67947000  0.96807000  0.29794000  1
  C  C106  1  0.35137000  0.91217000  0.96474000  1
  C  C107  1  0.83367000  0.12307000  0.44554000  1
  C  C108  1  0.78611000  0.22851000  0.39362000  1
  C  C109  1  0.59990000  0.84990000  0.19980000  1
  C  C110  1  0.88125000  0.20645000  0.47010000  1
  C  C111  1  0.85745000  0.25725000  0.44190000  1
  C  C112  1  0.57920000  0.89580000  0.16360000  1
  C  C113  1  0.58440000  0.76780000  0.16360000  1
  C  C114  1  0.91217000  0.35137000  0.46474000  1
  C  C115  1  0.55004000  0.73544000  0.10068000  1
  C  C116  1  0.55064000  0.86524000  0.10068000  1
  C  C117  1  0.53165000  0.64745000  0.06630000  1
  C  C118  1  0.53354000  0.78354000  0.06708000  1
  C  C119  1  0.53465000  0.91885000  0.06630000  1
  C  C120  1  0.46535000  0.08115000  0.93370000  1
  C  C121  1  0.46646000  0.21646000  0.93292000  1
  C  C122  1  0.46835000  0.35255000  0.93370000  1
  C  C123  1  0.44936000  0.13476000  0.89932000  1
  C  C124  1  0.44996000  0.26456000  0.89932000  1
  C  C125  1  0.08783000  0.64863000  0.53526000  1
  C  C126  1  0.41560000  0.23220000  0.83640000  1
  C  C127  1  0.42080000  0.10420000  0.83640000  1
  C  C128  1  0.14255000  0.74275000  0.55810000  1
  C  C129  1  0.11875000  0.79355000  0.52990000  1
  C  C130  1  0.40010000  0.15010000  0.80020000  1
  C  C131  1  0.21389000  0.77149000  0.60638000  1
  C  C132  1  0.16633000  0.87693000  0.55446000  1
  C  C133  1  0.64863000  0.08783000  0.03526000  1
  C  C134  1  0.32053000  0.03193000  0.70206000  1
  C  C135  1  0.23697000  0.90877000  0.60594000  1
  C  C136  1  0.26226000  0.85626000  0.63052000  1
  C  C137  1  0.36750000  0.11750000  0.73500000  1
  C  C138  1  0.08115000  0.46535000  0.43370000  1
  C  C139  1  0.61337000  0.55257000  0.96474000  1
  C  C140  1  0.28997000  0.00197000  0.63974000  1
  C  C141  1  0.77149000  0.21389000  0.10638000  1
  C  C142  1  0.38153000  0.17013000  0.70206000  1
  C  C143  1  0.74275000  0.14255000  0.05810000  1
  C  C144  1  0.30415000  0.05415000  0.60830000  1
  C  C145  1  0.34977000  0.13777000  0.63974000  1
  C  C146  1  0.85626000  0.26226000  0.13052000  1
  C  C147  1  0.13476000  0.44936000  0.39932000  1
  C  C148  1  0.36826000  0.27426000  0.63052000  1
  C  C149  1  0.68465000  0.58445000  0.94190000  1
  C  C150  1  0.36897000  0.19717000  0.60594000  1
  C  C151  1  0.79355000  0.11875000  0.02990000  1
  C  C152  1  0.10420000  0.42080000  0.33640000  1
  C  C153  1  0.66511000  0.60751000  0.89362000  1
  C  C154  1  0.21646000  0.46646000  0.43292000  1
  C  C155  1  0.39249000  0.33489000  0.60638000  1
  C  C156  1  0.76365000  0.58885000  0.97010000  1
  C  C157  1  0.90877000  0.23697000  0.10594000  1
  C  C158  1  0.87693000  0.16633000  0.05446000  1
  C  C159  1  0.03193000  0.32053000  0.20206000  1
  C  C160  1  0.38813000  0.17753000  0.55446000  1
  C  C161  1  0.15010000  0.40010000  0.30020000  1
  C  C162  1  0.72574000  0.63174000  0.86948000  1
  C  C163  1  0.41555000  0.31535000  0.55810000  1
  C  C164  1  0.00197000  0.28997000  0.13974000  1
  C  C165  1  0.26456000  0.44996000  0.39932000  1
  C  C166  1  0.82247000  0.61187000  0.94554000  1
  C  C167  1  0.41115000  0.23635000  0.52990000  1
  C  C168  1  0.11750000  0.36750000  0.23500000  1
  C  C169  1  0.23220000  0.41560000  0.33640000  1
  C  C170  1  0.80283000  0.63103000  0.89406000  1
  C  C171  1  0.44743000  0.38663000  0.53526000  1
  C  C172  1  0.35255000  0.46835000  0.43370000  1
  C  C173  1  0.05415000  0.30415000  0.10830000  1
  C  C174  1  0.17013000  0.38153000  0.20206000  1
  C  C175  1  0.13777000  0.34977000  0.13974000  1
  O  O176  1  0.60987000  0.56909000  0.59168000  1
  O  O177  1  0.53779000  0.63621000  0.51370000  1
  O  O178  1  0.61603000  0.48059000  0.51190000  1
  O  O179  1  0.54515000  0.54387000  0.43364000  1
  O  O180  1  0.37749000  0.97591000  0.01370000  1
  O  O181  1  0.36379000  0.46221000  0.98630000  1
  O  O182  1  0.89587000  0.53131000  0.51190000  1
  O  O183  1  0.45613000  0.45485000  0.06636000  1
  O  O184  1  0.98181000  0.52259000  0.59168000  1
  O  O185  1  0.52259000  0.98181000  0.09168000  1
  O  O186  1  0.88849000  0.38977000  0.43364000  1
  O  O187  1  0.38977000  0.88849000  0.93364000  1
  O  O188  1  0.97591000  0.37749000  0.51370000  1
  O  O189  1  0.48059000  0.61603000  0.01190000  1
  O  O190  1  0.56909000  0.60987000  0.09168000  1
  O  O191  1  0.46869000  0.10413000  0.98810000  1
  O  O192  1  0.53131000  0.89587000  0.01190000  1
  O  O193  1  0.43091000  0.39013000  0.90832000  1
  O  O194  1  0.51941000  0.38397000  0.98810000  1
  O  O195  1  0.02409000  0.62251000  0.48630000  1
  O  O196  1  0.61023000  0.11151000  0.06636000  1
  O  O197  1  0.11151000  0.61023000  0.56636000  1
  O  O198  1  0.47741000  0.01819000  0.90832000  1
  O  O199  1  0.01819000  0.47741000  0.40832000  1
  O  O200  1  0.54387000  0.54515000  0.93364000  1
  O  O201  1  0.10413000  0.46869000  0.48810000  1
  O  O202  1  0.63621000  0.53779000  0.01370000  1
  O  O203  1  0.62251000  0.02409000  0.98630000  1
  O  O204  1  0.45485000  0.45613000  0.56636000  1
  O  O205  1  0.38397000  0.51941000  0.48810000  1
  O  O206  1  0.46221000  0.36379000  0.48630000  1
  O  O207  1  0.39013000  0.43091000  0.40832000  1
