# generated using pymatgen
data_Cd5H14C16N18(ClO2)2
_symmetry_space_group_name_H-M   'P 1'
_cell_length_a   8.51730000
_cell_length_b   9.76150000
_cell_length_c   22.40550000
_cell_angle_alpha   90.00000000
_cell_angle_beta   90.00000000
_cell_angle_gamma   92.28500000
_symmetry_Int_Tables_number   1
_chemical_formula_structural   Cd5H14C16N18(ClO2)2
_chemical_formula_sum   'Cd10 H28 C32 N36 Cl4 O8'
_cell_volume   1861.34845873
_cell_formula_units_Z   2
loop_
 _symmetry_equiv_pos_site_id
 _symmetry_equiv_pos_as_xyz
  1  'x, y, z'
loop_
 _atom_site_type_symbol
 _atom_site_label
 _atom_site_symmetry_multiplicity
 _atom_site_fract_x
 _atom_site_fract_y
 _atom_site_fract_z
 _atom_site_occupancy
  Cd  Cd0  1  0.00000000  0.00000000  0.00000000  1
  Cd  Cd1  1  0.00000000  0.50000000  0.50000000  1
  Cd  Cd2  1  0.32982000  0.22573000  0.10207000  1
  Cd  Cd3  1  0.32982000  0.72573000  0.39793000  1
  Cd  Cd4  1  0.35750000  0.01774000  0.65218000  1
  Cd  Cd5  1  0.35750000  0.51774000  0.84782000  1
  Cd  Cd6  1  0.64250000  0.48226000  0.15218000  1
  Cd  Cd7  1  0.64250000  0.98226000  0.34782000  1
  Cd  Cd8  1  0.67018000  0.27427000  0.60207000  1
  Cd  Cd9  1  0.67018000  0.77427000  0.89793000  1
  H  H10  1  0.07270000  0.18450000  0.56610000  1
  H  H11  1  0.07270000  0.68450000  0.93390000  1
  H  H12  1  0.12670000  0.16490000  0.36420000  1
  H  H13  1  0.12670000  0.66490000  0.13580000  1
  H  H14  1  0.24770000  0.19240000  0.41600000  1
  H  H15  1  0.24770000  0.69240000  0.08400000  1
  H  H16  1  0.30460000  0.19510000  0.34950000  1
  H  H17  1  0.30460000  0.69510000  0.15050000  1
  H  H18  1  0.30990000  0.19760000  0.78360000  1
  H  H19  1  0.30990000  0.69760000  0.71640000  1
  H  H20  1  0.38170000  0.47200000  0.53000000  1
  H  H21  1  0.38170000  0.97200000  0.97000000  1
  H  H22  1  0.38190000  0.02600000  0.23270000  1
  H  H23  1  0.38190000  0.52600000  0.26730000  1
  H  H24  1  0.61810000  0.47400000  0.73270000  1
  H  H25  1  0.61810000  0.97400000  0.76730000  1
  H  H26  1  0.61830000  0.02800000  0.03000000  1
  H  H27  1  0.61830000  0.52800000  0.47000000  1
  H  H28  1  0.69010000  0.30240000  0.28360000  1
  H  H29  1  0.69010000  0.80240000  0.21640000  1
  H  H30  1  0.69540000  0.30490000  0.84950000  1
  H  H31  1  0.69540000  0.80490000  0.65050000  1
  H  H32  1  0.75230000  0.30760000  0.91600000  1
  H  H33  1  0.75230000  0.80760000  0.58400000  1
  H  H34  1  0.87330000  0.33510000  0.86420000  1
  H  H35  1  0.87330000  0.83510000  0.63580000  1
  H  H36  1  0.92730000  0.31550000  0.06610000  1
  H  H37  1  0.92730000  0.81550000  0.43390000  1
  C  C38  1  0.16730000  0.23510000  0.56350000  1
  C  C39  1  0.16730000  0.73510000  0.93650000  1
  C  C40  1  0.16930000  0.24550000  0.91480000  1
  C  C41  1  0.16930000  0.74550000  0.58520000  1
  C  C42  1  0.23250000  0.15210000  0.37730000  1
  C  C43  1  0.23250000  0.65210000  0.12270000  1
  C  C44  1  0.26110000  0.00170000  0.38050000  1
  C  C45  1  0.26110000  0.50170000  0.11950000  1
  C  C46  1  0.32130000  0.35880000  0.97030000  1
  C  C47  1  0.32130000  0.85880000  0.52970000  1
  C  C48  1  0.33460000  0.39040000  0.54380000  1
  C  C49  1  0.33460000  0.89040000  0.95620000  1
  C  C50  1  0.38850000  0.24450000  0.76210000  1
  C  C51  1  0.38850000  0.74450000  0.73790000  1
  C  C52  1  0.44430000  0.10620000  0.23462000  1
  C  C53  1  0.44430000  0.60620000  0.26538000  1
  C  C54  1  0.55570000  0.39380000  0.73462000  1
  C  C55  1  0.55570000  0.89380000  0.76538000  1
  C  C56  1  0.61150000  0.25550000  0.26210000  1
  C  C57  1  0.61150000  0.75550000  0.23790000  1
  C  C58  1  0.66540000  0.10960000  0.04380000  1
  C  C59  1  0.66540000  0.60960000  0.45620000  1
  C  C60  1  0.67870000  0.14120000  0.47030000  1
  C  C61  1  0.67870000  0.64120000  0.02970000  1
  C  C62  1  0.73890000  0.49830000  0.88050000  1
  C  C63  1  0.73890000  0.99830000  0.61950000  1
  C  C64  1  0.76750000  0.34790000  0.87730000  1
  C  C65  1  0.76750000  0.84790000  0.62270000  1
  C  C66  1  0.83070000  0.25450000  0.41480000  1
  C  C67  1  0.83070000  0.75450000  0.08520000  1
  C  C68  1  0.83270000  0.26490000  0.06350000  1
  C  C69  1  0.83270000  0.76490000  0.43650000  1
  N  N70  1  0.15660000  0.18690000  0.96799000  1
  N  N71  1  0.15660000  0.68690000  0.53201000  1
  N  N72  1  0.18160000  0.35800000  0.53771000  1
  N  N73  1  0.18160000  0.85800000  0.96229000  1
  N  N74  1  0.25580000  0.26110000  0.00445000  1
  N  N75  1  0.25580000  0.76110000  0.49555000  1
  N  N76  1  0.27110000  0.35260000  0.91399000  1
  N  N77  1  0.27110000  0.85260000  0.58601000  1
  N  N78  1  0.30170000  0.19260000  0.58494000  1
  N  N79  1  0.30170000  0.69260000  0.91506000  1
  N  N80  1  0.41240000  0.29370000  0.57165000  1
  N  N81  1  0.41240000  0.79370000  0.92835000  1
  N  N82  1  0.43400000  0.20720000  0.19650000  1
  N  N83  1  0.43400000  0.70720000  0.30350000  1
  N  N84  1  0.44620000  0.37000000  0.77676000  1
  N  N85  1  0.44620000  0.87000000  0.72324000  1
  N  N86  1  0.45510000  0.19460000  0.71392000  1
  N  N87  1  0.45510000  0.69460000  0.78608000  1
  N  N88  1  0.54490000  0.30540000  0.21392000  1
  N  N89  1  0.54490000  0.80540000  0.28608000  1
  N  N90  1  0.55380000  0.13000000  0.27676000  1
  N  N91  1  0.55380000  0.63000000  0.22324000  1
  N  N92  1  0.56600000  0.29280000  0.69650000  1
  N  N93  1  0.56600000  0.79280000  0.80350000  1
  N  N94  1  0.58760000  0.20630000  0.07165000  1
  N  N95  1  0.58760000  0.70630000  0.42835000  1
  N  N96  1  0.69830000  0.30740000  0.08494000  1
  N  N97  1  0.69830000  0.80740000  0.41506000  1
  N  N98  1  0.72890000  0.14740000  0.41399000  1
  N  N99  1  0.72890000  0.64740000  0.08601000  1
  N  N100  1  0.74420000  0.23890000  0.50445000  1
  N  N101  1  0.74420000  0.73890000  0.99555000  1
  N  N102  1  0.81840000  0.14200000  0.03771000  1
  N  N103  1  0.81840000  0.64200000  0.46229000  1
  N  N104  1  0.84340000  0.31310000  0.46799000  1
  N  N105  1  0.84340000  0.81310000  0.03201000  1
  Cl  Cl106  1  0.15904000  0.00857000  0.10780000  1
  Cl  Cl107  1  0.15904000  0.50857000  0.39220000  1
  Cl  Cl108  1  0.84096000  0.49143000  0.60780000  1
  Cl  Cl109  1  0.84096000  0.99143000  0.89220000  1
  O  O110  1  0.15420000  0.41530000  0.13159000  1
  O  O111  1  0.15420000  0.91530000  0.36841000  1
  O  O112  1  0.39540000  0.46470000  0.10311000  1
  O  O113  1  0.39540000  0.96470000  0.39689000  1
  O  O114  1  0.60460000  0.03530000  0.60311000  1
  O  O115  1  0.60460000  0.53530000  0.89689000  1
  O  O116  1  0.84580000  0.08470000  0.63159000  1
  O  O117  1  0.84580000  0.58470000  0.86841000  1
