# generated using pymatgen
data_GdH3(C3O2)3
_symmetry_space_group_name_H-M   'P 1'
_cell_length_a   10.36040000
_cell_length_b   10.36040000
_cell_length_c   14.50590000
_cell_angle_alpha   90.00000000
_cell_angle_beta   90.00000000
_cell_angle_gamma   90.00000000
_symmetry_Int_Tables_number   1
_chemical_formula_structural   GdH3(C3O2)3
_chemical_formula_sum   'Gd4 H12 C36 O24'
_cell_volume   1557.03267186
_cell_formula_units_Z   4
loop_
 _symmetry_equiv_pos_site_id
 _symmetry_equiv_pos_as_xyz
  1  'x, y, z'
loop_
 _atom_site_type_symbol
 _atom_site_label
 _atom_site_symmetry_multiplicity
 _atom_site_fract_x
 _atom_site_fract_y
 _atom_site_fract_z
 _atom_site_occupancy
  Gd  Gd0  1  0.14567000  0.14567000  0.37500000  1
  Gd  Gd1  1  0.14567000  0.85433000  0.12500000  1
  Gd  Gd2  1  0.85433000  0.14567000  0.62500000  1
  Gd  Gd3  1  0.85433000  0.85433000  0.87500000  1
  H  H4  1  0.00000000  0.10960000  0.00000000  1
  H  H5  1  0.00000000  0.89040000  0.50000000  1
  H  H6  1  0.06980000  0.44340000  0.12830000  1
  H  H7  1  0.06980000  0.55660000  0.37170000  1
  H  H8  1  0.10960000  0.00000000  0.75000000  1
  H  H9  1  0.44340000  0.06980000  0.62170000  1
  H  H10  1  0.44340000  0.93020000  0.87830000  1
  H  H11  1  0.55660000  0.06980000  0.37830000  1
  H  H12  1  0.55660000  0.93020000  0.12170000  1
  H  H13  1  0.89040000  0.00000000  0.25000000  1
  H  H14  1  0.93020000  0.44340000  0.87170000  1
  H  H15  1  0.93020000  0.55660000  0.62830000  1
  C  C16  1  0.00000000  0.19940000  0.00000000  1
  C  C17  1  0.00000000  0.38930000  0.50000000  1
  C  C18  1  0.00000000  0.46290000  0.00000000  1
  C  C19  1  0.00000000  0.53710000  0.50000000  1
  C  C20  1  0.03990000  0.26250000  0.07800000  1
  C  C21  1  0.03990000  0.73750000  0.42200000  1
  C  C22  1  0.04120000  0.39780000  0.07700000  1
  C  C23  1  0.04120000  0.60220000  0.42300000  1
  C  C24  1  0.08280000  0.18900000  0.16060000  1
  C  C25  1  0.08280000  0.81100000  0.33940000  1
  C  C26  1  0.18900000  0.08280000  0.58940000  1
  C  C27  1  0.18900000  0.91720000  0.91060000  1
  C  C28  1  0.19940000  0.00000000  0.75000000  1
  C  C29  1  0.26250000  0.03990000  0.67200000  1
  C  C30  1  0.26250000  0.96010000  0.82800000  1
  C  C31  1  0.38930000  0.00000000  0.25000000  1
  C  C32  1  0.39780000  0.04120000  0.67300000  1
  C  C33  1  0.39780000  0.95880000  0.82700000  1
  C  C34  1  0.46290000  0.00000000  0.75000000  1
  C  C35  1  0.53710000  0.00000000  0.25000000  1
  C  C36  1  0.60220000  0.04120000  0.32700000  1
  C  C37  1  0.60220000  0.95880000  0.17300000  1
  C  C38  1  0.61070000  0.00000000  0.75000000  1
  C  C39  1  0.73750000  0.03990000  0.32800000  1
  C  C40  1  0.73750000  0.96010000  0.17200000  1
  C  C41  1  0.80060000  0.00000000  0.25000000  1
  C  C42  1  0.81100000  0.08280000  0.41060000  1
  C  C43  1  0.81100000  0.91720000  0.08940000  1
  C  C44  1  0.91720000  0.18900000  0.83940000  1
  C  C45  1  0.91720000  0.81100000  0.66060000  1
  C  C46  1  0.95880000  0.39780000  0.92300000  1
  C  C47  1  0.95880000  0.60220000  0.57700000  1
  C  C48  1  0.96010000  0.26250000  0.92200000  1
  C  C49  1  0.96010000  0.73750000  0.57800000  1
  C  C50  1  0.00000000  0.61070000  0.00000000  1
  C  C51  1  0.00000000  0.80060000  0.50000000  1
  O  O52  1  0.06920000  0.33550000  0.44140000  1
  O  O53  1  0.06920000  0.66450000  0.05860000  1
  O  O54  1  0.07240000  0.10690000  0.59550000  1
  O  O55  1  0.07240000  0.89310000  0.90450000  1
  O  O56  1  0.08950000  0.24750000  0.23620000  1
  O  O57  1  0.08950000  0.75250000  0.26380000  1
  O  O58  1  0.10690000  0.07240000  0.15450000  1
  O  O59  1  0.10690000  0.92760000  0.34550000  1
  O  O60  1  0.24750000  0.08950000  0.51380000  1
  O  O61  1  0.24750000  0.91050000  0.98620000  1
  O  O62  1  0.33550000  0.06920000  0.30860000  1
  O  O63  1  0.33550000  0.93080000  0.19140000  1
  O  O64  1  0.66450000  0.06920000  0.69140000  1
  O  O65  1  0.66450000  0.93080000  0.80860000  1
  O  O66  1  0.75250000  0.08950000  0.48620000  1
  O  O67  1  0.75250000  0.91050000  0.01380000  1
  O  O68  1  0.89310000  0.07240000  0.84550000  1
  O  O69  1  0.89310000  0.92760000  0.65450000  1
  O  O70  1  0.91050000  0.24750000  0.76380000  1
  O  O71  1  0.91050000  0.75250000  0.73620000  1
  O  O72  1  0.92760000  0.10690000  0.40450000  1
  O  O73  1  0.92760000  0.89310000  0.09550000  1
  O  O74  1  0.93080000  0.33550000  0.55860000  1
  O  O75  1  0.93080000  0.66450000  0.94140000  1
