# generated using pymatgen
data_LaH3C7NO4
_symmetry_space_group_name_H-M   'P 1'
_cell_length_a   20.36610000
_cell_length_b   20.36610000
_cell_length_c   20.36610000
_cell_angle_alpha   90.00000000
_cell_angle_beta   90.00000000
_cell_angle_gamma   90.00000000
_symmetry_Int_Tables_number   1
_chemical_formula_structural   LaH3C7NO4
_chemical_formula_sum   'La24 H72 C168 N24 O96'
_cell_volume   8447.41082069
_cell_formula_units_Z   24
loop_
 _symmetry_equiv_pos_site_id
 _symmetry_equiv_pos_as_xyz
  1  'x, y, z'
loop_
 _atom_site_type_symbol
 _atom_site_label
 _atom_site_symmetry_multiplicity
 _atom_site_fract_x
 _atom_site_fract_y
 _atom_site_fract_z
 _atom_site_occupancy
  La  La0  1  0.01269000  0.74276000  0.14555000  1
  La  La1  1  0.01269000  0.75724000  0.64555000  1
  La  La2  1  0.14555000  0.01269000  0.74276000  1
  La  La3  1  0.14555000  0.48731000  0.24276000  1
  La  La4  1  0.24276000  0.14555000  0.48731000  1
  La  La5  1  0.24276000  0.35445000  0.98731000  1
  La  La6  1  0.25724000  0.64555000  0.48731000  1
  La  La7  1  0.25724000  0.85445000  0.98731000  1
  La  La8  1  0.35445000  0.51269000  0.74276000  1
  La  La9  1  0.35445000  0.98731000  0.24276000  1
  La  La10  1  0.48731000  0.24276000  0.14555000  1
  La  La11  1  0.48731000  0.25724000  0.64555000  1
  La  La12  1  0.51269000  0.74276000  0.35445000  1
  La  La13  1  0.51269000  0.75724000  0.85445000  1
  La  La14  1  0.64555000  0.01269000  0.75724000  1
  La  La15  1  0.64555000  0.48731000  0.25724000  1
  La  La16  1  0.74276000  0.14555000  0.01269000  1
  La  La17  1  0.74276000  0.35445000  0.51269000  1
  La  La18  1  0.75724000  0.64555000  0.01269000  1
  La  La19  1  0.75724000  0.85445000  0.51269000  1
  La  La20  1  0.85445000  0.51269000  0.75724000  1
  La  La21  1  0.85445000  0.98731000  0.25724000  1
  La  La22  1  0.98731000  0.24276000  0.35445000  1
  La  La23  1  0.98731000  0.25724000  0.85445000  1
  H  H24  1  0.00610000  0.22630000  0.04300000  1
  H  H25  1  0.00610000  0.27370000  0.54300000  1
  H  H26  1  0.03880000  0.63980000  0.39630000  1
  H  H27  1  0.03880000  0.86020000  0.89630000  1
  H  H28  1  0.04300000  0.00610000  0.22630000  1
  H  H29  1  0.04300000  0.49390000  0.72630000  1
  H  H30  1  0.04940000  0.18370000  0.59820000  1
  H  H31  1  0.04940000  0.31630000  0.09820000  1
  H  H32  1  0.09820000  0.04940000  0.31630000  1
  H  H33  1  0.09820000  0.45060000  0.81630000  1
  H  H34  1  0.10370000  0.53880000  0.63980000  1
  H  H35  1  0.10370000  0.96120000  0.13980000  1
  H  H36  1  0.13980000  0.10370000  0.96120000  1
  H  H37  1  0.13980000  0.39630000  0.46120000  1
  H  H38  1  0.18370000  0.59820000  0.04940000  1
  H  H39  1  0.18370000  0.90180000  0.54940000  1
  H  H40  1  0.22630000  0.04300000  0.00610000  1
  H  H41  1  0.22630000  0.45700000  0.50610000  1
  H  H42  1  0.27370000  0.54300000  0.00610000  1
  H  H43  1  0.27370000  0.95700000  0.50610000  1
  H  H44  1  0.31630000  0.09820000  0.04940000  1
  H  H45  1  0.31630000  0.40180000  0.54940000  1
  H  H46  1  0.36020000  0.60370000  0.96120000  1
  H  H47  1  0.36020000  0.89630000  0.46120000  1
  H  H48  1  0.39630000  0.03880000  0.63980000  1
  H  H49  1  0.39630000  0.46120000  0.13980000  1
  H  H50  1  0.40180000  0.54940000  0.31630000  1
  H  H51  1  0.40180000  0.95060000  0.81630000  1
  H  H52  1  0.45060000  0.68370000  0.59820000  1
  H  H53  1  0.45060000  0.81630000  0.09820000  1
  H  H54  1  0.45700000  0.50610000  0.22630000  1
  H  H55  1  0.45700000  0.99390000  0.72630000  1
  H  H56  1  0.46120000  0.13980000  0.39630000  1
  H  H57  1  0.46120000  0.36020000  0.89630000  1
  H  H58  1  0.49390000  0.72630000  0.04300000  1
  H  H59  1  0.49390000  0.77370000  0.54300000  1
  H  H60  1  0.50610000  0.22630000  0.45700000  1
  H  H61  1  0.50610000  0.27370000  0.95700000  1
  H  H62  1  0.53880000  0.63980000  0.10370000  1
  H  H63  1  0.53880000  0.86020000  0.60370000  1
  H  H64  1  0.54300000  0.00610000  0.27370000  1
  H  H65  1  0.54300000  0.49390000  0.77370000  1
  H  H66  1  0.54940000  0.18370000  0.90180000  1
  H  H67  1  0.54940000  0.31630000  0.40180000  1
  H  H68  1  0.59820000  0.04940000  0.18370000  1
  H  H69  1  0.59820000  0.45060000  0.68370000  1
  H  H70  1  0.60370000  0.53880000  0.86020000  1
  H  H71  1  0.60370000  0.96120000  0.36020000  1
  H  H72  1  0.63980000  0.10370000  0.53880000  1
  H  H73  1  0.63980000  0.39630000  0.03880000  1
  H  H74  1  0.68370000  0.59820000  0.45060000  1
  H  H75  1  0.68370000  0.90180000  0.95060000  1
  H  H76  1  0.72630000  0.04300000  0.49390000  1
  H  H77  1  0.72630000  0.45700000  0.99390000  1
  H  H78  1  0.77370000  0.54300000  0.49390000  1
  H  H79  1  0.77370000  0.95700000  0.99390000  1
  H  H80  1  0.81630000  0.09820000  0.45060000  1
  H  H81  1  0.81630000  0.40180000  0.95060000  1
  H  H82  1  0.86020000  0.60370000  0.53880000  1
  H  H83  1  0.86020000  0.89630000  0.03880000  1
  H  H84  1  0.89630000  0.03880000  0.86020000  1
  H  H85  1  0.89630000  0.46120000  0.36020000  1
  H  H86  1  0.90180000  0.54940000  0.18370000  1
  H  H87  1  0.90180000  0.95060000  0.68370000  1
  H  H88  1  0.95060000  0.68370000  0.90180000  1
  H  H89  1  0.95060000  0.81630000  0.40180000  1
  H  H90  1  0.95700000  0.50610000  0.27370000  1
  H  H91  1  0.95700000  0.99390000  0.77370000  1
  H  H92  1  0.96120000  0.13980000  0.10370000  1
  H  H93  1  0.96120000  0.36020000  0.60370000  1
  H  H94  1  0.99390000  0.72630000  0.45700000  1
  H  H95  1  0.99390000  0.77370000  0.95700000  1
  C  C96  1  0.00480000  0.22820000  0.08860000  1
  C  C97  1  0.00480000  0.27180000  0.58860000  1
  C  C98  1  0.02240000  0.67690000  0.37540000  1
  C  C99  1  0.02240000  0.82310000  0.87540000  1
  C  C100  1  0.02450000  0.68250000  0.30810000  1
  C  C101  1  0.02450000  0.81750000  0.80810000  1
  C  C102  1  0.02590000  0.21640000  0.68890000  1
  C  C103  1  0.02590000  0.28360000  0.18890000  1
  C  C104  1  0.03000000  0.21810000  0.62130000  1
  C  C105  1  0.03000000  0.28190000  0.12130000  1
  C  C106  1  0.05210000  0.16070000  0.73090000  1
  C  C107  1  0.05210000  0.33930000  0.23090000  1
  C  C108  1  0.05330000  0.63050000  0.26360000  1
  C  C109  1  0.05330000  0.86950000  0.76360000  1
  C  C110  1  0.08860000  0.00480000  0.22820000  1
  C  C111  1  0.08860000  0.49520000  0.72820000  1
  C  C112  1  0.12130000  0.03000000  0.28190000  1
  C  C113  1  0.12130000  0.47000000  0.78190000  1
  C  C114  1  0.12460000  0.52240000  0.67690000  1
  C  C115  1  0.12460000  0.97760000  0.17690000  1
  C  C116  1  0.13050000  0.23640000  0.94670000  1
  C  C117  1  0.13050000  0.26360000  0.44670000  1
  C  C118  1  0.16070000  0.73090000  0.05210000  1
  C  C119  1  0.16070000  0.76910000  0.55210000  1
  C  C120  1  0.17690000  0.12460000  0.97760000  1
  C  C121  1  0.17690000  0.37540000  0.47760000  1
  C  C122  1  0.18250000  0.19190000  0.97550000  1
  C  C123  1  0.18250000  0.30810000  0.47550000  1
  C  C124  1  0.18890000  0.02590000  0.28360000  1
  C  C125  1  0.18890000  0.47410000  0.78360000  1
  C  C126  1  0.19190000  0.52450000  0.68250000  1
  C  C127  1  0.19190000  0.97550000  0.18250000  1
  C  C128  1  0.21640000  0.68890000  0.02590000  1
  C  C129  1  0.21640000  0.81110000  0.52590000  1
  C  C130  1  0.21810000  0.62130000  0.03000000  1
  C  C131  1  0.21810000  0.87870000  0.53000000  1
  C  C132  1  0.22820000  0.08860000  0.00480000  1
  C  C133  1  0.22820000  0.41140000  0.50480000  1
  C  C134  1  0.23090000  0.05210000  0.33930000  1
  C  C135  1  0.23090000  0.44790000  0.83930000  1
  C  C136  1  0.23640000  0.55330000  0.63050000  1
  C  C137  1  0.23640000  0.94670000  0.13050000  1
  C  C138  1  0.26360000  0.05330000  0.63050000  1
  C  C139  1  0.26360000  0.44670000  0.13050000  1
  C  C140  1  0.26910000  0.55210000  0.33930000  1
  C  C141  1  0.26910000  0.94790000  0.83930000  1
  C  C142  1  0.27180000  0.58860000  0.00480000  1
  C  C143  1  0.27180000  0.91140000  0.50480000  1
  C  C144  1  0.28190000  0.12130000  0.03000000  1
  C  C145  1  0.28190000  0.37870000  0.53000000  1
  C  C146  1  0.28360000  0.18890000  0.02590000  1
  C  C147  1  0.28360000  0.31110000  0.52590000  1
  C  C148  1  0.30810000  0.02450000  0.68250000  1
  C  C149  1  0.30810000  0.47550000  0.18250000  1
  C  C150  1  0.31110000  0.52590000  0.28360000  1
  C  C151  1  0.31110000  0.97410000  0.78360000  1
  C  C152  1  0.31750000  0.69190000  0.97550000  1
  C  C153  1  0.31750000  0.80810000  0.47550000  1
  C  C154  1  0.32310000  0.62460000  0.97760000  1
  C  C155  1  0.32310000  0.87540000  0.47760000  1
  C  C156  1  0.33930000  0.23090000  0.05210000  1
  C  C157  1  0.33930000  0.26910000  0.55210000  1
  C  C158  1  0.36950000  0.73640000  0.94670000  1
  C  C159  1  0.36950000  0.76360000  0.44670000  1
  C  C160  1  0.37540000  0.02240000  0.67690000  1
  C  C161  1  0.37540000  0.47760000  0.17690000  1
  C  C162  1  0.37870000  0.53000000  0.28190000  1
  C  C163  1  0.37870000  0.97000000  0.78190000  1
  C  C164  1  0.41140000  0.50480000  0.22820000  1
  C  C165  1  0.41140000  0.99520000  0.72820000  1
  C  C166  1  0.44670000  0.13050000  0.26360000  1
  C  C167  1  0.44670000  0.36950000  0.76360000  1
  C  C168  1  0.44790000  0.66070000  0.73090000  1
  C  C169  1  0.44790000  0.83930000  0.23090000  1
  C  C170  1  0.47000000  0.71810000  0.62130000  1
  C  C171  1  0.47000000  0.78190000  0.12130000  1
  C  C172  1  0.47410000  0.71640000  0.68890000  1
  C  C173  1  0.47410000  0.78360000  0.18890000  1
  C  C174  1  0.47550000  0.18250000  0.30810000  1
  C  C175  1  0.47550000  0.31750000  0.80810000  1
  C  C176  1  0.47760000  0.17690000  0.37540000  1
  C  C177  1  0.47760000  0.32310000  0.87540000  1
  C  C178  1  0.49520000  0.72820000  0.08860000  1
  C  C179  1  0.49520000  0.77180000  0.58860000  1
  C  C180  1  0.50480000  0.22820000  0.41140000  1
  C  C181  1  0.50480000  0.27180000  0.91140000  1
  C  C182  1  0.52240000  0.67690000  0.12460000  1
  C  C183  1  0.52240000  0.82310000  0.62460000  1
  C  C184  1  0.52450000  0.68250000  0.19190000  1
  C  C185  1  0.52450000  0.81750000  0.69190000  1
  C  C186  1  0.52590000  0.21640000  0.81110000  1
  C  C187  1  0.52590000  0.28360000  0.31110000  1
  C  C188  1  0.53000000  0.21810000  0.87870000  1
  C  C189  1  0.53000000  0.28190000  0.37870000  1
  C  C190  1  0.55210000  0.16070000  0.76910000  1
  C  C191  1  0.55210000  0.33930000  0.26910000  1
  C  C192  1  0.55330000  0.63050000  0.23640000  1
  C  C193  1  0.55330000  0.86950000  0.73640000  1
  C  C194  1  0.58860000  0.00480000  0.27180000  1
  C  C195  1  0.58860000  0.49520000  0.77180000  1
  C  C196  1  0.62130000  0.03000000  0.21810000  1
  C  C197  1  0.62130000  0.47000000  0.71810000  1
  C  C198  1  0.62460000  0.52240000  0.82310000  1
  C  C199  1  0.62460000  0.97760000  0.32310000  1
  C  C200  1  0.63050000  0.23640000  0.55330000  1
  C  C201  1  0.63050000  0.26360000  0.05330000  1
  C  C202  1  0.66070000  0.73090000  0.44790000  1
  C  C203  1  0.66070000  0.76910000  0.94790000  1
  C  C204  1  0.67690000  0.12460000  0.52240000  1
  C  C205  1  0.67690000  0.37540000  0.02240000  1
  C  C206  1  0.68250000  0.19190000  0.52450000  1
  C  C207  1  0.68250000  0.30810000  0.02450000  1
  C  C208  1  0.68890000  0.02590000  0.21640000  1
  C  C209  1  0.68890000  0.47410000  0.71640000  1
  C  C210  1  0.69190000  0.52450000  0.81750000  1
  C  C211  1  0.69190000  0.97550000  0.31750000  1
  C  C212  1  0.71640000  0.68890000  0.47410000  1
  C  C213  1  0.71640000  0.81110000  0.97410000  1
  C  C214  1  0.71810000  0.62130000  0.47000000  1
  C  C215  1  0.71810000  0.87870000  0.97000000  1
  C  C216  1  0.72820000  0.08860000  0.49520000  1
  C  C217  1  0.72820000  0.41140000  0.99520000  1
  C  C218  1  0.73090000  0.05210000  0.16070000  1
  C  C219  1  0.73090000  0.44790000  0.66070000  1
  C  C220  1  0.73640000  0.55330000  0.86950000  1
  C  C221  1  0.73640000  0.94670000  0.36950000  1
  C  C222  1  0.76360000  0.05330000  0.86950000  1
  C  C223  1  0.76360000  0.44670000  0.36950000  1
  C  C224  1  0.76910000  0.55210000  0.16070000  1
  C  C225  1  0.76910000  0.94790000  0.66070000  1
  C  C226  1  0.77180000  0.58860000  0.49520000  1
  C  C227  1  0.77180000  0.91140000  0.99520000  1
  C  C228  1  0.78190000  0.12130000  0.47000000  1
  C  C229  1  0.78190000  0.37870000  0.97000000  1
  C  C230  1  0.78360000  0.18890000  0.47410000  1
  C  C231  1  0.78360000  0.31110000  0.97410000  1
  C  C232  1  0.80810000  0.02450000  0.81750000  1
  C  C233  1  0.80810000  0.47550000  0.31750000  1
  C  C234  1  0.81110000  0.52590000  0.21640000  1
  C  C235  1  0.81110000  0.97410000  0.71640000  1
  C  C236  1  0.81750000  0.69190000  0.52450000  1
  C  C237  1  0.81750000  0.80810000  0.02450000  1
  C  C238  1  0.82310000  0.62460000  0.52240000  1
  C  C239  1  0.82310000  0.87540000  0.02240000  1
  C  C240  1  0.83930000  0.23090000  0.44790000  1
  C  C241  1  0.83930000  0.26910000  0.94790000  1
  C  C242  1  0.86950000  0.73640000  0.55330000  1
  C  C243  1  0.86950000  0.76360000  0.05330000  1
  C  C244  1  0.87540000  0.02240000  0.82310000  1
  C  C245  1  0.87540000  0.47760000  0.32310000  1
  C  C246  1  0.87870000  0.53000000  0.21810000  1
  C  C247  1  0.87870000  0.97000000  0.71810000  1
  C  C248  1  0.91140000  0.50480000  0.27180000  1
  C  C249  1  0.91140000  0.99520000  0.77180000  1
  C  C250  1  0.94670000  0.13050000  0.23640000  1
  C  C251  1  0.94670000  0.36950000  0.73640000  1
  C  C252  1  0.94790000  0.66070000  0.76910000  1
  C  C253  1  0.94790000  0.83930000  0.26910000  1
  C  C254  1  0.97000000  0.71810000  0.87870000  1
  C  C255  1  0.97000000  0.78190000  0.37870000  1
  C  C256  1  0.97410000  0.71640000  0.81110000  1
  C  C257  1  0.97410000  0.78360000  0.31110000  1
  C  C258  1  0.97550000  0.18250000  0.19190000  1
  C  C259  1  0.97550000  0.31750000  0.69190000  1
  C  C260  1  0.97760000  0.17690000  0.12460000  1
  C  C261  1  0.97760000  0.32310000  0.62460000  1
  C  C262  1  0.99520000  0.72820000  0.41140000  1
  C  C263  1  0.99520000  0.77180000  0.91140000  1
  N  N264  1  0.00080000  0.73500000  0.27570000  1
  N  N265  1  0.00080000  0.76500000  0.77570000  1
  N  N266  1  0.22430000  0.50080000  0.73500000  1
  N  N267  1  0.22430000  0.99920000  0.23500000  1
  N  N268  1  0.23500000  0.22430000  0.99920000  1
  N  N269  1  0.23500000  0.27570000  0.49920000  1
  N  N270  1  0.26500000  0.72430000  0.99920000  1
  N  N271  1  0.26500000  0.77570000  0.49920000  1
  N  N272  1  0.27570000  0.00080000  0.73500000  1
  N  N273  1  0.27570000  0.49920000  0.23500000  1
  N  N274  1  0.49920000  0.23500000  0.27570000  1
  N  N275  1  0.49920000  0.26500000  0.77570000  1
  N  N276  1  0.50080000  0.73500000  0.22430000  1
  N  N277  1  0.50080000  0.76500000  0.72430000  1
  N  N278  1  0.72430000  0.50080000  0.76500000  1
  N  N279  1  0.72430000  0.99920000  0.26500000  1
  N  N280  1  0.73500000  0.22430000  0.50080000  1
  N  N281  1  0.73500000  0.27570000  0.00080000  1
  N  N282  1  0.76500000  0.72430000  0.50080000  1
  N  N283  1  0.76500000  0.77570000  0.00080000  1
  N  N284  1  0.77570000  0.00080000  0.76500000  1
  N  N285  1  0.77570000  0.49920000  0.26500000  1
  N  N286  1  0.99920000  0.23500000  0.22430000  1
  N  N287  1  0.99920000  0.26500000  0.72430000  1
  O  O288  1  0.04000000  0.16490000  0.79150000  1
  O  O289  1  0.04000000  0.33510000  0.29150000  1
  O  O290  1  0.05300000  0.64230000  0.20260000  1
  O  O291  1  0.05300000  0.85770000  0.70260000  1
  O  O292  1  0.07600000  0.57960000  0.28960000  1
  O  O293  1  0.07600000  0.92040000  0.78960000  1
  O  O294  1  0.07960000  0.21040000  0.92400000  1
  O  O295  1  0.07960000  0.28960000  0.42400000  1
  O  O296  1  0.08420000  0.11600000  0.70420000  1
  O  O297  1  0.08420000  0.38400000  0.20420000  1
  O  O298  1  0.11600000  0.70420000  0.08420000  1
  O  O299  1  0.11600000  0.79580000  0.58420000  1
  O  O300  1  0.14230000  0.20260000  0.44700000  1
  O  O301  1  0.14230000  0.29740000  0.94700000  1
  O  O302  1  0.16490000  0.70850000  0.54000000  1
  O  O303  1  0.16490000  0.79150000  0.04000000  1
  O  O304  1  0.20260000  0.05300000  0.64230000  1
  O  O305  1  0.20260000  0.44700000  0.14230000  1
  O  O306  1  0.20420000  0.08420000  0.38400000  1
  O  O307  1  0.20420000  0.41580000  0.88400000  1
  O  O308  1  0.20850000  0.54000000  0.33510000  1
  O  O309  1  0.20850000  0.96000000  0.83510000  1
  O  O310  1  0.21040000  0.57600000  0.57960000  1
  O  O311  1  0.21040000  0.92400000  0.07960000  1
  O  O312  1  0.28960000  0.07600000  0.57960000  1
  O  O313  1  0.28960000  0.42400000  0.07960000  1
  O  O314  1  0.29150000  0.04000000  0.33510000  1
  O  O315  1  0.29150000  0.46000000  0.83510000  1
  O  O316  1  0.29580000  0.58420000  0.38400000  1
  O  O317  1  0.29580000  0.91580000  0.88400000  1
  O  O318  1  0.29740000  0.55300000  0.64230000  1
  O  O319  1  0.29740000  0.94700000  0.14230000  1
  O  O320  1  0.33510000  0.20850000  0.54000000  1
  O  O321  1  0.33510000  0.29150000  0.04000000  1
  O  O322  1  0.35770000  0.70260000  0.44700000  1
  O  O323  1  0.35770000  0.79740000  0.94700000  1
  O  O324  1  0.38400000  0.20420000  0.08420000  1
  O  O325  1  0.38400000  0.29580000  0.58420000  1
  O  O326  1  0.41580000  0.61600000  0.70420000  1
  O  O327  1  0.41580000  0.88400000  0.20420000  1
  O  O328  1  0.42040000  0.71040000  0.92400000  1
  O  O329  1  0.42040000  0.78960000  0.42400000  1
  O  O330  1  0.42400000  0.07960000  0.28960000  1
  O  O331  1  0.42400000  0.42040000  0.78960000  1
  O  O332  1  0.44700000  0.14230000  0.20260000  1
  O  O333  1  0.44700000  0.35770000  0.70260000  1
  O  O334  1  0.46000000  0.66490000  0.79150000  1
  O  O335  1  0.46000000  0.83510000  0.29150000  1
  O  O336  1  0.54000000  0.16490000  0.70850000  1
  O  O337  1  0.54000000  0.33510000  0.20850000  1
  O  O338  1  0.55300000  0.64230000  0.29740000  1
  O  O339  1  0.55300000  0.85770000  0.79740000  1
  O  O340  1  0.57600000  0.57960000  0.21040000  1
  O  O341  1  0.57600000  0.92040000  0.71040000  1
  O  O342  1  0.57960000  0.21040000  0.57600000  1
  O  O343  1  0.57960000  0.28960000  0.07600000  1
  O  O344  1  0.58420000  0.11600000  0.79580000  1
  O  O345  1  0.58420000  0.38400000  0.29580000  1
  O  O346  1  0.61600000  0.70420000  0.41580000  1
  O  O347  1  0.61600000  0.79580000  0.91580000  1
  O  O348  1  0.64230000  0.20260000  0.05300000  1
  O  O349  1  0.64230000  0.29740000  0.55300000  1
  O  O350  1  0.66490000  0.70850000  0.96000000  1
  O  O351  1  0.66490000  0.79150000  0.46000000  1
  O  O352  1  0.70260000  0.05300000  0.85770000  1
  O  O353  1  0.70260000  0.44700000  0.35770000  1
  O  O354  1  0.70420000  0.08420000  0.11600000  1
  O  O355  1  0.70420000  0.41580000  0.61600000  1
  O  O356  1  0.70850000  0.54000000  0.16490000  1
  O  O357  1  0.70850000  0.96000000  0.66490000  1
  O  O358  1  0.71040000  0.57600000  0.92040000  1
  O  O359  1  0.71040000  0.92400000  0.42040000  1
  O  O360  1  0.78960000  0.07600000  0.92040000  1
  O  O361  1  0.78960000  0.42400000  0.42040000  1
  O  O362  1  0.79150000  0.04000000  0.16490000  1
  O  O363  1  0.79150000  0.46000000  0.66490000  1
  O  O364  1  0.79580000  0.58420000  0.11600000  1
  O  O365  1  0.79580000  0.91580000  0.61600000  1
  O  O366  1  0.79740000  0.55300000  0.85770000  1
  O  O367  1  0.79740000  0.94700000  0.35770000  1
  O  O368  1  0.83510000  0.20850000  0.96000000  1
  O  O369  1  0.83510000  0.29150000  0.46000000  1
  O  O370  1  0.85770000  0.70260000  0.05300000  1
  O  O371  1  0.85770000  0.79740000  0.55300000  1
  O  O372  1  0.88400000  0.20420000  0.41580000  1
  O  O373  1  0.88400000  0.29580000  0.91580000  1
  O  O374  1  0.91580000  0.61600000  0.79580000  1
  O  O375  1  0.91580000  0.88400000  0.29580000  1
  O  O376  1  0.92040000  0.71040000  0.57600000  1
  O  O377  1  0.92040000  0.78960000  0.07600000  1
  O  O378  1  0.92400000  0.07960000  0.21040000  1
  O  O379  1  0.92400000  0.42040000  0.71040000  1
  O  O380  1  0.94700000  0.14230000  0.29740000  1
  O  O381  1  0.94700000  0.35770000  0.79740000  1
  O  O382  1  0.96000000  0.66490000  0.70850000  1
  O  O383  1  0.96000000  0.83510000  0.20850000  1
