# generated using pymatgen
data_ZnHC4O3
_symmetry_space_group_name_H-M   'P 1'
_cell_length_a   6.64670000
_cell_length_b   15.29200000
_cell_length_c   15.29199420
_cell_angle_alpha   117.93781493
_cell_angle_beta   98.33049514
_cell_angle_gamma   98.33060000
_symmetry_Int_Tables_number   1
_chemical_formula_structural   ZnHC4O3
_chemical_formula_sum   'Zn6 H6 C24 O18'
_cell_volume   1317.80663425
_cell_formula_units_Z   6
loop_
 _symmetry_equiv_pos_site_id
 _symmetry_equiv_pos_as_xyz
  1  'x, y, z'
loop_
 _atom_site_type_symbol
 _atom_site_label
 _atom_site_symmetry_multiplicity
 _atom_site_fract_x
 _atom_site_fract_y
 _atom_site_fract_z
 _atom_site_occupancy
  Zn  Zn0  1  0.30216000  0.68626000  0.26125000  1
  Zn  Zn1  1  0.61590000  0.57499000  0.31374000  1
  Zn  Zn2  1  0.95909000  0.26125000  0.57499000  1
  Zn  Zn3  1  0.04091000  0.73875000  0.42501000  1
  Zn  Zn4  1  0.38410000  0.42501000  0.68626000  1
  Zn  Zn5  1  0.69784000  0.31374000  0.73875000  1
  H  H6  1  0.16315000  0.44568000  0.01994000  1
  H  H7  1  0.71747000  0.57426000  0.55432000  1
  H  H8  1  0.85679000  0.01994000  0.57426000  1
  H  H9  1  0.14321000  0.98006000  0.42574000  1
  H  H10  1  0.28253000  0.42574000  0.44568000  1
  H  H11  1  0.83685000  0.55432000  0.98006000  1
  C  C12  1  0.63080000  0.09907000  0.57211000  1
  C  C13  1  0.58329000  0.91293000  0.46734000  1
  C  C14  1  0.76326000  0.43485000  0.60703000  1
  C  C15  1  0.71216000  0.01274000  0.54438000  1
  C  C16  1  0.67159000  0.82782000  0.43485000  1
  C  C17  1  0.30058000  0.46836000  0.01274000  1
  C  C18  1  0.83222000  0.54438000  0.53164000  1
  C  C19  1  0.15623000  0.39297000  0.82782000  1
  C  C20  1  0.88405000  0.46734000  0.55441000  1
  C  C21  1  0.46827000  0.52696000  0.09907000  1
  C  C22  1  0.32964000  0.44559000  0.91293000  1
  C  C23  1  0.94131000  0.57211000  0.47304000  1
  C  C24  1  0.05869000  0.42789000  0.52696000  1
  C  C25  1  0.67036000  0.55441000  0.08707000  1
  C  C26  1  0.53173000  0.47304000  0.90093000  1
  C  C27  1  0.11595000  0.53266000  0.44559000  1
  C  C28  1  0.84377000  0.60703000  0.17218000  1
  C  C29  1  0.16778000  0.45562000  0.46836000  1
  C  C30  1  0.69942000  0.53164000  0.98726000  1
  C  C31  1  0.32841000  0.17218000  0.56515000  1
  C  C32  1  0.28784000  0.98726000  0.45562000  1
  C  C33  1  0.23674000  0.56515000  0.39297000  1
  C  C34  1  0.41671000  0.08707000  0.53266000  1
  C  C35  1  0.36920000  0.90093000  0.42789000  1
  O  O36  1  0.37818000  0.52083000  0.35935000  1
  O  O37  1  0.76310000  0.19583000  0.63351000  1
  O  O38  1  0.98117000  0.35935000  0.83852000  1
  O  O39  1  0.55379000  0.73885000  0.37838000  1
  O  O40  1  0.82459000  0.37838000  0.63953000  1
  O  O41  1  0.43273000  0.56232000  0.19583000  1
  O  O42  1  0.85735000  0.83852000  0.47917000  1
  O  O43  1  0.87041000  0.63351000  0.43768000  1
  O  O44  1  0.18506000  0.36047000  0.73885000  1
  O  O45  1  0.81494000  0.63953000  0.26115000  1
  O  O46  1  0.12959000  0.36649000  0.56232000  1
  O  O47  1  0.14265000  0.16148000  0.52083000  1
  O  O48  1  0.56727000  0.43768000  0.80417000  1
  O  O49  1  0.17541000  0.62162000  0.36047000  1
  O  O50  1  0.44621000  0.26115000  0.62162000  1
  O  O51  1  0.01883000  0.64065000  0.16148000  1
  O  O52  1  0.23690000  0.80417000  0.36649000  1
  O  O53  1  0.62182000  0.47917000  0.64065000  1
