# generated using pymatgen
data_Zn3H19C27N4O9
_symmetry_space_group_name_H-M   'P 1'
_cell_length_a   11.42570000
_cell_length_b   15.79910000
_cell_length_c   18.75820000
_cell_angle_alpha   103.36700000
_cell_angle_beta   90.00000000
_cell_angle_gamma   90.00000000
_symmetry_Int_Tables_number   1
_chemical_formula_structural   Zn3H19C27N4O9
_chemical_formula_sum   'Zn12 H76 C108 N16 O36'
_cell_volume   3294.41748483
_cell_formula_units_Z   4
loop_
 _symmetry_equiv_pos_site_id
 _symmetry_equiv_pos_as_xyz
  1  'x, y, z'
loop_
 _atom_site_type_symbol
 _atom_site_label
 _atom_site_symmetry_multiplicity
 _atom_site_fract_x
 _atom_site_fract_y
 _atom_site_fract_z
 _atom_site_occupancy
  Zn  Zn0  1  0.68356000  0.92102000  0.30603000  1
  Zn  Zn1  1  0.09088000  0.91704000  0.50035000  1
  Zn  Zn2  1  0.80838000  0.77375000  0.17013000  1
  Zn  Zn3  1  0.80838000  0.72625000  0.32987000  1
  Zn  Zn4  1  0.09088000  0.58296000  0.99965000  1
  Zn  Zn5  1  0.68356000  0.57898000  0.19396000  1
  Zn  Zn6  1  0.31644000  0.42102000  0.80603000  1
  Zn  Zn7  1  0.90912000  0.41704000  0.00034000  1
  Zn  Zn8  1  0.19162000  0.27375000  0.67013000  1
  Zn  Zn9  1  0.19162000  0.22625000  0.82987000  1
  Zn  Zn10  1  0.90912000  0.08296000  0.49965000  1
  Zn  Zn11  1  0.31644000  0.07898000  0.69397000  1
  H  H12  1  0.62060000  0.99930000  0.55190000  1
  H  H13  1  0.71940000  0.99520000  0.63610000  1
  H  H14  1  0.30340000  0.98950000  0.96480000  1
  H  H15  1  0.45980000  0.96400000  0.76610000  1
  H  H16  1  0.99240000  0.94960000  0.86170000  1
  H  H17  1  0.13220000  0.93870000  0.69370000  1
  H  H18  1  0.19460000  0.92850000  0.32500000  1
  H  H19  1  0.97930000  0.92420000  0.17690000  1
  H  H20  1  0.40160000  0.91810000  0.47570000  1
  H  H21  1  0.34880000  0.90120000  0.21610000  1
  H  H22  1  0.67750000  0.88350000  0.07640000  1
  H  H23  1  0.95710000  0.86380000  0.93910000  1
  H  H24  1  0.15530000  0.85790000  0.19320000  1
  H  H25  1  0.45500000  0.84040000  0.38670000  1
  H  H26  1  0.30920000  0.83970000  0.94030000  1
  H  H27  1  0.46170000  0.82120000  0.77460000  1
  H  H28  1  0.12220000  0.80030000  0.71320000  1
  H  H29  1  0.28460000  0.79410000  0.53430000  1
  H  H30  1  0.94290000  0.77000000  0.53270000  1
  H  H31  1  0.94290000  0.73000000  0.96730000  1
  H  H32  1  0.28460000  0.70590000  0.96570000  1
  H  H33  1  0.12220000  0.69970000  0.78680000  1
  H  H34  1  0.46170000  0.67880000  0.72540000  1
  H  H35  1  0.30920000  0.66030000  0.55970000  1
  H  H36  1  0.45500000  0.65960000  0.11330000  1
  H  H37  1  0.15530000  0.64210000  0.30680000  1
  H  H38  1  0.95710000  0.63620000  0.56090000  1
  H  H39  1  0.67750000  0.61650000  0.42360000  1
  H  H40  1  0.34880000  0.59880000  0.28390000  1
  H  H41  1  0.40160000  0.58190000  0.02430000  1
  H  H42  1  0.97930000  0.57580000  0.32310000  1
  H  H43  1  0.19460000  0.57150000  0.17500000  1
  H  H44  1  0.13220000  0.56130000  0.80630000  1
  H  H45  1  0.99240000  0.55040000  0.63830000  1
  H  H46  1  0.45980000  0.53600000  0.73390000  1
  H  H47  1  0.30340000  0.51050000  0.53520000  1
  H  H48  1  0.71940000  0.50480000  0.86390000  1
  H  H49  1  0.62060000  0.50070000  0.94810000  1
  H  H50  1  0.37940000  0.49930000  0.05190000  1
  H  H51  1  0.28060000  0.49520000  0.13610000  1
  H  H52  1  0.69660000  0.48950000  0.46480000  1
  H  H53  1  0.54020000  0.46400000  0.26610000  1
  H  H54  1  0.00760000  0.44960000  0.36170000  1
  H  H55  1  0.86780000  0.43870000  0.19370000  1
  H  H56  1  0.80540000  0.42850000  0.82500000  1
  H  H57  1  0.02070000  0.42420000  0.67690000  1
  H  H58  1  0.59840000  0.41810000  0.97570000  1
  H  H59  1  0.65120000  0.40120000  0.71610000  1
  H  H60  1  0.32250000  0.38350000  0.57640000  1
  H  H61  1  0.04290000  0.36380000  0.43910000  1
  H  H62  1  0.84470000  0.35790000  0.69320000  1
  H  H63  1  0.54500000  0.34040000  0.88670000  1
  H  H64  1  0.69080000  0.33970000  0.44030000  1
  H  H65  1  0.53830000  0.32120000  0.27460000  1
  H  H66  1  0.87780000  0.30030000  0.21320000  1
  H  H67  1  0.71540000  0.29410000  0.03430000  1
  H  H68  1  0.05710000  0.27000000  0.03270000  1
  H  H69  1  0.05710000  0.23000000  0.46730000  1
  H  H70  1  0.71540000  0.20590000  0.46570000  1
  H  H71  1  0.87780000  0.19970000  0.28680000  1
  H  H72  1  0.53830000  0.17880000  0.22540000  1
  H  H73  1  0.69080000  0.16030000  0.05970000  1
  H  H74  1  0.54500000  0.15960000  0.61330000  1
  H  H75  1  0.84470000  0.14210000  0.80680000  1
  H  H76  1  0.04290000  0.13620000  0.06090000  1
  H  H77  1  0.32250000  0.11650000  0.92360000  1
  H  H78  1  0.65120000  0.09880000  0.78390000  1
  H  H79  1  0.59840000  0.08190000  0.52430000  1
  H  H80  1  0.02070000  0.07580000  0.82310000  1
  H  H81  1  0.80540000  0.07150000  0.67500000  1
  H  H82  1  0.86780000  0.06130000  0.30630000  1
  H  H83  1  0.00760000  0.05040000  0.13830000  1
  H  H84  1  0.54020000  0.03600000  0.23390000  1
  H  H85  1  0.69660000  0.01050000  0.03520000  1
  H  H86  1  0.28060000  0.00480000  0.36390000  1
  H  H87  1  0.37940000  0.00070000  0.44810000  1
  C  C88  1  0.30520000  0.99993000  0.55164000  1
  C  C89  1  0.75590000  0.99460000  0.06510000  1
  C  C90  1  0.06240000  0.98200000  0.87450000  1
  C  C91  1  0.89120000  0.97107000  0.60530000  1
  C  C92  1  0.21320000  0.96893000  0.37239000  1
  C  C93  1  0.34570000  0.95875000  0.47429000  1
  C  C94  1  0.14690000  0.95291000  0.91560000  1
  C  C95  1  0.92020000  0.94210000  0.14790000  1
  C  C96  1  0.39287000  0.92860000  0.75147000  1
  C  C97  1  0.74540000  0.91820000  0.08990000  1
  C  C98  1  0.19980000  0.91440000  0.71059000  1
  C  C99  1  0.13380000  0.86780000  0.93628000  1
  C  C100  1  0.39250000  0.84530000  0.75940000  1
  C  C101  1  0.33090000  0.84304000  0.19149000  1
  C  C102  1  0.02630000  0.83260000  0.94470000  1
  C  C103  1  0.19350000  0.83200000  0.72169000  1
  C  C104  1  0.27780000  0.82730000  0.38503000  1
  C  C105  1  0.23260000  0.81820000  0.94507000  1
  C  C106  1  0.21610000  0.81675000  0.17775000  1
  C  C107  1  0.54270000  0.80908000  0.19198000  1
  C  C108  1  0.39320000  0.80053000  0.37005000  1
  C  C109  1  0.29150000  0.79515000  0.74533000  1
  C  C110  1  0.05640000  0.78759000  0.36279000  1
  C  C111  1  0.41940000  0.78297000  0.16865000  1
  C  C112  1  0.18610000  0.76828000  0.35814000  1
  C  C113  1  0.21690000  0.76110000  0.53943000  1
  C  C114  1  0.01850000  0.75240000  0.96118000  1
  C  C115  1  0.01850000  0.74760000  0.53882000  1
  C  C116  1  0.21690000  0.73890000  0.96057000  1
  C  C117  1  0.18610000  0.73172000  0.14186000  1
  C  C118  1  0.41940000  0.71703000  0.33135000  1
  C  C119  1  0.05640000  0.71241000  0.13721000  1
  C  C120  1  0.29150000  0.70485000  0.75467000  1
  C  C121  1  0.39320000  0.69947000  0.12995000  1
  C  C122  1  0.54270000  0.69092000  0.30802000  1
  C  C123  1  0.21610000  0.68325000  0.32225000  1
  C  C124  1  0.23260000  0.68180000  0.55493000  1
  C  C125  1  0.27780000  0.67270000  0.11497000  1
  C  C126  1  0.19350000  0.66800000  0.77831000  1
  C  C127  1  0.02630000  0.66740000  0.55530000  1
  C  C128  1  0.33090000  0.65696000  0.30851000  1
  C  C129  1  0.39250000  0.65470000  0.74060000  1
  C  C130  1  0.13380000  0.63220000  0.56372000  1
  C  C131  1  0.19980000  0.58560000  0.78941000  1
  C  C132  1  0.74540000  0.58180000  0.41010000  1
  C  C133  1  0.39287000  0.57140000  0.74853000  1
  C  C134  1  0.92020000  0.55790000  0.35210000  1
  C  C135  1  0.14690000  0.54709000  0.58440000  1
  C  C136  1  0.34570000  0.54125000  0.02571000  1
  C  C137  1  0.21320000  0.53107000  0.12761000  1
  C  C138  1  0.89120000  0.52893000  0.89470000  1
  C  C139  1  0.06240000  0.51800000  0.62550000  1
  C  C140  1  0.75590000  0.50540000  0.43490000  1
  C  C141  1  0.30520000  0.50007000  0.94836000  1
  C  C142  1  0.69480000  0.49993000  0.05164000  1
  C  C143  1  0.24410000  0.49460000  0.56510000  1
  C  C144  1  0.93760000  0.48200000  0.37450000  1
  C  C145  1  0.10880000  0.47107000  0.10530000  1
  C  C146  1  0.78680000  0.46893000  0.87239000  1
  C  C147  1  0.65430000  0.45875000  0.97429000  1
  C  C148  1  0.85310000  0.45291000  0.41560000  1
  C  C149  1  0.07980000  0.44210000  0.64790000  1
  C  C150  1  0.60713000  0.42860000  0.25147000  1
  C  C151  1  0.25460000  0.41820000  0.58990000  1
  C  C152  1  0.80020000  0.41440000  0.21059000  1
  C  C153  1  0.86620000  0.36780000  0.43628000  1
  C  C154  1  0.60750000  0.34530000  0.25940000  1
  C  C155  1  0.66910000  0.34304000  0.69149000  1
  C  C156  1  0.97370000  0.33260000  0.44470000  1
  C  C157  1  0.80650000  0.33200000  0.22169000  1
  C  C158  1  0.72220000  0.32730000  0.88503000  1
  C  C159  1  0.76740000  0.31820000  0.44507000  1
  C  C160  1  0.78390000  0.31675000  0.67775000  1
  C  C161  1  0.45730000  0.30908000  0.69198000  1
  C  C162  1  0.60680000  0.30053000  0.87005000  1
  C  C163  1  0.70850000  0.29515000  0.24533000  1
  C  C164  1  0.94360000  0.28759000  0.86279000  1
  C  C165  1  0.58060000  0.28297000  0.66865000  1
  C  C166  1  0.81390000  0.26828000  0.85814000  1
  C  C167  1  0.78310000  0.26110000  0.03943000  1
  C  C168  1  0.98150000  0.25240000  0.46118000  1
  C  C169  1  0.98150000  0.24760000  0.03882000  1
  C  C170  1  0.78310000  0.23890000  0.46057000  1
  C  C171  1  0.81390000  0.23172000  0.64186000  1
  C  C172  1  0.58060000  0.21703000  0.83135000  1
  C  C173  1  0.94360000  0.21241000  0.63721000  1
  C  C174  1  0.70850000  0.20485000  0.25467000  1
  C  C175  1  0.60680000  0.19947000  0.62995000  1
  C  C176  1  0.45730000  0.19092000  0.80802000  1
  C  C177  1  0.78390000  0.18325000  0.82225000  1
  C  C178  1  0.76740000  0.18180000  0.05493000  1
  C  C179  1  0.72220000  0.17270000  0.61497000  1
  C  C180  1  0.80650000  0.16800000  0.27831000  1
  C  C181  1  0.97370000  0.16740000  0.05530000  1
  C  C182  1  0.66910000  0.15696000  0.80851000  1
  C  C183  1  0.60750000  0.15470000  0.24060000  1
  C  C184  1  0.86620000  0.13220000  0.06372000  1
  C  C185  1  0.80020000  0.08560000  0.28941000  1
  C  C186  1  0.25460000  0.08180000  0.91010000  1
  C  C187  1  0.60713000  0.07140000  0.24853000  1
  C  C188  1  0.07980000  0.05790000  0.85210000  1
  C  C189  1  0.85310000  0.04709000  0.08440000  1
  C  C190  1  0.65430000  0.04125000  0.52571000  1
  C  C191  1  0.78680000  0.03107000  0.62761000  1
  C  C192  1  0.10880000  0.02893000  0.39470000  1
  C  C193  1  0.93760000  0.01800000  0.12550000  1
  C  C194  1  0.24410000  0.00540000  0.93490000  1
  C  C195  1  0.69480000  0.00007000  0.44836000  1
  N  N196  1  0.29800000  0.96241000  0.72267000  1
  N  N197  1  0.25067000  0.91619000  0.42491000  1
  N  N198  1  0.82480000  0.89142000  0.13143000  1
  N  N199  1  0.11220000  0.79582000  0.53091000  1
  N  N200  1  0.11220000  0.70418000  0.96909000  1
  N  N201  1  0.82480000  0.60858000  0.36857000  1
  N  N202  1  0.25067000  0.58381000  0.07509000  1
  N  N203  1  0.29800000  0.53759000  0.77733000  1
  N  N204  1  0.70200000  0.46241000  0.22267000  1
  N  N205  1  0.74933000  0.41619000  0.92491000  1
  N  N206  1  0.17520000  0.39142000  0.63143000  1
  N  N207  1  0.88780000  0.29582000  0.03091000  1
  N  N208  1  0.88780000  0.20418000  0.46909000  1
  N  N209  1  0.17520000  0.10858000  0.86857000  1
  N  N210  1  0.74933000  0.08381000  0.57509000  1
  N  N211  1  0.70200000  0.03759000  0.27733000  1
  O  O212  1  0.20479000  0.98547000  0.57389000  1
  O  O213  1  0.92832000  0.96111000  0.53900000  1
  O  O214  1  0.61986000  0.95451000  0.40704000  1
  O  O215  1  0.93170000  0.93500000  0.65127000  1
  O  O216  1  0.55106000  0.87804000  0.24218000  1
  O  O217  1  0.01903000  0.85959000  0.40031000  1
  O  O218  1  0.81008000  0.83900000  0.28320000  1
  O  O219  1  0.99103000  0.77018000  0.17200000  1
  O  O220  1  0.62597000  0.76215000  0.16366000  1
  O  O221  1  0.62597000  0.73785000  0.33634000  1
  O  O222  1  0.99103000  0.72982000  0.32800000  1
  O  O223  1  0.81008000  0.66100000  0.21680000  1
  O  O224  1  0.01903000  0.64041000  0.09969000  1
  O  O225  1  0.55106000  0.62196000  0.25782000  1
  O  O226  1  0.93170000  0.56500000  0.84873000  1
  O  O227  1  0.61986000  0.54549000  0.09296000  1
  O  O228  1  0.92832000  0.53889000  0.96100000  1
  O  O229  1  0.20479000  0.51453000  0.92611000  1
  O  O230  1  0.79521000  0.48547000  0.07389000  1
  O  O231  1  0.07168000  0.46111000  0.03900000  1
  O  O232  1  0.38014000  0.45451000  0.90704000  1
  O  O233  1  0.06830000  0.43500000  0.15127000  1
  O  O234  1  0.44894000  0.37804000  0.74218000  1
  O  O235  1  0.98097000  0.35959000  0.90031000  1
  O  O236  1  0.18992000  0.33900000  0.78320000  1
  O  O237  1  0.00897000  0.27018000  0.67200000  1
  O  O238  1  0.37403000  0.26215000  0.66366000  1
  O  O239  1  0.37403000  0.23785000  0.83634000  1
  O  O240  1  0.00897000  0.22982000  0.82800000  1
  O  O241  1  0.18992000  0.16100000  0.71680000  1
  O  O242  1  0.98097000  0.14041000  0.59969000  1
  O  O243  1  0.44894000  0.12196000  0.75782000  1
  O  O244  1  0.06830000  0.06500000  0.34873000  1
  O  O245  1  0.38014000  0.04549000  0.59296000  1
  O  O246  1  0.07168000  0.03889000  0.46100000  1
  O  O247  1  0.79521000  0.01453000  0.42611000  1
