# generated using pymatgen
data_Zn2H10C24O13
_symmetry_space_group_name_H-M   'P 1'
_cell_length_a   8.80900000
_cell_length_b   10.17468855
_cell_length_c   23.43880000
_cell_angle_alpha   100.77092703
_cell_angle_beta   90.00000000
_cell_angle_gamma   115.65097639
_symmetry_Int_Tables_number   1
_chemical_formula_structural   Zn2H10C24O13
_chemical_formula_sum   'Zn4 H20 C48 O26'
_cell_volume   1852.61152480
_cell_formula_units_Z   2
loop_
 _symmetry_equiv_pos_site_id
 _symmetry_equiv_pos_as_xyz
  1  'x, y, z'
loop_
 _atom_site_type_symbol
 _atom_site_label
 _atom_site_symmetry_multiplicity
 _atom_site_fract_x
 _atom_site_fract_y
 _atom_site_fract_z
 _atom_site_occupancy
  C  C0  1  0.52899000  0.98978000  0.05792000  1
  C  C1  1  0.46079000  0.98978000  0.55792000  1
  C  C2  1  0.57144000  0.97728000  0.11909000  1
  C  C3  1  0.40584000  0.97728000  0.61909000  1
  C  C4  1  0.54751000  0.92082000  0.95308000  1
  C  C5  1  0.37331000  0.92082000  0.45308000  1
  C  C6  1  0.57441000  0.91262000  0.01081000  1
  C  C7  1  0.33821000  0.91262000  0.51081000  1
  C  C8  1  0.75109000  0.90278000  0.88029000  1
  C  C9  1  0.15169000  0.90278000  0.38029000  1
  C  C10  1  0.92981000  0.89242000  0.30891000  1
  C  C11  1  0.96261000  0.89242000  0.80891000  1
  C  C12  1  0.60399000  0.83298000  0.90678000  1
  C  C13  1  0.22899000  0.83298000  0.40678000  1
  C  C14  1  0.80608000  0.81936000  0.83891000  1
  C  C15  1  0.01328000  0.81936000  0.33891000  1
  C  C16  1  0.51144000  0.67848000  0.89192000  1
  C  C17  1  0.16704000  0.67848000  0.39192000  1
  C  C18  1  0.71218000  0.66456000  0.82416000  1
  C  C19  1  0.95238000  0.66456000  0.32416000  1
  C  C20  1  0.56474000  0.59428000  0.85033000  1
  C  C21  1  0.02954000  0.59428000  0.35033000  1
  C  C22  1  0.53831000  0.57182000  0.16721000  1
  C  C23  1  0.03351000  0.57182000  0.66721000  1
  C  C24  1  0.46169000  0.42818000  0.83279000  1
  C  C25  1  0.96649000  0.42818000  0.33279000  1
  C  C26  1  0.43526000  0.40572000  0.14967000  1
  C  C27  1  0.97046000  0.40572000  0.64967000  1
  C  C28  1  0.28782000  0.33544000  0.17584000  1
  C  C29  1  0.04762000  0.33544000  0.67584000  1
  C  C30  1  0.48856000  0.32152000  0.10808000  1
  C  C31  1  0.83296000  0.32152000  0.60808000  1
  C  C32  1  0.19392000  0.18064000  0.16109000  1
  C  C33  1  0.98672000  0.18064000  0.66109000  1
  C  C34  1  0.39601000  0.16702000  0.09322000  1
  C  C35  1  0.77101000  0.16702000  0.59322000  1
  C  C36  1  0.07019000  0.10758000  0.69109000  1
  C  C37  1  0.03739000  0.10758000  0.19109000  1
  C  C38  1  0.24891000  0.09722000  0.11971000  1
  C  C39  1  0.84831000  0.09722000  0.61971000  1
  C  C40  1  0.42559000  0.08738000  0.98919000  1
  C  C41  1  0.66179000  0.08738000  0.48919000  1
  C  C42  1  0.45249000  0.07918000  0.04692000  1
  C  C43  1  0.62669000  0.07918000  0.54692000  1
  C  C44  1  0.42856000  0.02272000  0.88091000  1
  C  C45  1  0.59416000  0.02272000  0.38091000  1
  C  C46  1  0.47101000  0.01022000  0.94208000  1
  C  C47  1  0.53921000  0.01022000  0.44208000  1
  H  H48  1  0.80650000  0.99200000  0.60950000  1
  H  H49  1  0.18550000  0.99200000  0.10950000  1
  H  H50  1  0.57900000  0.98000000  0.27800000  1
  H  H51  1  0.40100000  0.98000000  0.77800000  1
  H  H52  1  0.62590000  0.85180000  0.01830000  1
  H  H53  1  0.22590000  0.85180000  0.51830000  1
  H  H54  1  0.41160000  0.63040000  0.91020000  1
  H  H55  1  0.21880000  0.63040000  0.41020000  1
  H  H56  1  0.74930000  0.60700000  0.79610000  1
  H  H57  1  0.85770000  0.60700000  0.29610000  1
  H  H58  1  0.25070000  0.39300000  0.20390000  1
  H  H59  1  0.14230000  0.39300000  0.70390000  1
  H  H60  1  0.58840000  0.36960000  0.08980000  1
  H  H61  1  0.78120000  0.36960000  0.58980000  1
  H  H62  1  0.37410000  0.14820000  0.98170000  1
  H  H63  1  0.77410000  0.14820000  0.48170000  1
  H  H64  1  0.42100000  0.02000000  0.72200000  1
  H  H65  1  0.59900000  0.02000000  0.22200000  1
  H  H66  1  0.19350000  0.00800000  0.39050000  1
  H  H67  1  0.81450000  0.00800000  0.89050000  1
  O  O68  1  0.65590000  0.00000000  0.25000000  1
  O  O69  1  0.34410000  0.00000000  0.75000000  1
  O  O70  1  0.95644000  0.96788000  0.17640000  1
  O  O71  1  0.01144000  0.96788000  0.67640000  1
  O  O72  1  0.49324000  0.93348000  0.33848000  1
  O  O73  1  0.44024000  0.93348000  0.83848000  1
  O  O74  1  0.61769000  0.87858000  0.12234000  1
  O  O75  1  0.26089000  0.87858000  0.62234000  1
  O  O76  1  0.80930000  0.80880000  0.27133000  1
  O  O77  1  0.99950000  0.80880000  0.77133000  1
  O  O78  1  0.47409000  0.64838000  0.19756000  1
  O  O79  1  0.17429000  0.64838000  0.69756000  1
  O  O80  1  0.68596000  0.63132000  0.15266000  1
  O  O81  1  0.94536000  0.63132000  0.65266000  1
  O  O82  1  0.31404000  0.36868000  0.84734000  1
  O  O83  1  0.05464000  0.36868000  0.34734000  1
  O  O84  1  0.52591000  0.35162000  0.80244000  1
  O  O85  1  0.82571000  0.35162000  0.30244000  1
  O  O86  1  0.19070000  0.19120000  0.72867000  1
  O  O87  1  0.00050000  0.19120000  0.22867000  1
  O  O88  1  0.38231000  0.12142000  0.87766000  1
  O  O89  1  0.73911000  0.12142000  0.37766000  1
  O  O90  1  0.50676000  0.06652000  0.66152000  1
  O  O91  1  0.55976000  0.06652000  0.16152000  1
  O  O92  1  0.04356000  0.03212000  0.82360000  1
  O  O93  1  0.98856000  0.03212000  0.32360000  1
  Zn  Zn94  1  0.72011000  0.84694000  0.19666000  1
  Zn  Zn95  1  0.12683000  0.84694000  0.69666000  1
  Zn  Zn96  1  0.27989000  0.15306000  0.80334000  1
  Zn  Zn97  1  0.87317000  0.15306000  0.30334000  1
