# generated using pymatgen
data_CoH18C18SN3O4
_symmetry_space_group_name_H-M   'P 1'
_cell_length_a   13.64400000
_cell_length_b   15.33390000
_cell_length_c   15.33390000
_cell_angle_alpha   80.82730000
_cell_angle_beta   77.66800000
_cell_angle_gamma   77.66850000
_symmetry_Int_Tables_number   1
_chemical_formula_structural   CoH18C18SN3O4
_chemical_formula_sum   'Co4 H72 C72 S4 N12 O16'
_cell_volume   3039.91963058
_cell_formula_units_Z   4
loop_
 _symmetry_equiv_pos_site_id
 _symmetry_equiv_pos_as_xyz
  1  'x, y, z'
loop_
 _atom_site_type_symbol
 _atom_site_label
 _atom_site_symmetry_multiplicity
 _atom_site_fract_x
 _atom_site_fract_y
 _atom_site_fract_z
 _atom_site_occupancy
  Co  Co0  1  0.00000000  0.00000000  0.50000000  1
  Co  Co1  1  0.75000000  0.18793000  0.81207000  1
  Co  Co2  1  0.50000000  0.50000000  1.00000000  1
  Co  Co3  1  0.25000000  0.81207000  0.18793000  1
  H  H4  1  0.99980000  0.45010000  0.08670000  1
  H  H5  1  0.99880000  0.29590000  0.29470000  1
  H  H6  1  0.98330000  0.54920000  0.74260000  1
  H  H7  1  0.98270000  0.45730000  0.40630000  1
  H  H8  1  0.98020000  0.61410000  0.28010000  1
  H  H9  1  0.97870000  0.83370000  0.42710000  1
  H  H10  1  0.97600000  0.55540000  0.07060000  1
  H  H11  1  0.97280000  0.15120000  0.34060000  1
  H  H12  1  0.95460000  0.25560000  0.75980000  1
  H  H13  1  0.95290000  0.68950000  0.46350000  1
  H  H14  1  0.90250000  0.57690000  0.58630000  1
  H  H15  1  0.87210000  0.60190000  0.73970000  1
  H  H16  1  0.87090000  0.36420000  0.99540000  1
  H  H17  1  0.84450000  0.04290000  0.36930000  1
  H  H18  1  0.82640000  0.63120000  0.93360000  1
  H  H19  1  0.81880000  0.20560000  0.60940000  1
  H  H20  1  0.79610000  0.98450000  0.62850000  1
  H  H21  1  0.76350000  0.24680000  0.47800000  1
  H  H22  1  0.73650000  0.52200000  0.75320000  1
  H  H23  1  0.70390000  0.37150000  0.01550000  1
  H  H24  1  0.68120000  0.39060000  0.79440000  1
  H  H25  1  0.67360000  0.06640000  0.36880000  1
  H  H26  1  0.65550000  0.63070000  0.95710000  1
  H  H27  1  0.62910000  0.00460000  0.63580000  1
  H  H28  1  0.62790000  0.26030000  0.39810000  1
  H  H29  1  0.59750000  0.41370000  0.42310000  1
  H  H30  1  0.54710000  0.53650000  0.31050000  1
  H  H31  1  0.54540000  0.24020000  0.74440000  1
  H  H32  1  0.52720000  0.65940000  0.84880000  1
  H  H33  1  0.52400000  0.92940000  0.44460000  1
  H  H34  1  0.52130000  0.57290000  0.16630000  1
  H  H35  1  0.51980000  0.71990000  0.38590000  1
  H  H36  1  0.51730000  0.59370000  0.54270000  1
  H  H37  1  0.51670000  0.25740000  0.45080000  1
  H  H38  1  0.50120000  0.70530000  0.70410000  1
  H  H39  1  0.50020000  0.91330000  0.54990000  1
  H  H40  1  0.49980000  0.08670000  0.45010000  1
  H  H41  1  0.49880000  0.29470000  0.29590000  1
  H  H42  1  0.48330000  0.74260000  0.54920000  1
  H  H43  1  0.48270000  0.40630000  0.45730000  1
  H  H44  1  0.48020000  0.28010000  0.61410000  1
  H  H45  1  0.47870000  0.42710000  0.83370000  1
  H  H46  1  0.47600000  0.07060000  0.55540000  1
  H  H47  1  0.47280000  0.34060000  0.15120000  1
  H  H48  1  0.45460000  0.75980000  0.25560000  1
  H  H49  1  0.45290000  0.46350000  0.68950000  1
  H  H50  1  0.40250000  0.58630000  0.57690000  1
  H  H51  1  0.37210000  0.73970000  0.60190000  1
  H  H52  1  0.37090000  0.99540000  0.36420000  1
  H  H53  1  0.34450000  0.36930000  0.04290000  1
  H  H54  1  0.32640000  0.93360000  0.63120000  1
  H  H55  1  0.31880000  0.60940000  0.20560000  1
  H  H56  1  0.29610000  0.62850000  0.98450000  1
  H  H57  1  0.26350000  0.47800000  0.24680000  1
  H  H58  1  0.23650000  0.75320000  0.52200000  1
  H  H59  1  0.20390000  0.01550000  0.37150000  1
  H  H60  1  0.18120000  0.79440000  0.39060000  1
  H  H61  1  0.17360000  0.36880000  0.06640000  1
  H  H62  1  0.15550000  0.95710000  0.63070000  1
  H  H63  1  0.12910000  0.63580000  0.00460000  1
  H  H64  1  0.12790000  0.39810000  0.26030000  1
  H  H65  1  0.09750000  0.42310000  0.41370000  1
  H  H66  1  0.04710000  0.31050000  0.53650000  1
  H  H67  1  0.04540000  0.74440000  0.24020000  1
  H  H68  1  0.02720000  0.84880000  0.65940000  1
  H  H69  1  0.02400000  0.44460000  0.92940000  1
  H  H70  1  0.02130000  0.16630000  0.57290000  1
  H  H71  1  0.01980000  0.38590000  0.71990000  1
  H  H72  1  0.01730000  0.54270000  0.59370000  1
  H  H73  1  0.01670000  0.45080000  0.25740000  1
  H  H74  1  0.00120000  0.70410000  0.70530000  1
  H  H75  1  0.00020000  0.54990000  0.91330000  1
  C  C76  1  0.99580000  0.72900000  0.64680000  1
  C  C77  1  0.99040000  0.18240000  0.38040000  1
  C  C78  1  0.98430000  0.49800000  0.95500000  1
  C  C79  1  0.98150000  0.80760000  0.48580000  1
  C  C80  1  0.97500000  0.67840000  0.59160000  1
  C  C81  1  0.96720000  0.71980000  0.50600000  1
  C  C82  1  0.95560000  0.58350000  0.61670000  1
  C  C83  1  0.94950000  0.38880000  0.73480000  1
  C  C84  1  0.92510000  0.55520000  0.71380000  1
  C  C85  1  0.90950000  0.31050000  0.75790000  1
  C  C86  1  0.88650000  0.46820000  0.73400000  1
  C  C87  1  0.87270000  0.49630000  0.96570000  1
  C  C88  1  0.82890000  0.42020000  0.98740000  1
  C  C89  1  0.80300000  0.57720000  0.95120000  1
  C  C90  1  0.79970000  0.03680000  0.42400000  1
  C  C91  1  0.78330000  0.46820000  0.75480000  1
  C  C92  1  0.77080000  0.00250000  0.57550000  1
  C  C93  1  0.75120000  0.38870000  0.77750000  1
  C  C94  1  0.74880000  0.22250000  0.61130000  1
  C  C95  1  0.72920000  0.42450000  0.99750000  1
  C  C96  1  0.71670000  0.24520000  0.53180000  1
  C  C97  1  0.70030000  0.57600000  0.96320000  1
  C  C98  1  0.69700000  0.04880000  0.42280000  1
  C  C99  1  0.67110000  0.01260000  0.57980000  1
  C  C100  1  0.62730000  0.03430000  0.50370000  1
  C  C101  1  0.61350000  0.26600000  0.53180000  1
  C  C102  1  0.59050000  0.24210000  0.68950000  1
  C  C103  1  0.57490000  0.28620000  0.44480000  1
  C  C104  1  0.55050000  0.26520000  0.61120000  1
  C  C105  1  0.54440000  0.38330000  0.41650000  1
  C  C106  1  0.53280000  0.49400000  0.28020000  1
  C  C107  1  0.52500000  0.40840000  0.32160000  1
  C  C108  1  0.51850000  0.51420000  0.19240000  1
  C  C109  1  0.51570000  0.04500000  0.50200000  1
  C  C110  1  0.50960000  0.61960000  0.81760000  1
  C  C111  1  0.50420000  0.35320000  0.27100000  1
  C  C112  1  0.49580000  0.64680000  0.72900000  1
  C  C113  1  0.49040000  0.38040000  0.18240000  1
  C  C114  1  0.48430000  0.95500000  0.49800000  1
  C  C115  1  0.48150000  0.48580000  0.80760000  1
  C  C116  1  0.47500000  0.59160000  0.67840000  1
  C  C117  1  0.46720000  0.50600000  0.71980000  1
  C  C118  1  0.45560000  0.61670000  0.58350000  1
  C  C119  1  0.44950000  0.73480000  0.38880000  1
  C  C120  1  0.42510000  0.71380000  0.55520000  1
  C  C121  1  0.40950000  0.75790000  0.31050000  1
  C  C122  1  0.38650000  0.73400000  0.46820000  1
  C  C123  1  0.37270000  0.96570000  0.49630000  1
  C  C124  1  0.32890000  0.98740000  0.42020000  1
  C  C125  1  0.30300000  0.95120000  0.57720000  1
  C  C126  1  0.29970000  0.42400000  0.03680000  1
  C  C127  1  0.28330000  0.75480000  0.46820000  1
  C  C128  1  0.27080000  0.57550000  0.00250000  1
  C  C129  1  0.25120000  0.77750000  0.38870000  1
  C  C130  1  0.24880000  0.61130000  0.22250000  1
  C  C131  1  0.22920000  0.99750000  0.42450000  1
  C  C132  1  0.21670000  0.53180000  0.24520000  1
  C  C133  1  0.20030000  0.96320000  0.57600000  1
  C  C134  1  0.19700000  0.42280000  0.04880000  1
  C  C135  1  0.17110000  0.57980000  0.01260000  1
  C  C136  1  0.12730000  0.50370000  0.03430000  1
  C  C137  1  0.11350000  0.53180000  0.26600000  1
  C  C138  1  0.09050000  0.68950000  0.24210000  1
  C  C139  1  0.07490000  0.44480000  0.28620000  1
  C  C140  1  0.05050000  0.61120000  0.26520000  1
  C  C141  1  0.04440000  0.41650000  0.38330000  1
  C  C142  1  0.03280000  0.28020000  0.49400000  1
  C  C143  1  0.02500000  0.32160000  0.40840000  1
  C  C144  1  0.01850000  0.19240000  0.51420000  1
  C  C145  1  0.01570000  0.50200000  0.04500000  1
  C  C146  1  0.00960000  0.81760000  0.61960000  1
  C  C147  1  0.00420000  0.27100000  0.35320000  1
  S  S148  1  0.93860000  0.02649000  0.73021000  1
  S  S149  1  0.56140000  0.26979000  0.97351000  1
  S  S150  1  0.43860000  0.73021000  0.02649000  1
  S  S151  1  0.06140000  0.97351000  0.26979000  1
  N  N152  1  0.99840000  0.85800000  0.53880000  1
  N  N153  1  0.83810000  0.01720000  0.49800000  1
  N  N154  1  0.80980000  0.31020000  0.77780000  1
  N  N155  1  0.69020000  0.22220000  0.68980000  1
  N  N156  1  0.66190000  0.50200000  0.98280000  1
  N  N157  1  0.50160000  0.46120000  0.14200000  1
  N  N158  1  0.49840000  0.53880000  0.85800000  1
  N  N159  1  0.33810000  0.49800000  0.01720000  1
  N  N160  1  0.30980000  0.77780000  0.31020000  1
  N  N161  1  0.19020000  0.68980000  0.22220000  1
  N  N162  1  0.16190000  0.98280000  0.50200000  1
  N  N163  1  0.00160000  0.14200000  0.46120000  1
  O  O164  1  0.97090000  0.00140000  0.23060000  1
  O  O165  1  0.96650000  0.02316000  0.63336000  1
  O  O166  1  0.88740000  0.11739000  0.74779000  1
  O  O167  1  0.86420000  0.96540000  0.76720000  1
  O  O168  1  0.63580000  0.23280000  0.03460000  1
  O  O169  1  0.61260000  0.25221000  0.88261000  1
  O  O170  1  0.53350000  0.36664000  0.97684000  1
  O  O171  1  0.52910000  0.76940000  0.99860000  1
  O  O172  1  0.47090000  0.23060000  0.00140000  1
  O  O173  1  0.46650000  0.63336000  0.02316000  1
  O  O174  1  0.38740000  0.74779000  0.11739000  1
  O  O175  1  0.36420000  0.76720000  0.96540000  1
  O  O176  1  0.13580000  0.03460000  0.23280000  1
  O  O177  1  0.11260000  0.88261000  0.25221000  1
  O  O178  1  0.03350000  0.97684000  0.36664000  1
  O  O179  1  0.02910000  0.99860000  0.76940000  1
