# generated using pymatgen
data_Eu2Zn3H84C54(NO2)12
_symmetry_space_group_name_H-M   'P 1'
_cell_length_a   8.61900000
_cell_length_b   17.81800000
_cell_length_c   18.38500000
_cell_angle_alpha   95.67200000
_cell_angle_beta   102.22300000
_cell_angle_gamma   101.05300000
_symmetry_Int_Tables_number   1
_chemical_formula_structural   Eu2Zn3H84C54(NO2)12
_chemical_formula_sum   'Eu2 Zn3 H84 C54 N12 O24'
_cell_volume   2679.49204237
_cell_formula_units_Z   1
loop_
 _symmetry_equiv_pos_site_id
 _symmetry_equiv_pos_as_xyz
  1  'x, y, z'
loop_
 _atom_site_type_symbol
 _atom_site_label
 _atom_site_symmetry_multiplicity
 _atom_site_fract_x
 _atom_site_fract_y
 _atom_site_fract_z
 _atom_site_occupancy
  Eu  Eu0  1  0.05711000  0.77358000  0.14318000  1
  Eu  Eu1  1  0.94289000  0.22642000  0.85682000  1
  Zn  Zn2  1  0.00000000  0.00000000  0.50000000  1
  Zn  Zn3  1  0.50000000  0.00000000  0.00000000  1
  Zn  Zn4  1  0.50000000  0.50000000  0.00000000  1
  H  H5  1  0.06150000  0.15190000  0.62330000  1
  H  H6  1  0.10170000  0.86300000  0.93820000  1
  H  H7  1  0.11290000  0.03560000  0.72170000  1
  H  H8  1  0.12150000  0.96860000  0.66170000  1
  H  H9  1  0.12750000  0.87360000  0.40310000  1
  H  H10  1  0.12860000  0.05040000  0.87850000  1
  H  H11  1  0.13060000  0.91990000  0.84270000  1
  H  H12  1  0.13180000  0.00860000  0.95000000  1
  H  H13  1  0.14240000  0.51780000  0.95270000  1
  H  H14  1  0.15240000  0.60410000  0.98460000  1
  H  H15  1  0.15250000  0.06530000  0.37160000  1
  H  H16  1  0.16190000  0.52640000  0.10710000  1
  H  H17  1  0.18470000  0.45650000  0.05500000  1
  H  H18  1  0.19270000  0.48480000  0.82200000  1
  H  H19  1  0.21780000  0.99560000  0.33960000  1
  H  H20  1  0.23560000  0.81920000  0.97120000  1
  H  H21  1  0.24150000  0.60350000  0.87360000  1
  H  H22  1  0.25520000  0.16410000  0.99880000  1
  H  H23  1  0.27300000  0.09890000  0.04920000  1
  H  H24  1  0.28140000  0.12400000  0.66380000  1
  H  H25  1  0.28370000  0.45630000  0.18490000  1
  H  H26  1  0.28530000  0.16960000  0.56630000  1
  H  H27  1  0.29600000  0.97070000  0.83620000  1
  H  H28  1  0.31180000  0.81740000  0.85080000  1
  H  H29  1  0.31710000  0.97260000  0.46460000  1
  H  H30  1  0.33250000  0.16030000  0.48860000  1
  H  H31  1  0.33900000  0.45020000  0.80760000  1
  H  H32  1  0.34400000  0.99140000  0.58860000  1
  H  H33  1  0.37100000  0.06650000  0.70560000  1
  H  H34  1  0.39120000  0.64230000  0.94030000  1
  H  H35  1  0.40130000  0.05500000  0.45230000  1
  H  H36  1  0.40170000  0.38330000  0.10680000  1
  H  H37  1  0.41750000  0.52920000  0.18540000  1
  H  H38  1  0.43460000  0.08870000  0.86130000  1
  H  H39  1  0.45370000  0.07400000  0.59700000  1
  H  H40  1  0.45580000  0.79130000  0.96540000  1
  H  H41  1  0.45640000  0.88590000  0.85180000  1
  H  H42  1  0.45760000  0.22060000  0.10000000  1
  H  H43  1  0.47050000  0.62850000  0.13860000  1
  H  H44  1  0.47310000  0.66470000  0.06450000  1
  H  H45  1  0.47970000  0.84360000  0.07370000  1
  H  H46  1  0.48390000  0.58490000  0.81360000  1
  H  H47  1  0.51610000  0.41510000  0.18640000  1
  H  H48  1  0.52030000  0.15640000  0.92630000  1
  H  H49  1  0.52690000  0.33530000  0.93550000  1
  H  H50  1  0.52950000  0.37150000  0.86140000  1
  H  H51  1  0.54240000  0.77940000  0.90000000  1
  H  H52  1  0.54360000  0.11410000  0.14820000  1
  H  H53  1  0.54420000  0.20870000  0.03460000  1
  H  H54  1  0.54630000  0.92600000  0.40300000  1
  H  H55  1  0.56540000  0.91130000  0.13870000  1
  H  H56  1  0.58250000  0.47080000  0.81460000  1
  H  H57  1  0.59830000  0.61670000  0.89320000  1
  H  H58  1  0.59870000  0.94500000  0.54770000  1
  H  H59  1  0.60880000  0.35770000  0.05970000  1
  H  H60  1  0.62900000  0.93350000  0.29440000  1
  H  H61  1  0.65600000  0.00860000  0.41140000  1
  H  H62  1  0.66100000  0.54980000  0.19240000  1
  H  H63  1  0.66750000  0.83970000  0.51140000  1
  H  H64  1  0.68290000  0.02740000  0.53540000  1
  H  H65  1  0.68820000  0.18260000  0.14920000  1
  H  H66  1  0.70400000  0.02930000  0.16380000  1
  H  H67  1  0.71470000  0.83040000  0.43370000  1
  H  H68  1  0.71630000  0.54370000  0.81510000  1
  H  H69  1  0.71860000  0.87600000  0.33620000  1
  H  H70  1  0.72700000  0.90110000  0.95080000  1
  H  H71  1  0.74480000  0.83590000  0.00120000  1
  H  H72  1  0.75850000  0.39650000  0.12640000  1
  H  H73  1  0.76440000  0.18080000  0.02880000  1
  H  H74  1  0.78220000  0.00440000  0.66040000  1
  H  H75  1  0.80730000  0.51520000  0.17800000  1
  H  H76  1  0.81530000  0.54350000  0.94500000  1
  H  H77  1  0.83810000  0.47360000  0.89290000  1
  H  H78  1  0.84750000  0.93470000  0.62840000  1
  H  H79  1  0.84760000  0.39590000  0.01540000  1
  H  H80  1  0.85760000  0.48220000  0.04730000  1
  H  H81  1  0.86820000  0.99140000  0.05000000  1
  H  H82  1  0.86940000  0.08010000  0.15730000  1
  H  H83  1  0.87140000  0.94960000  0.12150000  1
  H  H84  1  0.87250000  0.12640000  0.59690000  1
  H  H85  1  0.87850000  0.03140000  0.33830000  1
  H  H86  1  0.88710000  0.96440000  0.27830000  1
  H  H87  1  0.89830000  0.13700000  0.06180000  1
  H  H88  1  0.93850000  0.84810000  0.37670000  1
  C  C89  1  0.03350000  0.88060000  0.36690000  1
  C  C90  1  0.04900000  0.84940000  0.28760000  1
  C  C91  1  0.08800000  0.15720000  0.47670000  1
  C  C92  1  0.12270000  0.02340000  0.67050000  1
  C  C93  1  0.17440000  0.01510000  0.38040000  1
  C  C94  1  0.19360000  0.02500000  0.91380000  1
  C  C95  1  0.21290000  0.87010000  0.96700000  1
  C  C96  1  0.21650000  0.56690000  0.97420000  1
  C  C97  1  0.22700000  0.91100000  0.04510000  1
  C  C98  1  0.23140000  0.95390000  0.87130000  1
  C  C99  1  0.23510000  0.40030000  0.88630000  1
  C  C100  1  0.24230000  0.50330000  0.08910000  1
  C  C101  1  0.25130000  0.14140000  0.51560000  1
  C  C102  1  0.28100000  0.68210000  0.10860000  1
  C  C103  1  0.28760000  0.07010000  0.66220000  1
  C  C104  1  0.28840000  0.46790000  0.84650000  1
  C  C105  1  0.29870000  0.02320000  0.45540000  1
  C  C106  1  0.31430000  0.59410000  0.91810000  1
  C  C107  1  0.31870000  0.17920000  0.85790000  1
  C  C108  1  0.32640000  0.13090000  0.01800000  1
  C  C109  1  0.34270000  0.04590000  0.59150000  1
  C  C110  1  0.35170000  0.48170000  0.15480000  1
  C  C111  1  0.39810000  0.85720000  0.88350000  1
  C  C112  1  0.40280000  0.63540000  0.09140000  1
  C  C113  1  0.41500000  0.12510000  0.89940000  1
  C  C114  1  0.46580000  0.43010000  0.13920000  1
  C  C115  1  0.48570000  0.18170000  0.06740000  1
  C  C116  1  0.51430000  0.81830000  0.93260000  1
  C  C117  1  0.53420000  0.56990000  0.86080000  1
  C  C118  1  0.58500000  0.87490000  0.10060000  1
  C  C119  1  0.59720000  0.36460000  0.90860000  1
  C  C120  1  0.60190000  0.14280000  0.11650000  1
  C  C121  1  0.64830000  0.51830000  0.84520000  1
  C  C122  1  0.65730000  0.95410000  0.40850000  1
  C  C123  1  0.67360000  0.86910000  0.98200000  1
  C  C124  1  0.68130000  0.82080000  0.14210000  1
  C  C125  1  0.68570000  0.40590000  0.08190000  1
  C  C126  1  0.70130000  0.97680000  0.54460000  1
  C  C127  1  0.71160000  0.53210000  0.15350000  1
  C  C128  1  0.71240000  0.92990000  0.33780000  1
  C  C129  1  0.71900000  0.31790000  0.89140000  1
  C  C130  1  0.74870000  0.85860000  0.48440000  1
  C  C131  1  0.75770000  0.49670000  0.91090000  1
  C  C132  1  0.76490000  0.59970000  0.11370000  1
  C  C133  1  0.76860000  0.04610000  0.12870000  1
  C  C134  1  0.77300000  0.08900000  0.95490000  1
  C  C135  1  0.78350000  0.43310000  0.02580000  1
  C  C136  1  0.78710000  0.12990000  0.03300000  1
  C  C137  1  0.80640000  0.97500000  0.08620000  1
  C  C138  1  0.82560000  0.98490000  0.61960000  1
  C  C139  1  0.87730000  0.97660000  0.32950000  1
  C  C140  1  0.91200000  0.84280000  0.52330000  1
  C  C141  1  0.95100000  0.15060000  0.71240000  1
  C  C142  1  0.96650000  0.11940000  0.63310000  1
  N  N143  1  0.02040000  0.96090000  0.38230000  1
  N  N144  1  0.24330000  0.05850000  0.51930000  1
  N  N145  1  0.32240000  0.91094000  0.92534000  1
  N  N146  1  0.32750000  0.55805000  0.04620000  1
  N  N147  1  0.34810000  0.07974000  0.95320000  1
  N  N148  1  0.40380000  0.53497000  0.89630000  1
  N  N149  1  0.59620000  0.46503000  0.10370000  1
  N  N150  1  0.65190000  0.92026000  0.04680000  1
  N  N151  1  0.67250000  0.44195000  0.95380000  1
  N  N152  1  0.67760000  0.08906000  0.07466000  1
  N  N153  1  0.75670000  0.94150000  0.48070000  1
  N  N154  1  0.97960000  0.03910000  0.61770000  1
  O  O155  1  0.03980000  0.77795000  0.27493000  1
  O  O156  1  0.04090000  0.89413000  0.53343000  1
  O  O157  1  0.07110000  0.89296000  0.23917000  1
  O  O158  1  0.09110000  0.22300000  0.45900000  1
  O  O159  1  0.12580000  0.34663000  0.84860000  1
  O  O160  1  0.12870000  0.88075000  0.08152000  1
  O  O161  1  0.19570000  0.19243000  0.87752000  1
  O  O162  1  0.20180000  0.66506000  0.15590000  1
  O  O163  1  0.26080000  0.73786000  0.07302000  1
  O  O164  1  0.30650000  0.40248000  0.95504000  1
  O  O165  1  0.33430000  0.97209000  0.07049000  1
  O  O166  1  0.38010000  0.20739000  0.80824000  1
  O  O167  1  0.61990000  0.79261000  0.19176000  1
  O  O168  1  0.66570000  0.02791000  0.92951000  1
  O  O169  1  0.69350000  0.59752000  0.04496000  1
  O  O170  1  0.73920000  0.26214000  0.92698000  1
  O  O171  1  0.79820000  0.33494000  0.84410000  1
  O  O172  1  0.80430000  0.80757000  0.12248000  1
  O  O173  1  0.87130000  0.11925000  0.91848000  1
  O  O174  1  0.87420000  0.65337000  0.15140000  1
  O  O175  1  0.90890000  0.77700000  0.54100000  1
  O  O176  1  0.92890000  0.10704000  0.76083000  1
  O  O177  1  0.95910000  0.10587000  0.46657000  1
  O  O178  1  0.96020000  0.22205000  0.72507000  1
