# generated using pymatgen
data_NdH40C40N6ClO10
_symmetry_space_group_name_H-M   'P 1'
_cell_length_a   16.43740000
_cell_length_b   18.10410000
_cell_length_c   18.10410000
_cell_angle_alpha   90.00000000
_cell_angle_beta   90.00000000
_cell_angle_gamma   90.00000000
_symmetry_Int_Tables_number   1
_chemical_formula_structural   NdH40C40N6ClO10
_chemical_formula_sum   'Nd4 H160 C160 N24 Cl4 O40'
_cell_volume   5387.49652922
_cell_formula_units_Z   4
loop_
 _symmetry_equiv_pos_site_id
 _symmetry_equiv_pos_as_xyz
  1  'x, y, z'
loop_
 _atom_site_type_symbol
 _atom_site_label
 _atom_site_symmetry_multiplicity
 _atom_site_fract_x
 _atom_site_fract_y
 _atom_site_fract_z
 _atom_site_occupancy
  Nd  Nd0  1  0.00000000  0.78336000  0.78336000  1
  Nd  Nd1  1  0.25000000  0.71664000  0.28336000  1
  Nd  Nd2  1  0.50000000  0.21664000  0.21664000  1
  Nd  Nd3  1  0.75000000  0.28336000  0.71664000  1
  H  H4  1  0.00380000  0.19430000  0.94820000  1
  H  H5  1  0.02740000  0.82140000  0.13690000  1
  H  H6  1  0.03350000  0.41000000  0.78480000  1
  H  H7  1  0.03720000  0.11110000  0.71470000  1
  H  H8  1  0.04810000  0.14510000  0.00720000  1
  H  H9  1  0.05260000  0.04480000  0.92450000  1
  H  H10  1  0.06140000  0.97130000  0.40070000  1
  H  H11  1  0.06350000  0.01740000  0.07080000  1
  H  H12  1  0.06750000  0.70850000  0.46730000  1
  H  H13  1  0.06980000  0.54550000  0.59550000  1
  H  H14  1  0.07870000  0.59070000  0.01960000  1
  H  H15  1  0.07940000  0.46340000  0.01330000  1
  H  H16  1  0.08920000  0.03220000  0.15300000  1
  H  H17  1  0.09160000  0.11350000  0.88500000  1
  H  H18  1  0.09930000  0.88850000  0.01410000  1
  H  H19  1  0.10580000  0.10190000  0.60080000  1
  H  H20  1  0.11030000  0.58390000  0.66370000  1
  H  H21  1  0.11090000  0.08380000  0.36420000  1
  H  H22  1  0.11410000  0.84870000  0.61620000  1
  H  H23  1  0.11530000  0.86230000  0.35720000  1
  H  H24  1  0.13470000  0.63770000  0.85720000  1
  H  H25  1  0.13590000  0.65130000  0.11620000  1
  H  H26  1  0.13910000  0.41620000  0.86420000  1
  H  H27  1  0.13970000  0.91610000  0.16370000  1
  H  H28  1  0.14420000  0.39810000  0.10080000  1
  H  H29  1  0.15070000  0.61150000  0.51410000  1
  H  H30  1  0.15840000  0.38650000  0.38500000  1
  H  H31  1  0.16080000  0.46780000  0.65300000  1
  H  H32  1  0.17060000  0.03660000  0.51330000  1
  H  H33  1  0.17130000  0.90930000  0.51960000  1
  H  H34  1  0.18020000  0.95450000  0.09550000  1
  H  H35  1  0.18250000  0.79150000  0.96730000  1
  H  H36  1  0.18650000  0.48260000  0.57080000  1
  H  H37  1  0.18860000  0.52870000  0.90070000  1
  H  H38  1  0.19740000  0.45520000  0.42450000  1
  H  H39  1  0.20190000  0.35490000  0.50720000  1
  H  H40  1  0.21280000  0.38890000  0.21470000  1
  H  H41  1  0.21650000  0.09000000  0.28480000  1
  H  H42  1  0.22260000  0.67860000  0.63690000  1
  H  H43  1  0.24620000  0.30570000  0.44820000  1
  H  H44  1  0.25380000  0.55180000  0.69430000  1
  H  H45  1  0.27740000  0.36310000  0.32140000  1
  H  H46  1  0.28350000  0.71520000  0.91000000  1
  H  H47  1  0.28720000  0.78530000  0.61110000  1
  H  H48  1  0.29810000  0.49280000  0.64510000  1
  H  H49  1  0.30260000  0.57550000  0.54480000  1
  H  H50  1  0.31140000  0.09930000  0.47130000  1
  H  H51  1  0.31350000  0.42920000  0.51740000  1
  H  H52  1  0.31750000  0.03270000  0.20850000  1
  H  H53  1  0.31980000  0.90450000  0.04550000  1
  H  H54  1  0.32870000  0.48040000  0.09070000  1
  H  H55  1  0.32940000  0.48670000  0.96340000  1
  H  H56  1  0.33920000  0.34700000  0.53220000  1
  H  H57  1  0.34160000  0.61500000  0.61350000  1
  H  H58  1  0.34930000  0.48590000  0.38850000  1
  H  H59  1  0.35580000  0.89920000  0.60190000  1
  H  H60  1  0.36030000  0.83630000  0.08390000  1
  H  H61  1  0.36090000  0.13580000  0.58380000  1
  H  H62  1  0.36410000  0.88380000  0.34870000  1
  H  H63  1  0.36530000  0.14280000  0.36230000  1
  H  H64  1  0.38470000  0.64280000  0.13770000  1
  H  H65  1  0.38590000  0.38380000  0.15130000  1
  H  H66  1  0.38910000  0.63580000  0.91620000  1
  H  H67  1  0.38970000  0.33630000  0.41610000  1
  H  H68  1  0.39420000  0.39920000  0.89810000  1
  H  H69  1  0.40070000  0.98590000  0.11150000  1
  H  H70  1  0.40840000  0.11500000  0.88650000  1
  H  H71  1  0.41080000  0.84700000  0.96780000  1
  H  H72  1  0.42060000  0.98670000  0.53660000  1
  H  H73  1  0.42130000  0.98040000  0.40930000  1
  H  H74  1  0.43020000  0.40450000  0.45450000  1
  H  H75  1  0.43250000  0.53270000  0.29150000  1
  H  H76  1  0.43650000  0.92920000  0.98260000  1
  H  H77  1  0.43860000  0.59930000  0.02870000  1
  H  H78  1  0.44740000  0.07550000  0.95520000  1
  H  H79  1  0.45190000  0.99280000  0.85490000  1
  H  H80  1  0.46280000  0.28530000  0.88890000  1
  H  H81  1  0.46650000  0.21520000  0.59000000  1
  H  H82  1  0.47260000  0.86310000  0.17860000  1
  H  H83  1  0.49620000  0.05180000  0.80570000  1
  H  H84  1  0.50380000  0.80570000  0.05180000  1
  H  H85  1  0.52740000  0.17860000  0.86310000  1
  H  H86  1  0.53350000  0.59000000  0.21520000  1
  H  H87  1  0.53720000  0.88890000  0.28530000  1
  H  H88  1  0.54810000  0.85490000  0.99280000  1
  H  H89  1  0.55260000  0.95520000  0.07550000  1
  H  H90  1  0.56140000  0.02870000  0.59930000  1
  H  H91  1  0.56350000  0.98260000  0.92920000  1
  H  H92  1  0.56750000  0.29150000  0.53270000  1
  H  H93  1  0.56980000  0.45450000  0.40450000  1
  H  H94  1  0.57870000  0.40930000  0.98040000  1
  H  H95  1  0.57940000  0.53660000  0.98670000  1
  H  H96  1  0.58920000  0.96780000  0.84700000  1
  H  H97  1  0.59160000  0.88650000  0.11500000  1
  H  H98  1  0.59930000  0.11150000  0.98590000  1
  H  H99  1  0.60580000  0.89810000  0.39920000  1
  H  H100  1  0.61030000  0.41610000  0.33630000  1
  H  H101  1  0.61090000  0.91620000  0.63580000  1
  H  H102  1  0.61410000  0.15130000  0.38380000  1
  H  H103  1  0.61530000  0.13770000  0.64280000  1
  H  H104  1  0.63470000  0.36230000  0.14280000  1
  H  H105  1  0.63590000  0.34870000  0.88380000  1
  H  H106  1  0.63910000  0.58380000  0.13580000  1
  H  H107  1  0.63970000  0.08390000  0.83630000  1
  H  H108  1  0.64420000  0.60190000  0.89920000  1
  H  H109  1  0.65070000  0.38850000  0.48590000  1
  H  H110  1  0.65840000  0.61350000  0.61500000  1
  H  H111  1  0.66080000  0.53220000  0.34700000  1
  H  H112  1  0.67060000  0.96340000  0.48670000  1
  H  H113  1  0.67130000  0.09070000  0.48040000  1
  H  H114  1  0.68020000  0.04550000  0.90450000  1
  H  H115  1  0.68250000  0.20850000  0.03270000  1
  H  H116  1  0.68650000  0.51740000  0.42920000  1
  H  H117  1  0.68860000  0.47130000  0.09930000  1
  H  H118  1  0.69740000  0.54480000  0.57550000  1
  H  H119  1  0.70190000  0.64510000  0.49280000  1
  H  H120  1  0.71280000  0.61110000  0.78530000  1
  H  H121  1  0.71650000  0.91000000  0.71520000  1
  H  H122  1  0.72260000  0.32140000  0.36310000  1
  H  H123  1  0.74620000  0.69430000  0.55180000  1
  H  H124  1  0.75380000  0.44820000  0.30570000  1
  H  H125  1  0.77740000  0.63690000  0.67860000  1
  H  H126  1  0.78350000  0.28480000  0.09000000  1
  H  H127  1  0.78720000  0.21470000  0.38890000  1
  H  H128  1  0.79810000  0.50720000  0.35490000  1
  H  H129  1  0.80260000  0.42450000  0.45520000  1
  H  H130  1  0.81140000  0.90070000  0.52870000  1
  H  H131  1  0.81350000  0.57080000  0.48260000  1
  H  H132  1  0.81750000  0.96730000  0.79150000  1
  H  H133  1  0.81980000  0.09550000  0.95450000  1
  H  H134  1  0.82870000  0.51960000  0.90930000  1
  H  H135  1  0.82940000  0.51330000  0.03660000  1
  H  H136  1  0.83920000  0.65300000  0.46780000  1
  H  H137  1  0.84160000  0.38500000  0.38650000  1
  H  H138  1  0.84930000  0.51410000  0.61150000  1
  H  H139  1  0.85580000  0.10080000  0.39810000  1
  H  H140  1  0.86030000  0.16370000  0.91610000  1
  H  H141  1  0.86090000  0.86420000  0.41620000  1
  H  H142  1  0.86410000  0.11620000  0.65130000  1
  H  H143  1  0.86530000  0.85720000  0.63770000  1
  H  H144  1  0.88470000  0.35720000  0.86230000  1
  H  H145  1  0.88590000  0.61620000  0.84870000  1
  H  H146  1  0.88910000  0.36420000  0.08380000  1
  H  H147  1  0.88970000  0.66370000  0.58390000  1
  H  H148  1  0.89420000  0.60080000  0.10190000  1
  H  H149  1  0.90070000  0.01410000  0.88850000  1
  H  H150  1  0.90840000  0.88500000  0.11350000  1
  H  H151  1  0.91080000  0.15300000  0.03220000  1
  H  H152  1  0.92060000  0.01330000  0.46340000  1
  H  H153  1  0.92130000  0.01960000  0.59070000  1
  H  H154  1  0.93020000  0.59550000  0.54550000  1
  H  H155  1  0.93250000  0.46730000  0.70850000  1
  H  H156  1  0.93650000  0.07080000  0.01740000  1
  H  H157  1  0.93860000  0.40070000  0.97130000  1
  H  H158  1  0.94740000  0.92450000  0.04480000  1
  H  H159  1  0.95190000  0.00720000  0.14510000  1
  H  H160  1  0.96280000  0.71470000  0.11110000  1
  H  H161  1  0.96650000  0.78480000  0.41000000  1
  H  H162  1  0.97260000  0.13690000  0.82140000  1
  H  H163  1  0.99620000  0.94820000  0.19430000  1
  C  C164  1  0.00920000  0.14430000  0.96700000  1
  C  C165  1  0.01410000  0.52080000  0.77250000  1
  C  C166  1  0.02160000  0.84340000  0.08770000  1
  C  C167  1  0.03810000  0.06050000  0.72330000  1
  C  C168  1  0.04130000  0.09350000  0.90470000  1
  C  C169  1  0.04540000  0.59160000  0.79390000  1
  C  C170  1  0.04950000  0.72050000  0.51450000  1
  C  C171  1  0.05260000  0.45600000  0.79980000  1
  C  C172  1  0.06970000  0.99470000  0.11900000  1
  C  C173  1  0.07320000  0.93620000  0.67320000  1
  C  C174  1  0.07350000  0.01590000  0.66690000  1
  C  C175  1  0.10240000  0.87100000  0.06520000  1
  C  C176  1  0.10350000  0.56360000  0.05700000  1
  C  C177  1  0.10440000  0.48740000  0.05260000  1
  C  C178  1  0.10490000  0.97300000  0.36790000  1
  C  C179  1  0.10870000  0.05080000  0.60490000  1
  C  C180  1  0.11180000  0.90000000  0.61530000  1
  C  C181  1  0.11240000  0.59280000  0.84240000  1
  C  C182  1  0.11550000  0.45930000  0.84640000  1
  C  C183  1  0.12060000  0.56520000  0.61440000  1
  C  C184  1  0.12940000  0.93480000  0.11440000  1
  C  C185  1  0.13450000  0.04070000  0.34640000  1
  C  C186  1  0.13760000  0.90720000  0.34240000  1
  C  C187  1  0.13820000  0.60000000  0.11530000  1
  C  C188  1  0.14130000  0.44920000  0.10490000  1
  C  C189  1  0.14510000  0.52700000  0.86790000  1
  C  C190  1  0.14560000  0.01260000  0.55260000  1
  C  C191  1  0.14650000  0.93640000  0.55700000  1
  C  C192  1  0.14760000  0.62900000  0.56520000  1
  C  C193  1  0.17650000  0.48410000  0.16690000  1
  C  C194  1  0.17680000  0.56380000  0.17320000  1
  C  C195  1  0.18030000  0.50530000  0.61900000  1
  C  C196  1  0.19740000  0.04400000  0.29980000  1
  C  C197  1  0.20050000  0.77950000  0.01450000  1
  C  C198  1  0.20460000  0.90840000  0.29390000  1
  C  C199  1  0.20870000  0.40650000  0.40470000  1
  C  C200  1  0.21190000  0.43950000  0.22330000  1
  C  C201  1  0.22840000  0.65660000  0.58770000  1
  C  C202  1  0.23590000  0.97920000  0.27250000  1
  C  C203  1  0.24080000  0.35570000  0.46700000  1
  C  C204  1  0.25920000  0.53300000  0.64430000  1
  C  C205  1  0.26410000  0.72750000  0.02080000  1
  C  C206  1  0.27160000  0.41230000  0.34340000  1
  C  C207  1  0.28810000  0.77670000  0.56050000  1
  C  C208  1  0.29130000  0.59530000  0.59350000  1
  C  C209  1  0.29540000  0.70610000  0.09160000  1
  C  C210  1  0.29950000  0.98550000  0.22050000  1
  C  C211  1  0.30260000  0.70020000  0.95600000  1
  C  C212  1  0.31970000  0.38100000  0.49470000  1
  C  C213  1  0.32320000  0.82680000  0.43620000  1
  C  C214  1  0.32350000  0.83310000  0.51590000  1
  C  C215  1  0.35240000  0.43480000  0.37100000  1
  C  C216  1  0.35350000  0.44300000  0.06360000  1
  C  C217  1  0.35440000  0.44740000  0.98740000  1
  C  C218  1  0.35490000  0.13210000  0.47300000  1
  C  C219  1  0.35870000  0.89510000  0.55080000  1
  C  C220  1  0.36180000  0.88470000  0.40000000  1
  C  C221  1  0.36240000  0.65760000  0.09280000  1
  C  C222  1  0.36550000  0.65360000  0.95930000  1
  C  C223  1  0.37060000  0.88560000  0.06520000  1
  C  C224  1  0.37940000  0.38560000  0.43480000  1
  C  C225  1  0.38450000  0.15360000  0.54070000  1
  C  C226  1  0.38760000  0.15760000  0.40720000  1
  C  C227  1  0.38820000  0.38470000  0.10000000  1
  C  C228  1  0.39130000  0.39510000  0.94920000  1
  C  C229  1  0.39510000  0.63210000  0.02700000  1
  C  C230  1  0.39560000  0.94740000  0.51260000  1
  C  C231  1  0.39650000  0.94300000  0.43640000  1
  C  C232  1  0.39760000  0.93480000  0.12900000  1
  C  C233  1  0.42650000  0.33310000  0.98410000  1
  C  C234  1  0.42680000  0.32680000  0.06380000  1
  C  C235  1  0.43030000  0.88100000  0.00530000  1
  C  C236  1  0.44740000  0.20020000  0.54400000  1
  C  C237  1  0.45050000  0.48550000  0.27950000  1
  C  C238  1  0.45460000  0.20610000  0.40840000  1
  C  C239  1  0.45870000  0.09530000  0.90650000  1
  C  C240  1  0.46190000  0.27670000  0.93950000  1
  C  C241  1  0.47840000  0.91230000  0.15660000  1
  C  C242  1  0.48590000  0.22750000  0.47920000  1
  C  C243  1  0.49080000  0.03300000  0.85570000  1
  C  C244  1  0.50920000  0.85570000  0.03300000  1
  C  C245  1  0.51410000  0.47920000  0.22750000  1
  C  C246  1  0.52160000  0.15660000  0.91230000  1
  C  C247  1  0.53810000  0.93950000  0.27670000  1
  C  C248  1  0.54130000  0.90650000  0.09530000  1
  C  C249  1  0.54540000  0.40840000  0.20610000  1
  C  C250  1  0.54950000  0.27950000  0.48550000  1
  C  C251  1  0.55260000  0.54400000  0.20020000  1
  C  C252  1  0.56970000  0.00530000  0.88100000  1
  C  C253  1  0.57320000  0.06380000  0.32680000  1
  C  C254  1  0.57350000  0.98410000  0.33310000  1
  C  C255  1  0.60240000  0.12900000  0.93480000  1
  C  C256  1  0.60350000  0.43640000  0.94300000  1
  C  C257  1  0.60440000  0.51260000  0.94740000  1
  C  C258  1  0.60490000  0.02700000  0.63210000  1
  C  C259  1  0.60870000  0.94920000  0.39510000  1
  C  C260  1  0.61180000  0.10000000  0.38470000  1
  C  C261  1  0.61240000  0.40720000  0.15760000  1
  C  C262  1  0.61550000  0.54070000  0.15360000  1
  C  C263  1  0.62060000  0.43480000  0.38560000  1
  C  C264  1  0.62940000  0.06520000  0.88560000  1
  C  C265  1  0.63450000  0.95930000  0.65360000  1
  C  C266  1  0.63760000  0.09280000  0.65760000  1
  C  C267  1  0.63820000  0.40000000  0.88470000  1
  C  C268  1  0.64130000  0.55080000  0.89510000  1
  C  C269  1  0.64510000  0.47300000  0.13210000  1
  C  C270  1  0.64560000  0.98740000  0.44740000  1
  C  C271  1  0.64650000  0.06360000  0.44300000  1
  C  C272  1  0.64760000  0.37100000  0.43480000  1
  C  C273  1  0.67650000  0.51590000  0.83310000  1
  C  C274  1  0.67680000  0.43620000  0.82680000  1
  C  C275  1  0.68030000  0.49470000  0.38100000  1
  C  C276  1  0.69740000  0.95600000  0.70020000  1
  C  C277  1  0.70050000  0.22050000  0.98550000  1
  C  C278  1  0.70460000  0.09160000  0.70610000  1
  C  C279  1  0.70870000  0.59350000  0.59530000  1
  C  C280  1  0.71190000  0.56050000  0.77670000  1
  C  C281  1  0.72840000  0.34340000  0.41230000  1
  C  C282  1  0.73590000  0.02080000  0.72750000  1
  C  C283  1  0.74080000  0.64430000  0.53300000  1
  C  C284  1  0.75920000  0.46700000  0.35570000  1
  C  C285  1  0.76410000  0.27250000  0.97920000  1
  C  C286  1  0.77160000  0.58770000  0.65660000  1
  C  C287  1  0.78810000  0.22330000  0.43950000  1
  C  C288  1  0.79130000  0.40470000  0.40650000  1
  C  C289  1  0.79540000  0.29390000  0.90840000  1
  C  C290  1  0.79950000  0.01450000  0.77950000  1
  C  C291  1  0.80260000  0.29980000  0.04400000  1
  C  C292  1  0.81970000  0.61900000  0.50530000  1
  C  C293  1  0.82320000  0.17320000  0.56380000  1
  C  C294  1  0.82350000  0.16690000  0.48410000  1
  C  C295  1  0.85240000  0.56520000  0.62900000  1
  C  C296  1  0.85350000  0.55700000  0.93640000  1
  C  C297  1  0.85440000  0.55260000  0.01260000  1
  C  C298  1  0.85490000  0.86790000  0.52700000  1
  C  C299  1  0.85870000  0.10490000  0.44920000  1
  C  C300  1  0.86180000  0.11530000  0.60000000  1
  C  C301  1  0.86240000  0.34240000  0.90720000  1
  C  C302  1  0.86550000  0.34640000  0.04070000  1
  C  C303  1  0.87060000  0.11440000  0.93480000  1
  C  C304  1  0.87940000  0.61440000  0.56520000  1
  C  C305  1  0.88450000  0.84640000  0.45930000  1
  C  C306  1  0.88760000  0.84240000  0.59280000  1
  C  C307  1  0.88820000  0.61530000  0.90000000  1
  C  C308  1  0.89130000  0.60490000  0.05080000  1
  C  C309  1  0.89510000  0.36790000  0.97300000  1
  C  C310  1  0.89560000  0.05260000  0.48740000  1
  C  C311  1  0.89650000  0.05700000  0.56360000  1
  C  C312  1  0.89760000  0.06520000  0.87100000  1
  C  C313  1  0.92650000  0.66690000  0.01590000  1
  C  C314  1  0.92680000  0.67320000  0.93620000  1
  C  C315  1  0.93030000  0.11900000  0.99470000  1
  C  C316  1  0.94740000  0.79980000  0.45600000  1
  C  C317  1  0.95050000  0.51450000  0.72050000  1
  C  C318  1  0.95460000  0.79390000  0.59160000  1
  C  C319  1  0.95870000  0.90470000  0.09350000  1
  C  C320  1  0.96190000  0.72330000  0.06050000  1
  C  C321  1  0.97840000  0.08770000  0.84340000  1
  C  C322  1  0.98590000  0.77250000  0.52080000  1
  C  C323  1  0.99080000  0.96700000  0.14430000  1
  N  N324  1  0.00710000  0.03810000  0.78550000  1
  N  N325  1  0.06770000  0.73530000  0.27780000  1
  N  N326  1  0.08460000  0.68820000  0.57010000  1
  N  N327  1  0.16540000  0.81180000  0.07010000  1
  N  N328  1  0.18230000  0.76470000  0.77780000  1
  N  N329  1  0.24290000  0.46190000  0.28550000  1
  N  N330  1  0.25710000  0.71450000  0.53810000  1
  N  N331  1  0.31770000  0.22220000  0.23530000  1
  N  N332  1  0.33460000  0.92990000  0.18820000  1
  N  N333  1  0.41540000  0.42990000  0.31180000  1
  N  N334  1  0.43230000  0.72220000  0.26470000  1
  N  N335  1  0.49290000  0.21450000  0.96190000  1
  N  N336  1  0.50710000  0.96190000  0.21450000  1
  N  N337  1  0.56770000  0.26470000  0.72220000  1
  N  N338  1  0.58460000  0.31180000  0.42990000  1
  N  N339  1  0.66540000  0.18820000  0.92990000  1
  N  N340  1  0.68230000  0.23530000  0.22220000  1
  N  N341  1  0.74290000  0.53810000  0.71450000  1
  N  N342  1  0.75710000  0.28550000  0.46190000  1
  N  N343  1  0.81770000  0.77780000  0.76470000  1
  N  N344  1  0.83460000  0.07010000  0.81180000  1
  N  N345  1  0.91540000  0.57010000  0.68820000  1
  N  N346  1  0.93230000  0.27780000  0.73530000  1
  N  N347  1  0.99290000  0.78550000  0.03810000  1
  Cl  Cl348  1  0.00000000  0.89419000  0.89419000  1
  Cl  Cl349  1  0.25000000  0.60581000  0.39419000  1
  Cl  Cl350  1  0.50000000  0.10581000  0.10581000  1
  Cl  Cl351  1  0.75000000  0.39419000  0.60581000  1
  O  O352  1  0.00700000  0.27480000  0.76480000  1
  O  O353  1  0.01370000  0.65151000  0.76770000  1
  O  O354  1  0.04090000  0.90310000  0.72880000  1
  O  O355  1  0.10520000  0.72140000  0.33730000  1
  O  O356  1  0.10900000  0.74100000  0.22110000  1
  O  O357  1  0.14100000  0.75900000  0.72110000  1
  O  O358  1  0.14480000  0.77860000  0.83730000  1
  O  O359  1  0.20910000  0.59690000  0.22880000  1
  O  O360  1  0.23630000  0.84849000  0.26770000  1
  O  O361  1  0.24300000  0.22520000  0.26480000  1
  O  O362  1  0.25700000  0.73520000  0.77480000  1
  O  O363  1  0.26370000  0.73230000  0.15151000  1
  O  O364  1  0.29090000  0.77120000  0.40310000  1
  O  O365  1  0.35520000  0.16270000  0.22140000  1
  O  O366  1  0.35900000  0.27890000  0.24100000  1
  O  O367  1  0.39100000  0.77890000  0.25900000  1
  O  O368  1  0.39480000  0.66270000  0.27860000  1
  O  O369  1  0.45910000  0.27120000  0.09690000  1
  O  O370  1  0.48630000  0.23230000  0.34849000  1
  O  O371  1  0.49300000  0.23520000  0.72520000  1
  O  O372  1  0.50700000  0.72520000  0.23520000  1
  O  O373  1  0.51370000  0.34849000  0.23230000  1
  O  O374  1  0.54090000  0.09690000  0.27120000  1
  O  O375  1  0.60520000  0.27860000  0.66270000  1
  O  O376  1  0.60900000  0.25900000  0.77890000  1
  O  O377  1  0.64100000  0.24100000  0.27890000  1
  O  O378  1  0.64480000  0.22140000  0.16270000  1
  O  O379  1  0.70910000  0.40310000  0.77120000  1
  O  O380  1  0.73630000  0.15151000  0.73230000  1
  O  O381  1  0.74300000  0.77480000  0.73520000  1
  O  O382  1  0.75700000  0.26480000  0.22520000  1
  O  O383  1  0.76370000  0.26770000  0.84849000  1
  O  O384  1  0.79090000  0.22880000  0.59690000  1
  O  O385  1  0.85520000  0.83730000  0.77860000  1
  O  O386  1  0.85900000  0.72110000  0.75900000  1
  O  O387  1  0.89100000  0.22110000  0.74100000  1
  O  O388  1  0.89480000  0.33730000  0.72140000  1
  O  O389  1  0.95910000  0.72880000  0.90310000  1
  O  O390  1  0.98630000  0.76770000  0.65151000  1
  O  O391  1  0.99300000  0.76480000  0.27480000  1
