# generated using pymatgen
data_CuH8(C7O2)2
_symmetry_space_group_name_H-M   'P 1'
_cell_length_a   14.29700000
_cell_length_b   18.90170000
_cell_length_c   18.90182791
_cell_angle_alpha   113.86920149
_cell_angle_beta   104.60399231
_cell_angle_gamma   104.60300000
_symmetry_Int_Tables_number   1
_chemical_formula_structural   CuH8(C7O2)2
_chemical_formula_sum   'Cu6 H48 C84 O24'
_cell_volume   4142.42964224
_cell_formula_units_Z   6
loop_
 _symmetry_equiv_pos_site_id
 _symmetry_equiv_pos_as_xyz
  1  'x, y, z'
loop_
 _atom_site_type_symbol
 _atom_site_label
 _atom_site_symmetry_multiplicity
 _atom_site_fract_x
 _atom_site_fract_y
 _atom_site_fract_z
 _atom_site_occupancy
  Cu  Cu0  1  0.44809000  0.97501000  0.42003000  1
  Cu  Cu1  1  0.47308000  0.44502000  0.02499000  1
  Cu  Cu2  1  0.02806000  0.57997000  0.55498000  1
  Cu  Cu3  1  0.97194000  0.42003000  0.44502000  1
  Cu  Cu4  1  0.52692000  0.55498000  0.97501000  1
  Cu  Cu5  1  0.55191000  0.02499000  0.57997000  1
  H  H6  1  0.78130000  0.25170000  0.76800000  1
  H  H7  1  0.85360000  0.50680000  0.81860000  1
  H  H8  1  0.62000000  0.80720000  0.54560000  1
  H  H9  1  0.75440000  0.26360000  0.64780000  1
  H  H10  1  0.29300000  0.54770000  0.15780000  1
  H  H11  1  0.29190000  0.78820000  0.15130000  1
  H  H12  1  0.65320000  0.68820000  0.50680000  1
  H  H13  1  0.47790000  0.73650000  0.30310000  1
  H  H14  1  0.92560000  0.54560000  0.73840000  1
  H  H15  1  0.47040000  0.48370000  0.25170000  1
  H  H16  1  0.50920000  0.61580000  0.26360000  1
  H  H17  1  0.86480000  0.15780000  0.61010000  1
  H  H18  1  0.82520000  0.30310000  0.56660000  1
  H  H19  1  0.50370000  0.36310000  0.21180000  1
  H  H20  1  0.37090000  0.71200000  0.07870000  1
  H  H21  1  0.74530000  0.61010000  0.45230000  1
  H  H22  1  0.70780000  0.07870000  0.36670000  1
  H  H23  1  0.03500000  0.18140000  0.68820000  1
  H  H24  1  0.65890000  0.36670000  0.28800000  1
  H  H25  1  0.18720000  0.26160000  0.80720000  1
  H  H26  1  0.98670000  0.76800000  0.51630000  1
  H  H27  1  0.74140000  0.56660000  0.26350000  1
  H  H28  1  0.10660000  0.35220000  0.61580000  1
  H  H29  1  0.85940000  0.15130000  0.36310000  1
  H  H30  1  0.14060000  0.84870000  0.63690000  1
  H  H31  1  0.89340000  0.64780000  0.38420000  1
  H  H32  1  0.25860000  0.43340000  0.73650000  1
  H  H33  1  0.01330000  0.23200000  0.48370000  1
  H  H34  1  0.81280000  0.73840000  0.19280000  1
  H  H35  1  0.34110000  0.63330000  0.71200000  1
  H  H36  1  0.96500000  0.81860000  0.31180000  1
  H  H37  1  0.29220000  0.92130000  0.63330000  1
  H  H38  1  0.25470000  0.38990000  0.54770000  1
  H  H39  1  0.62910000  0.28800000  0.92130000  1
  H  H40  1  0.49630000  0.63690000  0.78820000  1
  H  H41  1  0.17480000  0.69690000  0.43340000  1
  H  H42  1  0.13520000  0.84220000  0.38990000  1
  H  H43  1  0.49080000  0.38420000  0.73640000  1
  H  H44  1  0.52960000  0.51630000  0.74830000  1
  H  H45  1  0.07440000  0.45440000  0.26160000  1
  H  H46  1  0.52210000  0.26350000  0.69690000  1
  H  H47  1  0.34680000  0.31180000  0.49320000  1
  H  H48  1  0.70810000  0.21180000  0.84870000  1
  H  H49  1  0.70700000  0.45230000  0.84220000  1
  H  H50  1  0.24560000  0.73640000  0.35220000  1
  H  H51  1  0.38000000  0.19280000  0.45440000  1
  H  H52  1  0.14640000  0.49320000  0.18140000  1
  H  H53  1  0.21870000  0.74830000  0.23200000  1
  C  C54  1  0.24770000  0.64466000  0.20382000  1
  C  C55  1  0.24854000  0.71587000  0.20131000  1
  C  C56  1  0.79728000  0.38088000  0.74349000  1
  C  C57  1  0.52518000  0.86405000  0.45335000  1
  C  C58  1  0.84828000  0.46505000  0.76792000  1
  C  C59  1  0.59763000  0.76869000  0.48853000  1
  C  C60  1  0.54516000  0.78470000  0.42791000  1
  C  C61  1  0.78894000  0.32051000  0.66655000  1
  C  C62  1  0.29397000  0.59714000  0.15768000  1
  C  C63  1  0.29359000  0.74034000  0.15353000  1
  C  C64  1  0.61677000  0.69713000  0.46505000  1
  C  C65  1  0.51296000  0.72662000  0.34439000  1
  C  C66  1  0.89090000  0.48853000  0.71984000  1
  C  C67  1  0.67078000  0.06880000  0.49390000  1
  C  C68  1  0.58360000  0.63739000  0.38088000  1
  C  C69  1  0.53157000  0.65396000  0.32051000  1
  C  C70  1  0.83143000  0.34439000  0.61777000  1
  C  C71  1  0.34097000  0.62304000  0.11219000  1
  C  C72  1  0.33999000  0.69488000  0.10995000  1
  C  C73  1  0.88275000  0.42791000  0.64321000  1
  C  C74  1  0.60304000  0.55916000  0.35534000  1
  C  C75  1  0.53267000  0.48544000  0.28413000  1
  C  C76  1  0.77122000  0.11219000  0.48915000  1
  C  C77  1  0.55325000  0.41319000  0.25966000  1
  C  C78  1  0.69683000  0.56054000  0.40286000  1
  C  C79  1  0.86371000  0.15768000  0.56054000  1
  C  C80  1  0.39802000  0.57490000  0.06880000  1
  C  C81  1  0.92817000  0.45335000  0.58930000  1
  C  C82  1  0.64511000  0.41507000  0.30512000  1
  C  C83  1  0.71793000  0.48915000  0.37696000  1
  C  C84  1  0.76996000  0.10995000  0.41507000  1
  C  C85  1  0.08036000  0.23208000  0.69713000  1
  C  C86  1  0.95612000  0.20382000  0.55916000  1
  C  C87  1  0.82312000  0.49390000  0.42510000  1
  C  C88  1  0.17106000  0.28016000  0.76869000  1
  C  C89  1  0.05379000  0.25651000  0.63739000  1
  C  C90  1  0.85994000  0.15353000  0.41319000  1
  C  C91  1  0.23954000  0.35679000  0.78470000  1
  C  C92  1  0.95277000  0.20131000  0.48544000  1
  C  C93  1  0.12239000  0.33345000  0.65396000  1
  C  C94  1  0.33887000  0.41070000  0.86405000  1
  C  C95  1  0.21366000  0.38223000  0.72662000  1
  C  C96  1  0.78634000  0.61777000  0.27338000  1
  C  C97  1  0.66113000  0.58930000  0.13595000  1
  C  C98  1  0.87761000  0.66655000  0.34604000  1
  C  C99  1  0.04723000  0.79869000  0.51456000  1
  C  C100  1  0.76046000  0.64321000  0.21530000  1
  C  C101  1  0.14006000  0.84647000  0.58681000  1
  C  C102  1  0.94621000  0.74349000  0.36261000  1
  C  C103  1  0.82894000  0.71984000  0.23131000  1
  C  C104  1  0.17688000  0.50610000  0.57490000  1
  C  C105  1  0.04388000  0.79618000  0.44084000  1
  C  C106  1  0.91964000  0.76792000  0.30287000  1
  C  C107  1  0.23004000  0.89005000  0.58493000  1
  C  C108  1  0.28207000  0.51085000  0.62304000  1
  C  C109  1  0.35489000  0.58493000  0.69488000  1
  C  C110  1  0.07183000  0.54665000  0.41070000  1
  C  C111  1  0.60198000  0.42510000  0.93120000  1
  C  C112  1  0.13629000  0.84232000  0.43946000  1
  C  C113  1  0.30317000  0.43946000  0.59714000  1
  C  C114  1  0.44675000  0.58681000  0.74034000  1
  C  C115  1  0.22878000  0.88781000  0.51085000  1
  C  C116  1  0.46733000  0.51456000  0.71587000  1
  C  C117  1  0.39696000  0.44084000  0.64466000  1
  C  C118  1  0.11725000  0.57209000  0.35679000  1
  C  C119  1  0.66001000  0.30512000  0.89005000  1
  C  C120  1  0.65903000  0.37696000  0.88781000  1
  C  C121  1  0.16857000  0.65561000  0.38223000  1
  C  C122  1  0.46843000  0.34604000  0.67949000  1
  C  C123  1  0.41640000  0.36261000  0.61912000  1
  C  C124  1  0.32922000  0.93120000  0.50610000  1
  C  C125  1  0.10910000  0.51147000  0.28016000  1
  C  C126  1  0.48704000  0.27338000  0.65561000  1
  C  C127  1  0.38323000  0.30287000  0.53495000  1
  C  C128  1  0.70641000  0.25966000  0.84647000  1
  C  C129  1  0.70603000  0.40286000  0.84232000  1
  C  C130  1  0.21106000  0.67949000  0.33345000  1
  C  C131  1  0.45484000  0.21530000  0.57209000  1
  C  C132  1  0.40237000  0.23131000  0.51147000  1
  C  C133  1  0.15172000  0.53495000  0.23208000  1
  C  C134  1  0.47482000  0.13595000  0.54665000  1
  C  C135  1  0.20272000  0.61912000  0.25651000  1
  C  C136  1  0.75146000  0.28413000  0.79869000  1
  C  C137  1  0.75230000  0.35534000  0.79618000  1
  O  O138  1  0.56237000  0.91507000  0.53076000  1
  O  O139  1  0.47530000  0.87343000  0.39555000  1
  O  O140  1  0.67610000  0.07473000  0.56285000  1
  O  O141  1  0.58851000  0.03097000  0.42661000  1
  O  O142  1  0.39863000  0.51188000  0.07473000  1
  O  O143  1  0.96839000  0.53076000  0.61569000  1
  O  O144  1  0.92025000  0.39555000  0.52212000  1
  O  O145  1  0.88675000  0.56285000  0.48812000  1
  O  O146  1  0.44246000  0.60436000  0.03097000  1
  O  O147  1  0.35270000  0.38431000  0.91507000  1
  O  O148  1  0.83810000  0.42661000  0.39564000  1
  O  O149  1  0.60187000  0.52212000  0.12657000  1
  O  O150  1  0.39813000  0.47788000  0.87343000  1
  O  O151  1  0.16190000  0.57339000  0.60436000  1
  O  O152  1  0.64730000  0.61569000  0.08493000  1
  O  O153  1  0.55754000  0.39564000  0.96903000  1
  O  O154  1  0.11325000  0.43715000  0.51188000  1
  O  O155  1  0.07975000  0.60445000  0.47788000  1
  O  O156  1  0.03161000  0.46924000  0.38431000  1
  O  O157  1  0.60137000  0.48812000  0.92527000  1
  O  O158  1  0.41149000  0.96903000  0.57339000  1
  O  O159  1  0.32390000  0.92527000  0.43715000  1
  O  O160  1  0.52470000  0.12657000  0.60445000  1
  O  O161  1  0.43763000  0.08493000  0.46924000  1
