# generated using pymatgen
data_Eu2MoH10C20(N3O)4
_symmetry_space_group_name_H-M   'P 1'
_cell_length_a   10.81370000
_cell_length_b   19.04000000
_cell_length_c   19.24600000
_cell_angle_alpha   90.00000000
_cell_angle_beta   98.33800000
_cell_angle_gamma   90.00000000
_symmetry_Int_Tables_number   1
_chemical_formula_structural   Eu2MoH10C20(N3O)4
_chemical_formula_sum   'Eu8 Mo4 H40 C80 N48 O16'
_cell_volume   3920.72825472
_cell_formula_units_Z   4
loop_
 _symmetry_equiv_pos_site_id
 _symmetry_equiv_pos_as_xyz
  1  'x, y, z'
loop_
 _atom_site_type_symbol
 _atom_site_label
 _atom_site_symmetry_multiplicity
 _atom_site_fract_x
 _atom_site_fract_y
 _atom_site_fract_z
 _atom_site_occupancy
  Eu  Eu0  1  0.04951000  0.12898000  0.20109000  1
  Eu  Eu1  1  0.04951000  0.37102000  0.70109000  1
  Eu  Eu2  1  0.41493000  0.62531000  0.14298000  1
  Eu  Eu3  1  0.41493000  0.87469000  0.64298000  1
  Eu  Eu4  1  0.58507000  0.12531000  0.35702000  1
  Eu  Eu5  1  0.58507000  0.37469000  0.85702000  1
  Eu  Eu6  1  0.95049000  0.62898000  0.29891000  1
  Eu  Eu7  1  0.95049000  0.87102000  0.79891000  1
  Mo  Mo8  1  0.46128000  0.66168000  0.85400000  1
  Mo  Mo9  1  0.46128000  0.83832000  0.35400000  1
  Mo  Mo10  1  0.53872000  0.16168000  0.64600000  1
  Mo  Mo11  1  0.53872000  0.33832000  0.14600000  1
  H  H12  1  0.01500000  0.52510000  0.88390000  1
  H  H13  1  0.01500000  0.97490000  0.38390000  1
  H  H14  1  0.11800000  0.11730000  0.42340000  1
  H  H15  1  0.11800000  0.38270000  0.92340000  1
  H  H16  1  0.20150000  0.18870000  0.84100000  1
  H  H17  1  0.20150000  0.31130000  0.34100000  1
  H  H18  1  0.21560000  0.15780000  0.47850000  1
  H  H19  1  0.21560000  0.34220000  0.97850000  1
  H  H20  1  0.26120000  0.09640000  0.43270000  1
  H  H21  1  0.26120000  0.40360000  0.93270000  1
  H  H22  1  0.32740000  0.00310000  0.50780000  1
  H  H23  1  0.32740000  0.49690000  0.00780000  1
  H  H24  1  0.40130000  0.71090000  0.54920000  1
  H  H25  1  0.40130000  0.78910000  0.04920000  1
  H  H26  1  0.42460000  0.60950000  0.48330000  1
  H  H27  1  0.42460000  0.89050000  0.98330000  1
  H  H28  1  0.44000000  0.07780000  0.01720000  1
  H  H29  1  0.44000000  0.42220000  0.51720000  1
  H  H30  1  0.47720000  0.55210000  0.53940000  1
  H  H31  1  0.47720000  0.94790000  0.03940000  1
  H  H32  1  0.52280000  0.05210000  0.96060000  1
  H  H33  1  0.52280000  0.44790000  0.46060000  1
  H  H34  1  0.56000000  0.57780000  0.48280000  1
  H  H35  1  0.56000000  0.92220000  0.98280000  1
  H  H36  1  0.57540000  0.10950000  0.01670000  1
  H  H37  1  0.57540000  0.39050000  0.51670000  1
  H  H38  1  0.59870000  0.21090000  0.95080000  1
  H  H39  1  0.59870000  0.28910000  0.45080000  1
  H  H40  1  0.67260000  0.50310000  0.99220000  1
  H  H41  1  0.67260000  0.99690000  0.49220000  1
  H  H42  1  0.73880000  0.59640000  0.06730000  1
  H  H43  1  0.73880000  0.90360000  0.56730000  1
  H  H44  1  0.78440000  0.65780000  0.02150000  1
  H  H45  1  0.78440000  0.84220000  0.52150000  1
  H  H46  1  0.79850000  0.68870000  0.65900000  1
  H  H47  1  0.79850000  0.81130000  0.15900000  1
  H  H48  1  0.88200000  0.61730000  0.07660000  1
  H  H49  1  0.88200000  0.88270000  0.57660000  1
  H  H50  1  0.98500000  0.02510000  0.61610000  1
  H  H51  1  0.98500000  0.47490000  0.11610000  1
  C  C52  1  0.05650000  0.02180000  0.59370000  1
  C  C53  1  0.05650000  0.47820000  0.09370000  1
  C  C54  1  0.12890000  0.58050000  0.17210000  1
  C  C55  1  0.12890000  0.91950000  0.67210000  1
  C  C56  1  0.14220000  0.53040000  0.11380000  1
  C  C57  1  0.14220000  0.96960000  0.61380000  1
  C  C58  1  0.17270000  0.06070000  0.51210000  1
  C  C59  1  0.17270000  0.43930000  0.01210000  1
  C  C60  1  0.19370000  0.11260000  0.45680000  1
  C  C61  1  0.19370000  0.38740000  0.95680000  1
  C  C62  1  0.25780000  0.00750000  0.53160000  1
  C  C63  1  0.25780000  0.49250000  0.03160000  1
  C  C64  1  0.27050000  0.62760000  0.83680000  1
  C  C65  1  0.27050000  0.87240000  0.33680000  1
  C  C66  1  0.28340000  0.19280000  0.86490000  1
  C  C67  1  0.28340000  0.30720000  0.36490000  1
  C  C68  1  0.29790000  0.18640000  0.31350000  1
  C  C69  1  0.29790000  0.31360000  0.81350000  1
  C  C70  1  0.35080000  0.24700000  0.35640000  1
  C  C71  1  0.35080000  0.25300000  0.85640000  1
  C  C72  1  0.35110000  0.74170000  0.89490000  1
  C  C73  1  0.35110000  0.75830000  0.39490000  1
  C  C74  1  0.35410000  0.14270000  0.67150000  1
  C  C75  1  0.35410000  0.35730000  0.17150000  1
  C  C76  1  0.40680000  0.23740000  0.59370000  1
  C  C77  1  0.40680000  0.26260000  0.09370000  1
  C  C78  1  0.43110000  0.61390000  0.75080000  1
  C  C79  1  0.43110000  0.88610000  0.25080000  1
  C  C80  1  0.44040000  0.74340000  0.77760000  1
  C  C81  1  0.44040000  0.75660000  0.27760000  1
  C  C82  1  0.44710000  0.14840000  0.93900000  1
  C  C83  1  0.44710000  0.35160000  0.43900000  1
  C  C84  1  0.46250000  0.63580000  0.96230000  1
  C  C85  1  0.46250000  0.86420000  0.46230000  1
  C  C86  1  0.48120000  0.55080000  0.86860000  1
  C  C87  1  0.48120000  0.94920000  0.36860000  1
  C  C88  1  0.48430000  0.70770000  0.57160000  1
  C  C89  1  0.48430000  0.79230000  0.07160000  1
  C  C90  1  0.49900000  0.59210000  0.51240000  1
  C  C91  1  0.49900000  0.90790000  0.01240000  1
  C  C92  1  0.50100000  0.09210000  0.98760000  1
  C  C93  1  0.50100000  0.40790000  0.48760000  1
  C  C94  1  0.51570000  0.20770000  0.92840000  1
  C  C95  1  0.51570000  0.29230000  0.42840000  1
  C  C96  1  0.51880000  0.05080000  0.63140000  1
  C  C97  1  0.51880000  0.44920000  0.13140000  1
  C  C98  1  0.53750000  0.13580000  0.53770000  1
  C  C99  1  0.53750000  0.36420000  0.03770000  1
  C  C100  1  0.55290000  0.64840000  0.56100000  1
  C  C101  1  0.55290000  0.85160000  0.06100000  1
  C  C102  1  0.55960000  0.24340000  0.72240000  1
  C  C103  1  0.55960000  0.25660000  0.22240000  1
  C  C104  1  0.56890000  0.11390000  0.74920000  1
  C  C105  1  0.56890000  0.38610000  0.24920000  1
  C  C106  1  0.59320000  0.73740000  0.90630000  1
  C  C107  1  0.59320000  0.76260000  0.40630000  1
  C  C108  1  0.64590000  0.64270000  0.82850000  1
  C  C109  1  0.64590000  0.85730000  0.32850000  1
  C  C110  1  0.64890000  0.24170000  0.60510000  1
  C  C111  1  0.64890000  0.25830000  0.10510000  1
  C  C112  1  0.64920000  0.74700000  0.14360000  1
  C  C113  1  0.64920000  0.75300000  0.64360000  1
  C  C114  1  0.70210000  0.68640000  0.18650000  1
  C  C115  1  0.70210000  0.81360000  0.68650000  1
  C  C116  1  0.71660000  0.69280000  0.63510000  1
  C  C117  1  0.71660000  0.80720000  0.13510000  1
  C  C118  1  0.72950000  0.12760000  0.66320000  1
  C  C119  1  0.72950000  0.37240000  0.16320000  1
  C  C120  1  0.74220000  0.50750000  0.96840000  1
  C  C121  1  0.74220000  0.99250000  0.46840000  1
  C  C122  1  0.80630000  0.61260000  0.04320000  1
  C  C123  1  0.80630000  0.88740000  0.54320000  1
  C  C124  1  0.82730000  0.56070000  0.98790000  1
  C  C125  1  0.82730000  0.93930000  0.48790000  1
  C  C126  1  0.85780000  0.03040000  0.38620000  1
  C  C127  1  0.85780000  0.46960000  0.88620000  1
  C  C128  1  0.87110000  0.08050000  0.32790000  1
  C  C129  1  0.87110000  0.41950000  0.82790000  1
  C  C130  1  0.94350000  0.52180000  0.90630000  1
  C  C131  1  0.94350000  0.97820000  0.40630000  1
  N  N132  1  0.07180000  0.06760000  0.54370000  1
  N  N133  1  0.07180000  0.43240000  0.04370000  1
  N  N134  1  0.16980000  0.60730000  0.82730000  1
  N  N135  1  0.16980000  0.89270000  0.32730000  1
  N  N136  1  0.24490000  0.53770000  0.08270000  1
  N  N137  1  0.24490000  0.96230000  0.58270000  1
  N  N138  1  0.25770000  0.13420000  0.68780000  1
  N  N139  1  0.25770000  0.36580000  0.18780000  1
  N  N140  1  0.28880000  0.71700000  0.41570000  1
  N  N141  1  0.28880000  0.78300000  0.91570000  1
  N  N142  1  0.33140000  0.14040000  0.90610000  1
  N  N143  1  0.33140000  0.35960000  0.40610000  1
  N  N144  1  0.33680000  0.22200000  0.06820000  1
  N  N145  1  0.33680000  0.27800000  0.56820000  1
  N  N146  1  0.41500000  0.58610000  0.69750000  1
  N  N147  1  0.41500000  0.91390000  0.19750000  1
  N  N148  1  0.42350000  0.71330000  0.23630000  1
  N  N149  1  0.42350000  0.78670000  0.73630000  1
  N  N150  1  0.45440000  0.62300000  0.01980000  1
  N  N151  1  0.45440000  0.87700000  0.51980000  1
  N  N152  1  0.46880000  0.23990000  0.38780000  1
  N  N153  1  0.46880000  0.26010000  0.88780000  1
  N  N154  1  0.49040000  0.00860000  0.37340000  1
  N  N155  1  0.49040000  0.49140000  0.87340000  1
  N  N156  1  0.50960000  0.50860000  0.12660000  1
  N  N157  1  0.50960000  0.99140000  0.62660000  1
  N  N158  1  0.53120000  0.73990000  0.11220000  1
  N  N159  1  0.53120000  0.76010000  0.61220000  1
  N  N160  1  0.54560000  0.12300000  0.48020000  1
  N  N161  1  0.54560000  0.37700000  0.98020000  1
  N  N162  1  0.57650000  0.21330000  0.26370000  1
  N  N163  1  0.57650000  0.28670000  0.76370000  1
  N  N164  1  0.58500000  0.08610000  0.80250000  1
  N  N165  1  0.58500000  0.41390000  0.30250000  1
  N  N166  1  0.66320000  0.72200000  0.43180000  1
  N  N167  1  0.66320000  0.77800000  0.93180000  1
  N  N168  1  0.66860000  0.64040000  0.59390000  1
  N  N169  1  0.66860000  0.85960000  0.09390000  1
  N  N170  1  0.71120000  0.21700000  0.08430000  1
  N  N171  1  0.71120000  0.28300000  0.58430000  1
  N  N172  1  0.74230000  0.63420000  0.81220000  1
  N  N173  1  0.74230000  0.86580000  0.31220000  1
  N  N174  1  0.75510000  0.03770000  0.41730000  1
  N  N175  1  0.75510000  0.46230000  0.91730000  1
  N  N176  1  0.83020000  0.10730000  0.67270000  1
  N  N177  1  0.83020000  0.39270000  0.17270000  1
  N  N178  1  0.92820000  0.56760000  0.95630000  1
  N  N179  1  0.92820000  0.93240000  0.45630000  1
  O  O180  1  0.02770000  0.58270000  0.19570000  1
  O  O181  1  0.02770000  0.91730000  0.69570000  1
  O  O182  1  0.18820000  0.19120000  0.28250000  1
  O  O183  1  0.18820000  0.30880000  0.78250000  1
  O  O184  1  0.22250000  0.61710000  0.19330000  1
  O  O185  1  0.22250000  0.88290000  0.69330000  1
  O  O186  1  0.36580000  0.13330000  0.31310000  1
  O  O187  1  0.36580000  0.36670000  0.81310000  1
  O  O188  1  0.63420000  0.63330000  0.18690000  1
  O  O189  1  0.63420000  0.86670000  0.68690000  1
  O  O190  1  0.77750000  0.11710000  0.30670000  1
  O  O191  1  0.77750000  0.38290000  0.80670000  1
  O  O192  1  0.81180000  0.69120000  0.21750000  1
  O  O193  1  0.81180000  0.80880000  0.71750000  1
  O  O194  1  0.97230000  0.08270000  0.30430000  1
  O  O195  1  0.97230000  0.41730000  0.80430000  1
