# generated using pymatgen
data_CoHC4N2O3
_symmetry_space_group_name_H-M   'P 1'
_cell_length_a   6.90100000
_cell_length_b   15.07791653
_cell_length_c   15.07791653
_cell_angle_alpha   117.71583725
_cell_angle_beta   98.77548993
_cell_angle_gamma   98.77548993
_symmetry_Int_Tables_number   1
_chemical_formula_structural   CoHC4N2O3
_chemical_formula_sum   'Co6 H6 C24 N12 O18'
_cell_volume   1327.08094532
_cell_formula_units_Z   6
loop_
 _symmetry_equiv_pos_site_id
 _symmetry_equiv_pos_as_xyz
  1  'x, y, z'
loop_
 _atom_site_type_symbol
 _atom_site_label
 _atom_site_symmetry_multiplicity
 _atom_site_fract_x
 _atom_site_fract_y
 _atom_site_fract_z
 _atom_site_occupancy
  C  C0  1  0.88480000  0.46350000  0.55090000  1
  C  C1  1  0.93320000  0.56660000  0.46580000  1
  C  C2  1  0.75790000  0.43380000  0.60880000  1
  C  C3  1  0.82320000  0.52810000  0.51630000  1
  C  C4  1  0.14910000  0.39120000  0.82500000  1
  C  C5  1  0.67590000  0.82500000  0.43380000  1
  C  C6  1  0.36660000  0.89920000  0.43340000  1
  C  C7  1  0.33390000  0.44910000  0.91260000  1
  C  C8  1  0.53260000  0.46580000  0.89920000  1
  C  C9  1  0.57870000  0.91260000  0.46350000  1
  C  C10  1  0.29510000  0.98820000  0.47190000  1
  C  C11  1  0.30690000  0.48370000  0.01180000  1
  C  C12  1  0.69310000  0.51630000  0.98820000  1
  C  C13  1  0.70490000  0.01180000  0.52810000  1
  C  C14  1  0.42130000  0.08740000  0.53650000  1
  C  C15  1  0.46740000  0.53420000  0.10080000  1
  C  C16  1  0.66610000  0.55090000  0.08740000  1
  C  C17  1  0.63340000  0.10080000  0.56660000  1
  C  C18  1  0.32410000  0.17500000  0.56620000  1
  C  C19  1  0.85090000  0.60880000  0.17500000  1
  C  C20  1  0.17680000  0.47190000  0.48370000  1
  C  C21  1  0.24210000  0.56620000  0.39120000  1
  C  C22  1  0.06680000  0.43340000  0.53420000  1
  C  C23  1  0.11520000  0.53650000  0.44910000  1
  Co  Co24  1  0.70733000  0.32133000  0.73646000  1
  Co  Co25  1  0.38600000  0.41513000  0.67867000  1
  Co  Co26  1  0.02913000  0.73646000  0.41513000  1
  Co  Co27  1  0.97087000  0.26354000  0.58487000  1
  Co  Co28  1  0.61400000  0.58487000  0.32133000  1
  Co  Co29  1  0.29267000  0.67867000  0.26354000  1
  H  H30  1  0.70020000  0.54690000  0.52750000  1
  H  H31  1  0.15330000  0.98060000  0.45310000  1
  H  H32  1  0.17270000  0.47250000  0.01940000  1
  H  H33  1  0.82730000  0.52750000  0.98060000  1
  H  H34  1  0.84670000  0.01940000  0.54690000  1
  H  H35  1  0.29980000  0.45310000  0.47250000  1
  N  N36  1  0.60470000  0.24390000  0.82280000  1
  N  N37  1  0.58150000  0.21230000  0.87240000  1
  N  N38  1  0.36080000  0.57890000  0.75610000  1
  N  N39  1  0.21810000  0.82280000  0.57890000  1
  N  N40  1  0.36920000  0.66010000  0.78770000  1
  N  N41  1  0.70910000  0.12760000  0.33990000  1
  N  N42  1  0.29090000  0.87240000  0.66010000  1
  N  N43  1  0.63080000  0.33990000  0.21230000  1
  N  N44  1  0.78190000  0.17720000  0.42110000  1
  N  N45  1  0.63920000  0.42110000  0.24390000  1
  N  N46  1  0.41850000  0.78770000  0.12760000  1
  N  N47  1  0.39530000  0.75610000  0.17720000  1
  O  O48  1  0.81552000  0.37807000  0.64479000  1
  O  O49  1  0.86015000  0.63067000  0.43788000  1
  O  O50  1  0.17073000  0.35521000  0.73328000  1
  O  O51  1  0.60113000  0.46617000  0.62302000  1
  O  O52  1  0.56255000  0.73328000  0.37807000  1
  O  O53  1  0.22948000  0.80721000  0.36933000  1
  O  O54  1  0.97811000  0.37698000  0.84315000  1
  O  O55  1  0.57773000  0.43788000  0.80721000  1
  O  O56  1  0.86504000  0.84315000  0.46617000  1
  O  O57  1  0.13496000  0.15685000  0.53383000  1
  O  O58  1  0.42227000  0.56212000  0.19279000  1
  O  O59  1  0.02189000  0.62302000  0.15685000  1
  O  O60  1  0.77052000  0.19279000  0.63067000  1
  O  O61  1  0.43745000  0.26672000  0.62193000  1
  O  O62  1  0.39887000  0.53383000  0.37698000  1
  O  O63  1  0.82927000  0.64479000  0.26672000  1
  O  O64  1  0.13985000  0.36933000  0.56212000  1
  O  O65  1  0.18448000  0.62193000  0.35521000  1
