# generated using pymatgen
data_Zn2H11C12N9O2
_symmetry_space_group_name_H-M   'P 1'
_cell_length_a   18.02080000
_cell_length_b   27.01110000
_cell_length_c   27.01110000
_cell_angle_alpha   120.00000000
_cell_angle_beta   90.00000000
_cell_angle_gamma   90.00000000
_symmetry_Int_Tables_number   1
_chemical_formula_structural   Zn2H11C12N9O2
_chemical_formula_sum   'Zn24 H132 C144 N108 O24'
_cell_volume   11386.47350621
_cell_formula_units_Z   12
loop_
 _symmetry_equiv_pos_site_id
 _symmetry_equiv_pos_as_xyz
  1  'x, y, z'
loop_
 _atom_site_type_symbol
 _atom_site_label
 _atom_site_symmetry_multiplicity
 _atom_site_fract_x
 _atom_site_fract_y
 _atom_site_fract_z
 _atom_site_occupancy
  Zn  Zn0  1  0.07967000  0.11074000  0.66721000  1
  Zn  Zn1  1  0.07967000  0.33279000  0.88926000  1
  Zn  Zn2  1  0.07967000  0.11074000  0.44353000  1
  Zn  Zn3  1  0.07967000  0.55647000  0.88926000  1
  Zn  Zn4  1  0.07967000  0.33279000  0.44353000  1
  Zn  Zn5  1  0.07967000  0.55647000  0.66721000  1
  Zn  Zn6  1  0.42033000  0.11074000  0.66721000  1
  Zn  Zn7  1  0.42033000  0.33279000  0.88926000  1
  Zn  Zn8  1  0.42033000  0.11074000  0.44353000  1
  Zn  Zn9  1  0.42033000  0.55647000  0.88926000  1
  Zn  Zn10  1  0.42033000  0.33279000  0.44353000  1
  Zn  Zn11  1  0.42033000  0.55647000  0.66721000  1
  Zn  Zn12  1  0.57967000  0.44353000  0.33279000  1
  Zn  Zn13  1  0.57967000  0.66721000  0.55647000  1
  Zn  Zn14  1  0.57967000  0.44353000  0.11074000  1
  Zn  Zn15  1  0.57967000  0.88926000  0.55647000  1
  Zn  Zn16  1  0.57967000  0.66721000  0.11074000  1
  Zn  Zn17  1  0.57967000  0.88926000  0.33279000  1
  Zn  Zn18  1  0.92033000  0.44353000  0.33279000  1
  Zn  Zn19  1  0.92033000  0.66721000  0.55647000  1
  Zn  Zn20  1  0.92033000  0.44353000  0.11074000  1
  Zn  Zn21  1  0.92033000  0.88926000  0.55647000  1
  Zn  Zn22  1  0.92033000  0.66721000  0.11074000  1
  Zn  Zn23  1  0.92033000  0.88926000  0.33279000  1
  H  H24  1  1.00000000  0.42200000  0.42200000  1
  H  H25  1  0.00000000  0.00000000  0.57800000  1
  H  H26  1  1.00000000  0.42200000  1.00000000  1
  H  H27  1  1.00000000  0.00000000  0.42200000  1
  H  H28  1  1.00000000  0.57800000  1.00000000  1
  H  H29  1  0.03230000  0.04560000  0.73750000  1
  H  H30  1  0.03230000  0.26250000  0.95440000  1
  H  H31  1  0.03230000  0.04560000  0.30810000  1
  H  H32  1  0.03230000  0.69190000  0.95440000  1
  H  H33  1  0.03230000  0.26250000  0.30810000  1
  H  H34  1  0.03230000  0.69190000  0.73750000  1
  H  H35  1  0.05460000  0.39930000  0.24430000  1
  H  H36  1  0.05460000  0.75570000  0.60070000  1
  H  H37  1  0.05460000  0.39930000  0.15500000  1
  H  H38  1  0.05460000  0.84500000  0.60070000  1
  H  H39  1  0.05460000  0.75570000  0.15500000  1
  H  H40  1  0.05460000  0.84500000  0.24430000  1
  H  H41  1  0.06830000  0.51110000  0.40120000  1
  H  H42  1  0.06830000  0.59880000  0.48890000  1
  H  H43  1  0.06830000  0.51110000  0.10990000  1
  H  H44  1  0.06830000  0.89010000  0.48890000  1
  H  H45  1  0.06830000  0.59880000  0.10990000  1
  H  H46  1  0.06830000  0.89010000  0.40120000  1
  H  H47  1  0.12700000  0.09280000  0.54640000  1
  H  H48  1  0.12700000  0.45360000  0.90720000  1
  H  H49  1  0.12700000  0.45360000  0.54640000  1
  H  H50  1  0.12880000  0.22230000  0.77770000  1
  H  H51  1  0.12880000  0.22230000  0.44460000  1
  H  H52  1  0.12880000  0.55540000  0.77770000  1
  H  H53  1  0.18280000  0.01630000  0.67060000  1
  H  H54  1  0.18280000  0.32940000  0.98370000  1
  H  H55  1  0.18280000  0.01630000  0.34570000  1
  H  H56  1  0.18280000  0.65430000  0.98370000  1
  H  H57  1  0.18280000  0.32940000  0.34570000  1
  H  H58  1  0.18280000  0.65430000  0.67060000  1
  H  H59  1  0.31720000  0.01630000  0.67060000  1
  H  H60  1  0.31720000  0.32940000  0.98370000  1
  H  H61  1  0.31720000  0.01630000  0.34570000  1
  H  H62  1  0.31720000  0.65430000  0.98370000  1
  H  H63  1  0.31720000  0.32940000  0.34570000  1
  H  H64  1  0.31720000  0.65430000  0.67060000  1
  H  H65  1  0.37120000  0.22230000  0.77770000  1
  H  H66  1  0.37120000  0.22230000  0.44460000  1
  H  H67  1  0.37120000  0.55540000  0.77770000  1
  H  H68  1  0.37300000  0.09280000  0.54640000  1
  H  H69  1  0.37300000  0.45360000  0.90720000  1
  H  H70  1  0.37300000  0.45360000  0.54640000  1
  H  H71  1  0.43170000  0.51110000  0.40120000  1
  H  H72  1  0.43170000  0.59880000  0.48890000  1
  H  H73  1  0.43170000  0.51110000  0.10990000  1
  H  H74  1  0.43170000  0.89010000  0.48890000  1
  H  H75  1  0.43170000  0.59880000  0.10990000  1
  H  H76  1  0.43170000  0.89010000  0.40120000  1
  H  H77  1  0.44540000  0.39930000  0.24430000  1
  H  H78  1  0.44540000  0.75570000  0.60070000  1
  H  H79  1  0.44540000  0.39930000  0.15500000  1
  H  H80  1  0.44540000  0.84500000  0.60070000  1
  H  H81  1  0.44540000  0.75570000  0.15500000  1
  H  H82  1  0.44540000  0.84500000  0.24430000  1
  H  H83  1  0.46770000  0.04560000  0.73750000  1
  H  H84  1  0.46770000  0.26250000  0.95440000  1
  H  H85  1  0.46770000  0.04560000  0.30810000  1
  H  H86  1  0.46770000  0.69190000  0.95440000  1
  H  H87  1  0.46770000  0.26250000  0.30810000  1
  H  H88  1  0.46770000  0.69190000  0.73750000  1
  H  H89  1  0.50000000  0.42200000  0.42200000  1
  H  H90  1  0.50000000  0.57800000  0.57800000  1
  H  H91  1  0.50000000  0.00000000  0.57800000  1
  H  H92  1  0.50000000  0.42200000  1.00000000  1
  H  H93  1  0.50000000  0.00000000  0.42200000  1
  H  H94  1  0.50000000  0.57800000  0.00000000  1
  H  H95  1  0.53230000  0.30810000  0.26250000  1
  H  H96  1  0.53230000  0.73750000  0.69190000  1
  H  H97  1  0.53230000  0.30810000  0.04560000  1
  H  H98  1  0.53230000  0.95440000  0.69190000  1
  H  H99  1  0.53230000  0.73750000  0.04560000  1
  H  H100  1  0.53230000  0.95440000  0.26250000  1
  H  H101  1  0.55460000  0.15500000  0.75570000  1
  H  H102  1  0.55460000  0.24430000  0.84500000  1
  H  H103  1  0.55460000  0.15500000  0.39930000  1
  H  H104  1  0.55460000  0.60070000  0.84500000  1
  H  H105  1  0.55460000  0.24430000  0.39930000  1
  H  H106  1  0.55460000  0.60070000  0.75570000  1
  H  H107  1  0.56830000  0.10990000  0.59880000  1
  H  H108  1  0.56830000  0.40120000  0.89010000  1
  H  H109  1  0.56830000  0.10990000  0.51110000  1
  H  H110  1  0.56830000  0.48890000  0.89010000  1
  H  H111  1  0.56830000  0.40120000  0.51110000  1
  H  H112  1  0.56830000  0.48890000  0.59880000  1
  H  H113  1  0.62700000  0.54640000  0.45360000  1
  H  H114  1  0.62700000  0.54640000  0.09280000  1
  H  H115  1  0.62700000  0.90720000  0.45360000  1
  H  H116  1  0.62880000  0.44460000  0.22230000  1
  H  H117  1  0.62880000  0.77770000  0.55540000  1
  H  H118  1  0.62880000  0.77770000  0.22230000  1
  H  H119  1  0.68280000  0.34570000  0.32940000  1
  H  H120  1  0.68280000  0.67060000  0.65430000  1
  H  H121  1  0.68280000  0.34570000  0.01630000  1
  H  H122  1  0.68280000  0.98370000  0.65430000  1
  H  H123  1  0.68280000  0.67060000  0.01630000  1
  H  H124  1  0.68280000  0.98370000  0.32940000  1
  H  H125  1  0.81720000  0.34570000  0.32940000  1
  H  H126  1  0.81720000  0.67060000  0.65430000  1
  H  H127  1  0.81720000  0.34570000  0.01630000  1
  H  H128  1  0.81720000  0.98370000  0.65430000  1
  H  H129  1  0.81720000  0.67060000  0.01630000  1
  H  H130  1  0.81720000  0.98370000  0.32940000  1
  H  H131  1  0.87120000  0.44460000  0.22230000  1
  H  H132  1  0.87120000  0.77770000  0.55540000  1
  H  H133  1  0.87120000  0.77770000  0.22230000  1
  H  H134  1  0.87300000  0.54640000  0.45360000  1
  H  H135  1  0.87300000  0.54640000  0.09280000  1
  H  H136  1  0.87300000  0.90720000  0.45360000  1
  H  H137  1  0.93170000  0.10990000  0.59880000  1
  H  H138  1  0.93170000  0.40120000  0.89010000  1
  H  H139  1  0.93170000  0.10990000  0.51110000  1
  H  H140  1  0.93170000  0.48890000  0.89010000  1
  H  H141  1  0.93170000  0.40120000  0.51110000  1
  H  H142  1  0.93170000  0.48890000  0.59880000  1
  H  H143  1  0.94540000  0.15500000  0.75570000  1
  H  H144  1  0.94540000  0.24430000  0.84500000  1
  H  H145  1  0.94540000  0.15500000  0.39930000  1
  H  H146  1  0.94540000  0.60070000  0.84500000  1
  H  H147  1  0.94540000  0.24430000  0.39930000  1
  H  H148  1  0.94540000  0.60070000  0.75570000  1
  H  H149  1  0.96770000  0.30810000  0.26250000  1
  H  H150  1  0.96770000  0.73750000  0.69190000  1
  H  H151  1  0.96770000  0.30810000  0.04560000  1
  H  H152  1  0.96770000  0.95440000  0.69190000  1
  H  H153  1  0.96770000  0.73750000  0.04560000  1
  H  H154  1  0.96770000  0.95440000  0.26250000  1
  H  H155  1  1.00000000  0.57800000  0.57800000  1
  C  C156  1  0.00000000  0.00000000  0.61240000  1
  C  C157  1  0.00000000  0.38760000  1.00000000  1
  C  C158  1  1.00000000  0.61240000  1.00000000  1
  C  C159  1  0.01760000  0.02540000  0.69940000  1
  C  C160  1  0.01760000  0.30060000  0.97460000  1
  C  C161  1  0.01760000  0.02540000  0.32600000  1
  C  C162  1  0.01760000  0.67400000  0.97460000  1
  C  C163  1  0.01760000  0.30060000  0.32600000  1
  C  C164  1  0.01760000  0.67400000  0.69940000  1
  C  C165  1  0.01770000  0.41500000  0.23220000  1
  C  C166  1  0.01770000  0.76780000  0.58500000  1
  C  C167  1  0.01770000  0.41500000  0.18280000  1
  C  C168  1  0.01770000  0.81720000  0.58500000  1
  C  C169  1  0.01770000  0.76780000  0.18280000  1
  C  C170  1  0.01770000  0.81720000  0.23220000  1
  C  C171  1  0.02620000  0.53230000  0.41960000  1
  C  C172  1  0.02620000  0.58040000  0.46770000  1
  C  C173  1  0.02620000  0.53230000  0.11270000  1
  C  C174  1  0.02620000  0.88730000  0.46770000  1
  C  C175  1  0.02620000  0.58040000  0.11270000  1
  C  C176  1  0.02620000  0.88730000  0.41960000  1
  C  C177  1  0.07730000  0.22150000  0.77850000  1
  C  C178  1  0.07730000  0.22150000  0.44300000  1
  C  C179  1  0.07730000  0.55700000  0.77850000  1
  C  C180  1  0.07910000  0.10750000  0.55375000  1
  C  C181  1  0.07910000  0.44625000  0.89250000  1
  C  C182  1  0.07910000  0.44625000  0.55375000  1
  C  C183  1  0.21270000  0.04400000  0.66990000  1
  C  C184  1  0.21270000  0.33010000  0.95600000  1
  C  C185  1  0.21270000  0.04400000  0.37410000  1
  C  C186  1  0.21270000  0.62590000  0.95600000  1
  C  C187  1  0.21270000  0.33010000  0.37410000  1
  C  C188  1  0.21270000  0.62590000  0.66990000  1
  C  C189  1  0.25000000  0.11580000  0.66860000  1
  C  C190  1  0.25000000  0.33140000  0.88420000  1
  C  C191  1  0.25000000  0.11580000  0.44720000  1
  C  C192  1  0.25000000  0.55280000  0.88420000  1
  C  C193  1  0.25000000  0.33140000  0.44720000  1
  C  C194  1  0.25000000  0.55280000  0.66860000  1
  C  C195  1  0.28730000  0.04400000  0.66990000  1
  C  C196  1  0.28730000  0.33010000  0.95600000  1
  C  C197  1  0.28730000  0.04400000  0.37410000  1
  C  C198  1  0.28730000  0.62590000  0.95600000  1
  C  C199  1  0.28730000  0.33010000  0.37410000  1
  C  C200  1  0.28730000  0.62590000  0.66990000  1
  C  C201  1  0.42090000  0.10750000  0.55375000  1
  C  C202  1  0.42090000  0.44625000  0.89250000  1
  C  C203  1  0.42090000  0.44625000  0.55375000  1
  C  C204  1  0.42270000  0.22150000  0.77850000  1
  C  C205  1  0.42270000  0.22150000  0.44300000  1
  C  C206  1  0.42270000  0.55700000  0.77850000  1
  C  C207  1  0.47380000  0.53230000  0.41960000  1
  C  C208  1  0.47380000  0.58040000  0.46770000  1
  C  C209  1  0.47380000  0.53230000  0.11270000  1
  C  C210  1  0.47380000  0.88730000  0.46770000  1
  C  C211  1  0.47380000  0.58040000  0.11270000  1
  C  C212  1  0.47380000  0.88730000  0.41960000  1
  C  C213  1  0.48230000  0.41500000  0.23220000  1
  C  C214  1  0.48230000  0.76780000  0.58500000  1
  C  C215  1  0.48230000  0.41500000  0.18280000  1
  C  C216  1  0.48230000  0.81720000  0.58500000  1
  C  C217  1  0.48230000  0.76780000  0.18280000  1
  C  C218  1  0.48230000  0.81720000  0.23220000  1
  C  C219  1  0.48240000  0.02540000  0.69940000  1
  C  C220  1  0.48240000  0.30060000  0.97460000  1
  C  C221  1  0.48240000  0.02540000  0.32600000  1
  C  C222  1  0.48240000  0.67400000  0.97460000  1
  C  C223  1  0.48240000  0.30060000  0.32600000  1
  C  C224  1  0.48240000  0.67400000  0.69940000  1
  C  C225  1  0.50000000  0.38760000  0.38760000  1
  C  C226  1  0.50000000  0.61240000  0.61240000  1
  C  C227  1  0.50000000  0.00000000  0.61240000  1
  C  C228  1  0.50000000  0.38760000  1.00000000  1
  C  C229  1  0.50000000  0.00000000  0.38760000  1
  C  C230  1  0.50000000  0.61240000  1.00000000  1
  C  C231  1  0.51760000  0.32600000  0.30060000  1
  C  C232  1  0.51760000  0.69940000  0.67400000  1
  C  C233  1  0.51760000  0.32600000  0.02540000  1
  C  C234  1  0.51760000  0.97460000  0.67400000  1
  C  C235  1  0.51760000  0.69940000  0.02540000  1
  C  C236  1  0.51760000  0.97460000  0.30060000  1
  C  C237  1  0.51770000  0.18280000  0.76780000  1
  C  C238  1  0.51770000  0.23220000  0.81720000  1
  C  C239  1  0.51770000  0.18280000  0.41500000  1
  C  C240  1  0.51770000  0.58500000  0.81720000  1
  C  C241  1  0.51770000  0.23220000  0.41500000  1
  C  C242  1  0.51770000  0.58500000  0.76780000  1
  C  C243  1  0.52620000  0.11270000  0.58040000  1
  C  C244  1  0.52620000  0.41960000  0.88730000  1
  C  C245  1  0.52620000  0.11270000  0.53230000  1
  C  C246  1  0.52620000  0.46770000  0.88730000  1
  C  C247  1  0.52620000  0.41960000  0.53230000  1
  C  C248  1  0.52620000  0.46770000  0.58040000  1
  C  C249  1  0.57730000  0.44300000  0.22150000  1
  C  C250  1  0.57730000  0.77850000  0.55700000  1
  C  C251  1  0.57730000  0.77850000  0.22150000  1
  C  C252  1  0.57910000  0.55375000  0.44625000  1
  C  C253  1  0.57910000  0.55375000  0.10750000  1
  C  C254  1  0.57910000  0.89250000  0.44625000  1
  C  C255  1  0.71270000  0.37410000  0.33010000  1
  C  C256  1  0.71270000  0.66990000  0.62590000  1
  C  C257  1  0.71270000  0.37410000  0.04400000  1
  C  C258  1  0.71270000  0.95600000  0.62590000  1
  C  C259  1  0.71270000  0.66990000  0.04400000  1
  C  C260  1  0.71270000  0.95600000  0.33010000  1
  C  C261  1  0.75000000  0.44720000  0.33140000  1
  C  C262  1  0.75000000  0.66860000  0.55280000  1
  C  C263  1  0.75000000  0.44720000  0.11580000  1
  C  C264  1  0.75000000  0.88420000  0.55280000  1
  C  C265  1  0.75000000  0.66860000  0.11580000  1
  C  C266  1  0.75000000  0.88420000  0.33140000  1
  C  C267  1  0.78730000  0.37410000  0.33010000  1
  C  C268  1  0.78730000  0.66990000  0.62590000  1
  C  C269  1  0.78730000  0.37410000  0.04400000  1
  C  C270  1  0.78730000  0.95600000  0.62590000  1
  C  C271  1  0.78730000  0.66990000  0.04400000  1
  C  C272  1  0.78730000  0.95600000  0.33010000  1
  C  C273  1  0.92090000  0.55375000  0.44625000  1
  C  C274  1  0.92090000  0.55375000  0.10750000  1
  C  C275  1  0.92090000  0.89250000  0.44625000  1
  C  C276  1  0.92270000  0.44300000  0.22150000  1
  C  C277  1  0.92270000  0.77850000  0.55700000  1
  C  C278  1  0.92270000  0.77850000  0.22150000  1
  C  C279  1  0.97380000  0.11270000  0.58040000  1
  C  C280  1  0.97380000  0.41960000  0.88730000  1
  C  C281  1  0.97380000  0.11270000  0.53230000  1
  C  C282  1  0.97380000  0.46770000  0.88730000  1
  C  C283  1  0.97380000  0.41960000  0.53230000  1
  C  C284  1  0.97380000  0.46770000  0.58040000  1
  C  C285  1  0.98230000  0.18280000  0.76780000  1
  C  C286  1  0.98230000  0.23220000  0.81720000  1
  C  C287  1  0.98230000  0.18280000  0.41500000  1
  C  C288  1  0.98230000  0.58500000  0.81720000  1
  C  C289  1  0.98230000  0.23220000  0.41500000  1
  C  C290  1  0.98230000  0.58500000  0.76780000  1
  C  C291  1  0.98240000  0.32600000  0.30060000  1
  C  C292  1  0.98240000  0.69940000  0.67400000  1
  C  C293  1  0.98240000  0.32600000  0.02540000  1
  C  C294  1  0.98240000  0.97460000  0.67400000  1
  C  C295  1  0.98240000  0.69940000  0.02540000  1
  C  C296  1  0.98240000  0.97460000  0.30060000  1
  C  C297  1  1.00000000  0.38760000  0.38760000  1
  C  C298  1  1.00000000  0.61240000  0.61240000  1
  C  C299  1  0.00000000  0.00000000  0.38760000  1
  N  N300  1  0.02790000  0.04234000  0.66047000  1
  N  N301  1  0.02790000  0.33953000  0.95766000  1
  N  N302  1  0.02790000  0.04234000  0.38187000  1
  N  N303  1  0.02790000  0.61813000  0.95766000  1
  N  N304  1  0.02790000  0.33953000  0.38187000  1
  N  N305  1  0.02790000  0.61813000  0.66047000  1
  N  N306  1  0.04560000  0.17962000  0.73768000  1
  N  N307  1  0.04560000  0.26232000  0.82038000  1
  N  N308  1  0.04560000  0.17962000  0.44194000  1
  N  N309  1  0.04560000  0.55806000  0.82038000  1
  N  N310  1  0.04560000  0.26232000  0.44194000  1
  N  N311  1  0.04560000  0.55806000  0.73768000  1
  N  N312  1  0.04630000  0.11764000  0.60027000  1
  N  N313  1  0.04630000  0.39973000  0.88236000  1
  N  N314  1  0.04630000  0.11764000  0.51737000  1
  N  N315  1  0.04630000  0.48263000  0.88236000  1
  N  N316  1  0.04630000  0.39973000  0.51737000  1
  N  N317  1  0.04630000  0.48263000  0.60027000  1
  N  N318  1  0.18790000  0.09100000  0.66870000  1
  N  N319  1  0.18790000  0.33130000  0.90900000  1
  N  N320  1  0.18790000  0.09100000  0.42230000  1
  N  N321  1  0.18790000  0.57770000  0.90900000  1
  N  N322  1  0.18790000  0.33130000  0.42230000  1
  N  N323  1  0.18790000  0.57770000  0.66870000  1
  N  N324  1  0.25000000  0.16940000  0.66820000  1
  N  N325  1  0.25000000  0.33180000  0.83060000  1
  N  N326  1  0.25000000  0.16940000  0.50120000  1
  N  N327  1  0.25000000  0.49880000  0.83060000  1
  N  N328  1  0.25000000  0.33180000  0.50120000  1
  N  N329  1  0.25000000  0.49880000  0.66820000  1
  N  N330  1  0.31210000  0.09100000  0.66870000  1
  N  N331  1  0.31210000  0.33130000  0.90900000  1
  N  N332  1  0.31210000  0.09100000  0.42230000  1
  N  N333  1  0.31210000  0.57770000  0.90900000  1
  N  N334  1  0.31210000  0.33130000  0.42230000  1
  N  N335  1  0.31210000  0.57770000  0.66870000  1
  N  N336  1  0.45370000  0.11764000  0.60027000  1
  N  N337  1  0.45370000  0.39973000  0.88236000  1
  N  N338  1  0.45370000  0.11764000  0.51737000  1
  N  N339  1  0.45370000  0.48263000  0.88236000  1
  N  N340  1  0.45370000  0.39973000  0.51737000  1
  N  N341  1  0.45370000  0.48263000  0.60027000  1
  N  N342  1  0.45440000  0.17962000  0.73768000  1
  N  N343  1  0.45440000  0.26232000  0.82038000  1
  N  N344  1  0.45440000  0.17962000  0.44194000  1
  N  N345  1  0.45440000  0.55806000  0.82038000  1
  N  N346  1  0.45440000  0.26232000  0.44194000  1
  N  N347  1  0.45440000  0.55806000  0.73768000  1
  N  N348  1  0.47210000  0.04234000  0.66047000  1
  N  N349  1  0.47210000  0.33953000  0.95766000  1
  N  N350  1  0.47210000  0.04234000  0.38187000  1
  N  N351  1  0.47210000  0.61813000  0.95766000  1
  N  N352  1  0.47210000  0.33953000  0.38187000  1
  N  N353  1  0.47210000  0.61813000  0.66047000  1
  N  N354  1  0.52790000  0.38187000  0.33953000  1
  N  N355  1  0.52790000  0.66047000  0.61813000  1
  N  N356  1  0.52790000  0.38187000  0.04234000  1
  N  N357  1  0.52790000  0.95766000  0.61813000  1
  N  N358  1  0.52790000  0.66047000  0.04234000  1
  N  N359  1  0.52790000  0.95766000  0.33953000  1
  N  N360  1  0.54560000  0.44194000  0.26232000  1
  N  N361  1  0.54560000  0.73768000  0.55806000  1
  N  N362  1  0.54560000  0.44194000  0.17962000  1
  N  N363  1  0.54560000  0.82038000  0.55806000  1
  N  N364  1  0.54560000  0.73768000  0.17962000  1
  N  N365  1  0.54560000  0.82038000  0.26232000  1
  N  N366  1  0.54630000  0.51737000  0.39973000  1
  N  N367  1  0.54630000  0.60027000  0.48263000  1
  N  N368  1  0.54630000  0.51737000  0.11764000  1
  N  N369  1  0.54630000  0.88236000  0.48263000  1
  N  N370  1  0.54630000  0.60027000  0.11764000  1
  N  N371  1  0.54630000  0.88236000  0.39973000  1
  N  N372  1  0.68790000  0.42230000  0.33130000  1
  N  N373  1  0.68790000  0.66870000  0.57770000  1
  N  N374  1  0.68790000  0.42230000  0.09100000  1
  N  N375  1  0.68790000  0.90900000  0.57770000  1
  N  N376  1  0.68790000  0.66870000  0.09100000  1
  N  N377  1  0.68790000  0.90900000  0.33130000  1
  N  N378  1  0.75000000  0.50120000  0.33180000  1
  N  N379  1  0.75000000  0.66820000  0.49880000  1
  N  N380  1  0.75000000  0.50120000  0.16940000  1
  N  N381  1  0.75000000  0.83060000  0.49880000  1
  N  N382  1  0.75000000  0.66820000  0.16940000  1
  N  N383  1  0.75000000  0.83060000  0.33180000  1
  N  N384  1  0.81210000  0.42230000  0.33130000  1
  N  N385  1  0.81210000  0.66870000  0.57770000  1
  N  N386  1  0.81210000  0.42230000  0.09100000  1
  N  N387  1  0.81210000  0.90900000  0.57770000  1
  N  N388  1  0.81210000  0.66870000  0.09100000  1
  N  N389  1  0.81210000  0.90900000  0.33130000  1
  N  N390  1  0.95370000  0.51737000  0.39973000  1
  N  N391  1  0.95370000  0.60027000  0.48263000  1
  N  N392  1  0.95370000  0.51737000  0.11764000  1
  N  N393  1  0.95370000  0.88236000  0.48263000  1
  N  N394  1  0.95370000  0.60027000  0.11764000  1
  N  N395  1  0.95370000  0.88236000  0.39973000  1
  N  N396  1  0.95440000  0.44194000  0.26232000  1
  N  N397  1  0.95440000  0.73768000  0.55806000  1
  N  N398  1  0.95440000  0.44194000  0.17962000  1
  N  N399  1  0.95440000  0.82038000  0.55806000  1
  N  N400  1  0.95440000  0.73768000  0.17962000  1
  N  N401  1  0.95440000  0.82038000  0.26232000  1
  N  N402  1  0.97210000  0.38187000  0.33953000  1
  N  N403  1  0.97210000  0.66047000  0.61813000  1
  N  N404  1  0.97210000  0.38187000  0.04234000  1
  N  N405  1  0.97210000  0.95766000  0.61813000  1
  N  N406  1  0.97210000  0.66047000  0.04234000  1
  N  N407  1  0.97210000  0.95766000  0.33953000  1
  O  O408  1  0.19030000  0.19040000  0.66790000  1
  O  O409  1  0.19030000  0.33210000  0.80960000  1
  O  O410  1  0.19030000  0.19040000  0.52250000  1
  O  O411  1  0.19030000  0.47750000  0.80960000  1
  O  O412  1  0.19030000  0.33210000  0.52250000  1
  O  O413  1  0.19030000  0.47750000  0.66790000  1
  O  O414  1  0.30970000  0.19040000  0.66790000  1
  O  O415  1  0.30970000  0.33210000  0.80960000  1
  O  O416  1  0.30970000  0.19040000  0.52250000  1
  O  O417  1  0.30970000  0.47750000  0.80960000  1
  O  O418  1  0.30970000  0.33210000  0.52250000  1
  O  O419  1  0.30970000  0.47750000  0.66790000  1
  O  O420  1  0.69030000  0.52250000  0.33210000  1
  O  O421  1  0.69030000  0.66790000  0.47750000  1
  O  O422  1  0.69030000  0.52250000  0.19040000  1
  O  O423  1  0.69030000  0.80960000  0.47750000  1
  O  O424  1  0.69030000  0.66790000  0.19040000  1
  O  O425  1  0.69030000  0.80960000  0.33210000  1
  O  O426  1  0.80970000  0.52250000  0.33210000  1
  O  O427  1  0.80970000  0.66790000  0.47750000  1
  O  O428  1  0.80970000  0.52250000  0.19040000  1
  O  O429  1  0.80970000  0.80960000  0.47750000  1
  O  O430  1  0.80970000  0.66790000  0.19040000  1
  O  O431  1  0.80970000  0.80960000  0.33210000  1
