# generated using pymatgen
data_Co5P2H32C46(N4O9)2
_symmetry_space_group_name_H-M   'P 1'
_cell_length_a   9.24700000
_cell_length_b   9.97000000
_cell_length_c   15.02500000
_cell_angle_alpha   100.15100000
_cell_angle_beta   91.37200000
_cell_angle_gamma   91.77600000
_symmetry_Int_Tables_number   1
_chemical_formula_structural   Co5P2H32C46(N4O9)2
_chemical_formula_sum   'Co5 P2 H32 C46 N8 O18'
_cell_volume   1362.24697334
_cell_formula_units_Z   1
loop_
 _symmetry_equiv_pos_site_id
 _symmetry_equiv_pos_as_xyz
  1  'x, y, z'
loop_
 _atom_site_type_symbol
 _atom_site_label
 _atom_site_symmetry_multiplicity
 _atom_site_fract_x
 _atom_site_fract_y
 _atom_site_fract_z
 _atom_site_occupancy
  Co  Co0  1  0.00000000  0.00000000  0.00000000  1
  Co  Co1  1  0.06792000  0.84395000  0.80653000  1
  Co  Co2  1  0.17063000  0.38669000  0.93748000  1
  Co  Co3  1  0.82937000  0.61331000  0.06252000  1
  Co  Co4  1  0.93208000  0.15605000  0.19347000  1
  P  P5  1  0.11377000  0.71019000  0.99383000  1
  P  P6  1  0.88623000  0.28981000  0.00617000  1
  H  H7  1  0.07130000  0.52430000  0.67800000  1
  H  H8  1  0.16590000  0.17380000  0.75290000  1
  H  H9  1  0.18700000  0.15100000  0.51210000  1
  H  H10  1  0.21600000  0.28040000  0.39920000  1
  H  H11  1  0.28970000  0.02710000  0.62430000  1
  H  H12  1  0.29180000  0.42730000  0.61010000  1
  H  H13  1  0.35190000  0.69440000  0.54730000  1
  H  H14  1  0.38300000  0.83050000  0.43810000  1
  H  H15  1  0.38480000  0.66170000  0.93240000  1
  H  H16  1  0.38690000  0.36920000  0.29540000  1
  H  H17  1  0.39510000  0.78150000  0.77020000  1
  H  H18  1  0.42050000  0.71810000  0.27260000  1
  H  H19  1  0.43030000  0.49460000  0.37460000  1
  H  H20  1  0.46230000  0.02530000  0.63770000  1
  H  H21  1  0.47300000  0.00920000  0.17790000  1
  H  H22  1  0.48360000  0.43200000  0.85930000  1
  H  H23  1  0.51640000  0.56800000  0.14070000  1
  H  H24  1  0.52700000  0.99080000  0.82210000  1
  H  H25  1  0.53770000  0.97470000  0.36230000  1
  H  H26  1  0.56970000  0.50540000  0.62540000  1
  H  H27  1  0.57950000  0.28190000  0.72740000  1
  H  H28  1  0.60490000  0.21850000  0.22980000  1
  H  H29  1  0.61310000  0.63080000  0.70460000  1
  H  H30  1  0.61520000  0.33830000  0.06760000  1
  H  H31  1  0.61700000  0.16950000  0.56190000  1
  H  H32  1  0.64810000  0.30560000  0.45270000  1
  H  H33  1  0.70820000  0.57270000  0.38990000  1
  H  H34  1  0.71030000  0.97290000  0.37570000  1
  H  H35  1  0.78400000  0.71960000  0.60080000  1
  H  H36  1  0.81300000  0.84900000  0.48790000  1
  H  H37  1  0.83410000  0.82620000  0.24710000  1
  H  H38  1  0.92870000  0.47570000  0.32200000  1
  C  C39  1  0.16590000  0.56480000  0.68840000  1
  C  C40  1  0.19430000  0.95280000  0.16850000  1
  C  C41  1  0.25770000  0.22010000  0.76350000  1
  C  C42  1  0.28100000  0.18330000  0.50020000  1
  C  C43  1  0.28290000  0.04290000  0.91100000  1
  C  C44  1  0.28590000  0.51070000  0.65130000  1
  C  C45  1  0.28680000  0.78390000  0.03430000  1
  C  C46  1  0.29780000  0.26040000  0.43340000  1
  C  C47  1  0.31200000  0.89100000  0.10790000  1
  C  C48  1  0.34060000  0.70440000  0.73900000  1
  C  C49  1  0.35020000  0.27100000  0.06800000  1
  C  C50  1  0.37990000  0.08450000  0.63170000  1
  C  C51  1  0.39840000  0.15220000  0.55010000  1
  C  C52  1  0.40230000  0.73490000  0.98160000  1
  C  C53  1  0.43090000  0.36010000  0.82090000  1
  C  C54  1  0.43230000  0.10500000  0.92760000  1
  C  C55  1  0.43640000  0.30920000  0.41610000  1
  C  C56  1  0.44650000  0.72550000  0.53540000  1
  C  C57  1  0.45360000  0.94060000  0.12610000  1
  C  C58  1  0.45470000  0.40060000  0.34740000  1
  C  C59  1  0.45880000  0.21070000  0.00110000  1
  C  C60  1  0.46500000  0.80510000  0.46980000  1
  C  C61  1  0.48400000  0.27850000  0.74890000  1
  C  C62  1  0.51600000  0.72150000  0.25110000  1
  C  C63  1  0.53500000  0.19490000  0.53020000  1
  C  C64  1  0.54120000  0.78930000  0.99890000  1
  C  C65  1  0.54530000  0.59940000  0.65260000  1
  C  C66  1  0.54640000  0.05940000  0.87390000  1
  C  C67  1  0.55350000  0.27450000  0.46460000  1
  C  C68  1  0.56360000  0.69080000  0.58390000  1
  C  C69  1  0.56770000  0.89500000  0.07240000  1
  C  C70  1  0.56910000  0.63990000  0.17910000  1
  C  C71  1  0.59770000  0.26510000  0.01840000  1
  C  C72  1  0.60160000  0.84780000  0.44990000  1
  C  C73  1  0.62010000  0.91550000  0.36830000  1
  C  C74  1  0.64980000  0.72900000  0.93200000  1
  C  C75  1  0.65940000  0.29560000  0.26100000  1
  C  C76  1  0.68800000  0.10900000  0.89210000  1
  C  C77  1  0.70220000  0.73960000  0.56660000  1
  C  C78  1  0.71320000  0.21610000  0.96570000  1
  C  C79  1  0.71410000  0.48930000  0.34870000  1
  C  C80  1  0.71710000  0.95710000  0.08900000  1
  C  C81  1  0.71900000  0.81670000  0.49980000  1
  C  C82  1  0.74230000  0.77990000  0.23650000  1
  C  C83  1  0.80570000  0.04720000  0.83150000  1
  C  C84  1  0.83410000  0.43520000  0.31160000  1
  N  N85  1  0.19970000  0.68730000  0.74350000  1
  N  N86  1  0.28860000  0.32270000  0.83000000  1
  N  N87  1  0.37360000  0.19010000  0.71290000  1
  N  N88  1  0.39780000  0.59900000  0.68440000  1
  N  N89  1  0.60220000  0.40100000  0.31560000  1
  N  N90  1  0.62640000  0.80990000  0.28710000  1
  N  N91  1  0.71140000  0.67730000  0.17000000  1
  N  N92  1  0.80030000  0.31270000  0.25650000  1
  O  O93  1  0.02320000  0.69710000  0.07560000  1
  O  O94  1  0.05080000  0.80820000  0.93805000  1
  O  O95  1  0.08400000  0.99760000  0.13207000  1
  O  O96  1  0.13870000  0.57550000  0.93437000  1
  O  O97  1  0.19320000  0.08470000  0.96881000  1
  O  O98  1  0.21360000  0.96330000  0.25120000  1
  O  O99  1  0.25680000  0.95520000  0.84050000  1
  O  O100  1  0.27550000  0.37030000  0.04902000  1
  O  O101  1  0.35070000  0.23790000  0.14274000  1
  O  O102  1  0.64930000  0.76210000  0.85726000  1
  O  O103  1  0.72450000  0.62970000  0.95098000  1
  O  O104  1  0.74320000  0.04480000  0.15950000  1
  O  O105  1  0.78640000  0.03670000  0.74880000  1
  O  O106  1  0.80680000  0.91530000  0.03119000  1
  O  O107  1  0.86130000  0.42450000  0.06563000  1
  O  O108  1  0.91600000  0.00240000  0.86793000  1
  O  O109  1  0.94920000  0.19180000  0.06195000  1
  O  O110  1  0.97680000  0.30290000  0.92440000  1
