# generated using pymatgen
data_CdH20(C11N2)2
_symmetry_space_group_name_H-M   'P 1'
_cell_length_a   7.75330000
_cell_length_b   9.06110000
_cell_length_c   15.21590000
_cell_angle_alpha   90.00000000
_cell_angle_beta   90.00000000
_cell_angle_gamma   90.00000000
_symmetry_Int_Tables_number   1
_chemical_formula_structural   CdH20(C11N2)2
_chemical_formula_sum   'Cd2 H40 C44 N8'
_cell_volume   1068.96911426
_cell_formula_units_Z   2
loop_
 _symmetry_equiv_pos_site_id
 _symmetry_equiv_pos_as_xyz
  1  'x, y, z'
loop_
 _atom_site_type_symbol
 _atom_site_label
 _atom_site_symmetry_multiplicity
 _atom_site_fract_x
 _atom_site_fract_y
 _atom_site_fract_z
 _atom_site_occupancy
  Cd  Cd0  1  0.75000000  0.00000000  0.00000000  1
  Cd  Cd1  1  0.25000000  0.00000000  0.00000000  1
  H  H2  1  0.81821000  0.59744000  0.89875000  1
  H  H3  1  0.31821000  0.40256000  0.89875000  1
  H  H4  1  0.92140000  0.75285000  0.84774000  1
  H  H5  1  0.42140000  0.24715000  0.84774000  1
  H  H6  1  0.14033000  0.91471000  0.81474000  1
  H  H7  1  0.64033000  0.08529000  0.81474000  1
  H  H8  1  0.81431000  0.61704000  0.78131000  1
  H  H9  1  0.31431000  0.38296000  0.78131000  1
  H  H10  1  0.12602000  0.50254000  0.74922000  1
  H  H11  1  0.62602000  0.49746000  0.74922000  1
  H  H12  1  0.19394000  0.81290000  0.73748000  1
  H  H13  1  0.69394000  0.18710000  0.73748000  1
  H  H14  1  0.24523000  0.97835000  0.73665000  1
  H  H15  1  0.74523000  0.02165000  0.73665000  1
  H  H16  1  0.41295000  0.85518000  0.63182000  1
  H  H17  1  0.91295000  0.14482000  0.63182000  1
  H  H18  1  0.12602000  0.62719000  0.61453000  1
  H  H19  1  0.62602000  0.37281000  0.61453000  1
  H  H20  1  0.91295000  0.73053000  0.50287000  1
  H  H21  1  0.41295000  0.26947000  0.50287000  1
  H  H22  1  0.41295000  0.73053000  0.49713000  1
  H  H23  1  0.91295000  0.26947000  0.49713000  1
  H  H24  1  0.62602000  0.62719000  0.38547000  1
  H  H25  1  0.12602000  0.37281000  0.38547000  1
  H  H26  1  0.91295000  0.85518000  0.36818000  1
  H  H27  1  0.41295000  0.14482000  0.36818000  1
  H  H28  1  0.74523000  0.97835000  0.26335000  1
  H  H29  1  0.24523000  0.02165000  0.26335000  1
  H  H30  1  0.69394000  0.81290000  0.26252000  1
  H  H31  1  0.19394000  0.18710000  0.26252000  1
  H  H32  1  0.62602000  0.50254000  0.25078000  1
  H  H33  1  0.12602000  0.49746000  0.25078000  1
  H  H34  1  0.31431000  0.61704000  0.21869000  1
  H  H35  1  0.81431000  0.38296000  0.21869000  1
  H  H36  1  0.64033000  0.91471000  0.18526000  1
  H  H37  1  0.14033000  0.08529000  0.18526000  1
  H  H38  1  0.42140000  0.75285000  0.15226000  1
  H  H39  1  0.92140000  0.24715000  0.15226000  1
  H  H40  1  0.31821000  0.59744000  0.10125000  1
  H  H41  1  0.81821000  0.40256000  0.10125000  1
  C  C42  1  0.64654000  0.76282000  0.85071000  1
  C  C43  1  0.14654000  0.23718000  0.85071000  1
  C  C44  1  0.81098000  0.67686000  0.84420000  1
  C  C45  1  0.31098000  0.32314000  0.84420000  1
  C  C46  1  0.39243000  0.85756000  0.81961000  1
  C  C47  1  0.89243000  0.14244000  0.81961000  1
  C  C48  1  0.51949000  0.76760000  0.78915000  1
  C  C49  1  0.01949000  0.23240000  0.78915000  1
  C  C50  1  0.22799000  0.89422000  0.77286000  1
  C  C51  1  0.72799000  0.10578000  0.77286000  1
  C  C52  1  0.51949000  0.68804000  0.70318000  1
  C  C53  1  0.01949000  0.31196000  0.70318000  1
  C  C54  1  0.58277000  0.54477000  0.69805000  1
  C  C55  1  0.08277000  0.45523000  0.69805000  1
  C  C56  1  0.45620000  0.75726000  0.62831000  1
  C  C57  1  0.95620000  0.24274000  0.62831000  1
  C  C58  1  0.08277000  0.52927000  0.61804000  1
  C  C59  1  0.58277000  0.47073000  0.61804000  1
  C  C60  1  0.45620000  0.68322000  0.54830000  1
  C  C61  1  0.95620000  0.31678000  0.54830000  1
  C  C62  1  0.51949000  0.53995000  0.54317000  1
  C  C63  1  0.01949000  0.46005000  0.54317000  1
  C  C64  1  0.01949000  0.53995000  0.45683000  1
  C  C65  1  0.51949000  0.46005000  0.45683000  1
  C  C66  1  0.95620000  0.68322000  0.45170000  1
  C  C67  1  0.45620000  0.31678000  0.45170000  1
  C  C68  1  0.58277000  0.52927000  0.38196000  1
  C  C69  1  0.08277000  0.47073000  0.38196000  1
  C  C70  1  0.95620000  0.75726000  0.37169000  1
  C  C71  1  0.45620000  0.24274000  0.37169000  1
  C  C72  1  0.08277000  0.54477000  0.30195000  1
  C  C73  1  0.58277000  0.45523000  0.30195000  1
  C  C74  1  0.01949000  0.68804000  0.29682000  1
  C  C75  1  0.51949000  0.31196000  0.29682000  1
  C  C76  1  0.72799000  0.89422000  0.22714000  1
  C  C77  1  0.22799000  0.10578000  0.22714000  1
  C  C78  1  0.01949000  0.76760000  0.21085000  1
  C  C79  1  0.51949000  0.23240000  0.21085000  1
  C  C80  1  0.89243000  0.85756000  0.18039000  1
  C  C81  1  0.39243000  0.14244000  0.18039000  1
  C  C82  1  0.31098000  0.67686000  0.15580000  1
  C  C83  1  0.81098000  0.32314000  0.15580000  1
  C  C84  1  0.14654000  0.76282000  0.14929000  1
  C  C85  1  0.64654000  0.23718000  0.14929000  1
  N  N86  1  0.59801000  0.84981000  0.91922000  1
  N  N87  1  0.09801000  0.15019000  0.91922000  1
  N  N88  1  0.44096000  0.90836000  0.90000000  1
  N  N89  1  0.94096000  0.09164000  0.90000000  1
  N  N90  1  0.94096000  0.90836000  0.10000000  1
  N  N91  1  0.44096000  0.09164000  0.10000000  1
  N  N92  1  0.09801000  0.84981000  0.08078000  1
  N  N93  1  0.59801000  0.15019000  0.08078000  1
