# generated using pymatgen
data_AgH8(CN)2
_symmetry_space_group_name_H-M   'P 1'
_cell_length_a   6.31300000
_cell_length_b   7.40925076
_cell_length_c   7.40925076
_cell_angle_alpha   90.17989928
_cell_angle_beta   107.57256072
_cell_angle_gamma   107.57256072
_symmetry_Int_Tables_number   1
_chemical_formula_structural   AgH8(CN)2
_chemical_formula_sum   'Ag2 H16 C4 N4'
_cell_volume   313.27504574
_cell_formula_units_Z   2
loop_
 _symmetry_equiv_pos_site_id
 _symmetry_equiv_pos_as_xyz
  1  'x, y, z'
loop_
 _atom_site_type_symbol
 _atom_site_label
 _atom_site_symmetry_multiplicity
 _atom_site_fract_x
 _atom_site_fract_y
 _atom_site_fract_z
 _atom_site_occupancy
  Ag  Ag0  1  1.00000000  0.50000000  0.50000000  1
  Ag  Ag1  1  0.50000000  0.50000000  0.50000000  1
  C  C2  1  0.54620000  0.52540000  0.10540000  1
  C  C3  1  0.04620000  0.10540000  0.52540000  1
  C  C4  1  0.45380000  0.47460000  0.89460000  1
  C  C5  1  0.95380000  0.89460000  0.47460000  1
  H  H6  1  0.58170000  0.66140000  0.13220000  1
  H  H7  1  0.08170000  0.13220000  0.66140000  1
  H  H8  1  0.69120000  0.49580000  0.15580000  1
  H  H9  1  0.19120000  0.15580000  0.49580000  1
  H  H10  1  0.24540000  0.44890000  0.15250000  1
  H  H11  1  0.74540000  0.15250000  0.44890000  1
  H  H12  1  0.64700000  0.70110000  0.81890000  1
  H  H13  1  0.14700000  0.81890000  0.70110000  1
  H  H14  1  0.35300000  0.29890000  0.18110000  1
  H  H15  1  0.85300000  0.18110000  0.29890000  1
  H  H16  1  0.75460000  0.55110000  0.84750000  1
  H  H17  1  0.25460000  0.84750000  0.55110000  1
  H  H18  1  0.30880000  0.50420000  0.84420000  1
  H  H19  1  0.80880000  0.84420000  0.50420000  1
  H  H20  1  0.41830000  0.33860000  0.86780000  1
  H  H21  1  0.91830000  0.86780000  0.33860000  1
  N  N22  1  0.38170000  0.42490000  0.20310000  1
  N  N23  1  0.88170000  0.20310000  0.42490000  1
  N  N24  1  0.61830000  0.57510000  0.79690000  1
  N  N25  1  0.11830000  0.79690000  0.57510000  1
