# generated using pymatgen
data_ZnH8C16NO4
_symmetry_space_group_name_H-M   'P 1'
_cell_length_a   10.41460000
_cell_length_b   19.30548895
_cell_length_c   19.30548895
_cell_angle_alpha   69.40852283
_cell_angle_beta   74.35170519
_cell_angle_gamma   74.35170519
_symmetry_Int_Tables_number   1
_chemical_formula_structural   ZnH8C16NO4
_chemical_formula_sum   'Zn4 H32 C64 N4 O16'
_cell_volume   3432.41396768
_cell_formula_units_Z   4
loop_
 _symmetry_equiv_pos_site_id
 _symmetry_equiv_pos_as_xyz
  1  'x, y, z'
loop_
 _atom_site_type_symbol
 _atom_site_label
 _atom_site_symmetry_multiplicity
 _atom_site_fract_x
 _atom_site_fract_y
 _atom_site_fract_z
 _atom_site_occupancy
  C  C0  1  0.50100000  0.13843000  0.98017000  1
  C  C1  1  0.11960000  0.51983000  0.36157000  1
  C  C2  1  0.88040000  0.63843000  0.48017000  1
  C  C3  1  0.49900000  0.01983000  0.86157000  1
  C  C4  1  0.50033000  0.21715000  0.97839000  1
  C  C5  1  0.19587000  0.52161000  0.28285000  1
  C  C6  1  0.80413000  0.71715000  0.47839000  1
  C  C7  1  0.49967000  0.02161000  0.78285000  1
  C  C8  1  0.38016000  0.26427000  0.99801000  1
  C  C9  1  0.14244000  0.50199000  0.23573000  1
  C  C10  1  0.85756000  0.76427000  0.49801000  1
  C  C11  1  0.61984000  0.00199000  0.73573000  1
  C  C12  1  0.62134000  0.24241000  0.95931000  1
  C  C13  1  0.32306000  0.54069000  0.25759000  1
  C  C14  1  0.67694000  0.74241000  0.45931000  1
  C  C15  1  0.37866000  0.04069000  0.75759000  1
  C  C16  1  0.38167000  0.33502000  0.00044000  1
  C  C17  1  0.21713000  0.49956000  0.16498000  1
  C  C18  1  0.78287000  0.83502000  0.50044000  1
  C  C19  1  0.61833000  0.99956000  0.66498000  1
  C  C20  1  0.62197000  0.31372000  0.96014000  1
  C  C21  1  0.39583000  0.53986000  0.18628000  1
  C  C22  1  0.60417000  0.81372000  0.46014000  1
  C  C23  1  0.37803000  0.03986000  0.68628000  1
  C  C24  1  0.50231000  0.36035000  0.98123000  1
  C  C25  1  0.34389000  0.51877000  0.13965000  1
  C  C26  1  0.65611000  0.86035000  0.48123000  1
  C  C27  1  0.49769000  0.01877000  0.63965000  1
  C  C28  1  0.50198000  0.43474000  0.98810000  1
  C  C29  1  0.42482000  0.51190000  0.06526000  1
  C  C30  1  0.57518000  0.93474000  0.48810000  1
  C  C31  1  0.49802000  0.01190000  0.56526000  1
  C  C32  1  0.57518000  0.48810000  0.93474000  1
  C  C33  1  0.49802000  0.56526000  0.01190000  1
  C  C34  1  0.50198000  0.98810000  0.43474000  1
  C  C35  1  0.42482000  0.06526000  0.51190000  1
  C  C36  1  0.65611000  0.48123000  0.86035000  1
  C  C37  1  0.49769000  0.63965000  0.01877000  1
  C  C38  1  0.50231000  0.98123000  0.36035000  1
  C  C39  1  0.34389000  0.13965000  0.51877000  1
  C  C40  1  0.60417000  0.46014000  0.81372000  1
  C  C41  1  0.37803000  0.68628000  0.03986000  1
  C  C42  1  0.62197000  0.96014000  0.31372000  1
  C  C43  1  0.39583000  0.18628000  0.53986000  1
  C  C44  1  0.78287000  0.50044000  0.83502000  1
  C  C45  1  0.61833000  0.66498000  0.99956000  1
  C  C46  1  0.38167000  0.00044000  0.33502000  1
  C  C47  1  0.21713000  0.16498000  0.49956000  1
  C  C48  1  0.67694000  0.45931000  0.74241000  1
  C  C49  1  0.37866000  0.75759000  0.04069000  1
  C  C50  1  0.62134000  0.95931000  0.24241000  1
  C  C51  1  0.32306000  0.25759000  0.54069000  1
  C  C52  1  0.85756000  0.49801000  0.76427000  1
  C  C53  1  0.61984000  0.73573000  0.00199000  1
  C  C54  1  0.38016000  0.99801000  0.26427000  1
  C  C55  1  0.14244000  0.23573000  0.50199000  1
  C  C56  1  0.80413000  0.47839000  0.71715000  1
  C  C57  1  0.49967000  0.78285000  0.02161000  1
  C  C58  1  0.50033000  0.97839000  0.21715000  1
  C  C59  1  0.19587000  0.28285000  0.52161000  1
  C  C60  1  0.88040000  0.48017000  0.63843000  1
  C  C61  1  0.49900000  0.86157000  0.01983000  1
  C  C62  1  0.50100000  0.98017000  0.13843000  1
  C  C63  1  0.11960000  0.36157000  0.51983000  1
  H  H64  1  0.29790000  0.24850000  0.00970000  1
  H  H65  1  0.05610000  0.49030000  0.25150000  1
  H  H66  1  0.94390000  0.74850000  0.50970000  1
  H  H67  1  0.70210000  0.99030000  0.75150000  1
  H  H68  1  0.70280000  0.21120000  0.94580000  1
  H  H69  1  0.35980000  0.55420000  0.28880000  1
  H  H70  1  0.64020000  0.71120000  0.44580000  1
  H  H71  1  0.29720000  0.05420000  0.78880000  1
  H  H72  1  0.30050000  0.36580000  0.01520000  1
  H  H73  1  0.18150000  0.48480000  0.13420000  1
  H  H74  1  0.81850000  0.86580000  0.51520000  1
  H  H75  1  0.69950000  0.98480000  0.63420000  1
  H  H76  1  0.70370000  0.33040000  0.94640000  1
  H  H77  1  0.48050000  0.55360000  0.16960000  1
  H  H78  1  0.51950000  0.83040000  0.44640000  1
  H  H79  1  0.29630000  0.05360000  0.66960000  1
  H  H80  1  0.51950000  0.44640000  0.83040000  1
  H  H81  1  0.29630000  0.66960000  0.05360000  1
  H  H82  1  0.70370000  0.94640000  0.33040000  1
  H  H83  1  0.48050000  0.16960000  0.55360000  1
  H  H84  1  0.81850000  0.51520000  0.86580000  1
  H  H85  1  0.69950000  0.63420000  0.98480000  1
  H  H86  1  0.30050000  0.01520000  0.36580000  1
  H  H87  1  0.18150000  0.13420000  0.48480000  1
  H  H88  1  0.64020000  0.44580000  0.71120000  1
  H  H89  1  0.29720000  0.78880000  0.05420000  1
  H  H90  1  0.70280000  0.94580000  0.21120000  1
  H  H91  1  0.35980000  0.28880000  0.55420000  1
  H  H92  1  0.94390000  0.50970000  0.74850000  1
  H  H93  1  0.70210000  0.75150000  0.99030000  1
  H  H94  1  0.29790000  0.00970000  0.24850000  1
  H  H95  1  0.05610000  0.25150000  0.49030000  1
  N  N96  1  0.42530000  0.44807000  0.05193000  1
  N  N97  1  0.57470000  0.94807000  0.55193000  1
  N  N98  1  0.57470000  0.55193000  0.94807000  1
  N  N99  1  0.42530000  0.05193000  0.44807000  1
  O  O100  1  0.38702000  0.12064000  0.99396000  1
  O  O101  1  0.00162000  0.50604000  0.37936000  1
  O  O102  1  0.99838000  0.62064000  0.49396000  1
  O  O103  1  0.61298000  0.00604000  0.87936000  1
  O  O104  1  0.61373000  0.09658000  0.96868000  1
  O  O105  1  0.17899000  0.53132000  0.40342000  1
  O  O106  1  0.82101000  0.59658000  0.46868000  1
  O  O107  1  0.38627000  0.03132000  0.90342000  1
  O  O108  1  0.82101000  0.46868000  0.59658000  1
  O  O109  1  0.38627000  0.90342000  0.03132000  1
  O  O110  1  0.61373000  0.96868000  0.09658000  1
  O  O111  1  0.17899000  0.40342000  0.53132000  1
  O  O112  1  0.99838000  0.49396000  0.62064000  1
  O  O113  1  0.61298000  0.87936000  0.00604000  1
  O  O114  1  0.38702000  0.99396000  0.12064000  1
  O  O115  1  0.00162000  0.37936000  0.50604000  1
  Zn  Zn116  1  0.35018000  0.01592000  0.01592000  1
  Zn  Zn117  1  0.88202000  0.48408000  0.48408000  1
  Zn  Zn118  1  0.11798000  0.51592000  0.51592000  1
  Zn  Zn119  1  0.64982000  0.98408000  0.98408000  1
