# generated using pymatgen
data_CoHC4O3
_symmetry_space_group_name_H-M   'P 1'
_cell_length_a   6.71820000
_cell_length_b   15.26740000
_cell_length_c   15.26740377
_cell_angle_alpha   117.88693627
_cell_angle_beta   98.43447405
_cell_angle_gamma   98.43450000
_symmetry_Int_Tables_number   1
_chemical_formula_structural   CoHC4O3
_chemical_formula_sum   'Co6 H6 C24 O18'
_cell_volume   1326.99153833
_cell_formula_units_Z   6
loop_
 _symmetry_equiv_pos_site_id
 _symmetry_equiv_pos_as_xyz
  1  'x, y, z'
loop_
 _atom_site_type_symbol
 _atom_site_label
 _atom_site_symmetry_multiplicity
 _atom_site_fract_x
 _atom_site_fract_y
 _atom_site_fract_z
 _atom_site_occupancy
  Co  Co0  1  0.30418000  0.68447000  0.26442000  1
  Co  Co1  1  0.61971000  0.57995000  0.31553000  1
  Co  Co2  1  0.96024000  0.26442000  0.57995000  1
  Co  Co3  1  0.03976000  0.73558000  0.42005000  1
  Co  Co4  1  0.38029000  0.42005000  0.68447000  1
  Co  Co5  1  0.69582000  0.31553000  0.73558000  1
  H  H6  1  0.16409000  0.44879000  0.01911000  1
  H  H7  1  0.71530000  0.57032000  0.55121000  1
  H  H8  1  0.85502000  0.01911000  0.57032000  1
  H  H9  1  0.14498000  0.98089000  0.42968000  1
  H  H10  1  0.28470000  0.42968000  0.44879000  1
  H  H11  1  0.83591000  0.55121000  0.98089000  1
  C  C12  1  0.63313000  0.09944000  0.56814000  1
  C  C13  1  0.58338000  0.91336000  0.46103000  1
  C  C14  1  0.76496000  0.43257000  0.60544000  1
  C  C15  1  0.71134000  0.01259000  0.54225000  1
  C  C16  1  0.66761000  0.82713000  0.43257000  1
  C  C17  1  0.30125000  0.47034000  0.01259000  1
  C  C18  1  0.83091000  0.54225000  0.52966000  1
  C  C19  1  0.87765000  0.46103000  0.54767000  1
  C  C20  1  0.15952000  0.39456000  0.82713000  1
  C  C21  1  0.46631000  0.53130000  0.09944000  1
  C  C22  1  0.32998000  0.45233000  0.91336000  1
  C  C23  1  0.93501000  0.56814000  0.46870000  1
  C  C24  1  0.06499000  0.43186000  0.53130000  1
  C  C25  1  0.67002000  0.54767000  0.08664000  1
  C  C26  1  0.53369000  0.46870000  0.90056000  1
  C  C27  1  0.84048000  0.60544000  0.17287000  1
  C  C28  1  0.12235000  0.53897000  0.45233000  1
  C  C29  1  0.16909000  0.45775000  0.47034000  1
  C  C30  1  0.69875000  0.52966000  0.98741000  1
  C  C31  1  0.33239000  0.17287000  0.56743000  1
  C  C32  1  0.28866000  0.98741000  0.45775000  1
  C  C33  1  0.23504000  0.56743000  0.39456000  1
  C  C34  1  0.41662000  0.08664000  0.53897000  1
  C  C35  1  0.36687000  0.90056000  0.43186000  1
  O  O36  1  0.37002000  0.52003000  0.35931000  1
  O  O37  1  0.76273000  0.19603000  0.63436000  1
  O  O38  1  0.98929000  0.35931000  0.83928000  1
  O  O39  1  0.54776000  0.73855000  0.37907000  1
  O  O40  1  0.83131000  0.37907000  0.64052000  1
  O  O41  1  0.43330000  0.56167000  0.19603000  1
  O  O42  1  0.84999000  0.83928000  0.47997000  1
  O  O43  1  0.87163000  0.63436000  0.43833000  1
  O  O44  1  0.19079000  0.35948000  0.73855000  1
  O  O45  1  0.80921000  0.64052000  0.26145000  1
  O  O46  1  0.12837000  0.36564000  0.56167000  1
  O  O47  1  0.15001000  0.16072000  0.52003000  1
  O  O48  1  0.56670000  0.43833000  0.80397000  1
  O  O49  1  0.16869000  0.62093000  0.35948000  1
  O  O50  1  0.45224000  0.26145000  0.62093000  1
  O  O51  1  0.01071000  0.64069000  0.16072000  1
  O  O52  1  0.23727000  0.80397000  0.36564000  1
  O  O53  1  0.62998000  0.47997000  0.64069000  1
