# generated using pymatgen
data_CuHC4O3
_symmetry_space_group_name_H-M   'P 1'
_cell_length_a   6.25870000
_cell_length_b   15.15380000
_cell_length_c   15.15380988
_cell_angle_alpha   118.13625545
_cell_angle_beta   97.91323036
_cell_angle_gamma   97.91300000
_symmetry_Int_Tables_number   1
_chemical_formula_structural   CuHC4O3
_chemical_formula_sum   'Cu6 H6 C24 O18'
_cell_volume   1221.09030892
_cell_formula_units_Z   6
loop_
 _symmetry_equiv_pos_site_id
 _symmetry_equiv_pos_as_xyz
  1  'x, y, z'
loop_
 _atom_site_type_symbol
 _atom_site_label
 _atom_site_symmetry_multiplicity
 _atom_site_fract_x
 _atom_site_fract_y
 _atom_site_fract_z
 _atom_site_occupancy
  Cu  Cu0  1  0.63762000  0.30618000  0.56667000  1
  Cu  Cu1  1  0.07095000  0.43333000  0.73951000  1
  Cu  Cu2  1  0.66856000  0.73951000  0.30618000  1
  Cu  Cu3  1  0.33144000  0.26049000  0.69382000  1
  Cu  Cu4  1  0.92905000  0.56667000  0.26049000  1
  Cu  Cu5  1  0.36238000  0.69382000  0.43333000  1
  H  H6  1  0.68530000  0.53900000  0.56040000  1
  H  H7  1  0.12490000  0.43960000  0.97860000  1
  H  H8  1  0.85370000  0.97860000  0.53900000  1
  H  H9  1  0.14630000  0.02140000  0.46100000  1
  H  H10  1  0.87510000  0.56040000  0.02140000  1
  H  H11  1  0.31470000  0.46100000  0.43960000  1
  C  C12  1  0.53520000  0.89990000  0.47130000  1
  C  C13  1  0.28830000  0.57010000  0.17160000  1
  C  C14  1  0.67900000  0.08480000  0.55150000  1
  C  C15  1  0.70830000  0.98670000  0.52280000  1
  C  C16  1  0.81450000  0.52280000  0.53610000  1
  C  C17  1  0.88330000  0.17160000  0.60150000  1
  C  C18  1  0.71820000  0.60150000  0.42990000  1
  C  C19  1  0.27840000  0.46390000  0.98670000  1
  C  C20  1  0.40580000  0.53330000  0.08480000  1
  C  C21  1  0.93610000  0.47130000  0.57140000  1
  C  C22  1  0.87250000  0.55150000  0.46670000  1
  C  C23  1  0.36470000  0.42860000  0.89990000  1
  C  C24  1  0.63530000  0.57140000  0.10010000  1
  C  C25  1  0.12750000  0.44850000  0.53330000  1
  C  C26  1  0.06390000  0.52870000  0.42860000  1
  C  C27  1  0.59420000  0.46670000  0.91520000  1
  C  C28  1  0.72160000  0.53610000  0.01330000  1
  C  C29  1  0.28180000  0.39850000  0.57010000  1
  C  C30  1  0.11670000  0.82840000  0.39850000  1
  C  C31  1  0.18550000  0.47720000  0.46390000  1
  C  C32  1  0.29170000  0.01330000  0.47720000  1
  C  C33  1  0.32100000  0.91520000  0.44850000  1
  C  C34  1  0.71170000  0.42990000  0.82840000  1
  C  C35  1  0.46480000  0.10010000  0.52870000  1
  O  O36  1  0.89819000  0.48460000  0.84297000  1
  O  O37  1  0.58641000  0.64163000  0.48460000  1
  O  O38  1  0.37033000  0.65366000  0.25403000  1
  O  O39  1  0.58111000  0.80654000  0.44289000  1
  O  O40  1  0.86178000  0.44289000  0.63635000  1
  O  O41  1  0.88370000  0.25403000  0.60037000  1
  O  O42  1  0.71667000  0.60037000  0.34634000  1
  O  O43  1  0.05522000  0.15703000  0.64163000  1
  O  O44  1  0.22543000  0.36365000  0.80654000  1
  O  O45  1  0.77457000  0.63635000  0.19346000  1
  O  O46  1  0.94478000  0.84297000  0.35837000  1
  O  O47  1  0.28333000  0.39963000  0.65366000  1
  O  O48  1  0.11630000  0.74597000  0.39963000  1
  O  O49  1  0.13822000  0.55711000  0.36365000  1
  O  O50  1  0.41889000  0.19346000  0.55711000  1
  O  O51  1  0.62967000  0.34634000  0.74597000  1
  O  O52  1  0.41359000  0.35837000  0.51540000  1
  O  O53  1  0.10181000  0.51540000  0.15703000  1
