# generated using pymatgen
data_Mg5H26(C8O9)2
_symmetry_space_group_name_H-M   'P 1'
_cell_length_a   12.06900000
_cell_length_b   17.47491959
_cell_length_c   17.47491959
_cell_angle_alpha   83.15127793
_cell_angle_beta   69.79845673
_cell_angle_gamma   69.79845673
_symmetry_Int_Tables_number   1
_chemical_formula_structural   Mg5H26(C8O9)2
_chemical_formula_sum   'Mg20 H104 C64 O72'
_cell_volume   3246.04957009
_cell_formula_units_Z   4
loop_
 _symmetry_equiv_pos_site_id
 _symmetry_equiv_pos_as_xyz
  1  'x, y, z'
loop_
 _atom_site_type_symbol
 _atom_site_label
 _atom_site_symmetry_multiplicity
 _atom_site_fract_x
 _atom_site_fract_y
 _atom_site_fract_z
 _atom_site_occupancy
  C  C0  1  0.72760000  0.96830000  0.99690000  1
  C  C1  1  0.30720000  0.46830000  0.49690000  1
  C  C2  1  0.20280000  0.81700000  0.13840000  1
  C  C3  1  0.84180000  0.31700000  0.63840000  1
  C  C4  1  0.15410000  0.85280000  0.06980000  1
  C  C5  1  0.92330000  0.35280000  0.56980000  1
  C  C6  1  0.91870000  0.56160000  0.31840000  1
  C  C7  1  0.20130000  0.06160000  0.81840000  1
  C  C8  1  0.84850000  0.90650000  0.95630000  1
  C  C9  1  0.28870000  0.40650000  0.45630000  1
  C  C10  1  0.65880000  0.63840000  0.18300000  1
  C  C11  1  0.51980000  0.13840000  0.68300000  1
  C  C12  1  0.97870000  0.47040000  0.32980000  1
  C  C13  1  0.22110000  0.97040000  0.82980000  1
  C  C14  1  0.71080000  0.40370000  0.35690000  1
  C  C15  1  0.52860000  0.90370000  0.85690000  1
  C  C16  1  0.01970000  0.68160000  0.06160000  1
  C  C17  1  0.23710000  0.18160000  0.56160000  1
  C  C18  1  0.77610000  0.56980000  0.14720000  1
  C  C19  1  0.50690000  0.06980000  0.64720000  1
  C  C20  1  0.05090000  0.67020000  0.97040000  1
  C  C21  1  0.30850000  0.17020000  0.47040000  1
  C  C22  1  0.77440000  0.33200000  0.30360000  1
  C  C23  1  0.59000000  0.83200000  0.80360000  1
  C  C24  1  0.19520000  0.45630000  0.09350000  1
  C  C25  1  0.25500000  0.95630000  0.59350000  1
  C  C26  1  0.38550000  0.64310000  0.90370000  1
  C  C27  1  0.06770000  0.14310000  0.40370000  1
  C  C28  1  0.27550000  0.49690000  0.03170000  1
  C  C29  1  0.19590000  0.99690000  0.53170000  1
  C  C30  1  0.39360000  0.69640000  0.83200000  1
  C  C31  1  0.07800000  0.19640000  0.33200000  1
  C  C32  1  0.60640000  0.30360000  0.16800000  1
  C  C33  1  0.92200000  0.80360000  0.66800000  1
  C  C34  1  0.72450000  0.50310000  0.96830000  1
  C  C35  1  0.80410000  0.00310000  0.46830000  1
  C  C36  1  0.61450000  0.35690000  0.09630000  1
  C  C37  1  0.93230000  0.85690000  0.59630000  1
  C  C38  1  0.80480000  0.54370000  0.90650000  1
  C  C39  1  0.74500000  0.04370000  0.40650000  1
  C  C40  1  0.22560000  0.66800000  0.69640000  1
  C  C41  1  0.41000000  0.16800000  0.19640000  1
  C  C42  1  0.94910000  0.32980000  0.02960000  1
  C  C43  1  0.69150000  0.82980000  0.52960000  1
  C  C44  1  0.22390000  0.43020000  0.85280000  1
  C  C45  1  0.49310000  0.93020000  0.35280000  1
  C  C46  1  0.98030000  0.31840000  0.93840000  1
  C  C47  1  0.76290000  0.81840000  0.43840000  1
  C  C48  1  0.28920000  0.59630000  0.64310000  1
  C  C49  1  0.47140000  0.09630000  0.14310000  1
  C  C50  1  0.02130000  0.52960000  0.67020000  1
  C  C51  1  0.77890000  0.02960000  0.17020000  1
  C  C52  1  0.34120000  0.36160000  0.81700000  1
  C  C53  1  0.48020000  0.86160000  0.31700000  1
  C  C54  1  0.15150000  0.09350000  0.04370000  1
  C  C55  1  0.71130000  0.59350000  0.54370000  1
  C  C56  1  0.08130000  0.43840000  0.68160000  1
  C  C57  1  0.79870000  0.93840000  0.18160000  1
  C  C58  1  0.84590000  0.14720000  0.93020000  1
  C  C59  1  0.07670000  0.64720000  0.43020000  1
  C  C60  1  0.79720000  0.18300000  0.86160000  1
  C  C61  1  0.15820000  0.68300000  0.36160000  1
  C  C62  1  0.27240000  0.03170000  0.00310000  1
  C  C63  1  0.69280000  0.53170000  0.50310000  1
  H  H64  1  0.67500000  0.94220000  0.03960000  1
  H  H65  1  0.34320000  0.44220000  0.53960000  1
  H  H66  1  0.77330000  0.48980000  0.47880000  1
  H  H67  1  0.25810000  0.98980000  0.97880000  1
  H  H68  1  0.19050000  0.64910000  0.31290000  1
  H  H69  1  0.84750000  0.14910000  0.81290000  1
  H  H70  1  0.89720000  0.59040000  0.36900000  1
  H  H71  1  0.14340000  0.09040000  0.86900000  1
  H  H72  1  0.36400000  0.49350000  0.45670000  1
  H  H73  1  0.68580000  0.99350000  0.95670000  1
  H  H74  1  0.28990000  0.81490000  0.12330000  1
  H  H75  1  0.77190000  0.31490000  0.62330000  1
  H  H76  1  0.19800000  0.76170000  0.14970000  1
  H  H77  1  0.89060000  0.26170000  0.64970000  1
  H  H78  1  0.65230000  0.64970000  0.23830000  1
  H  H79  1  0.45970000  0.14970000  0.73830000  1
  H  H80  1  0.84280000  0.57090000  0.30470000  1
  H  H81  1  0.28160000  0.07090000  0.80470000  1
  H  H82  1  0.97760000  0.58190000  0.27410000  1
  H  H83  1  0.16640000  0.08190000  0.77410000  1
  H  H84  1  0.66040000  0.68710000  0.14910000  1
  H  H85  1  0.50340000  0.18710000  0.64910000  1
  H  H86  1  0.58680000  0.62330000  0.18510000  1
  H  H87  1  0.60480000  0.12330000  0.68510000  1
  H  H88  1  0.94050000  0.72590000  0.08190000  1
  H  H89  1  0.25170000  0.22590000  0.58190000  1
  H  H90  1  0.53790000  0.88830000  0.91070000  1
  H  H91  1  0.66310000  0.38830000  0.41070000  1
  H  H92  1  0.77298333  0.42490000  0.36250000  1
  H  H93  1  0.43961667  0.92490000  0.86250000  1
  H  H94  1  0.65410000  0.44580000  0.33300000  1
  H  H95  1  0.56710000  0.94580000  0.83300000  1
  H  H96  1  0.08630000  0.69530000  0.07090000  1
  H  H97  1  0.14750000  0.19530000  0.57090000  1
  H  H98  1  0.01240000  0.63100000  0.09040000  1
  H  H99  1  0.26620000  0.13100000  0.59040000  1
  H  H100  1  0.23600000  0.38600000  0.30600000  1
  H  H101  1  0.07200000  0.88600000  0.80600000  1
  H  H102  1  0.40010000  0.66700000  0.94580000  1
  H  H103  1  0.98710000  0.16700000  0.44580000  1
  H  H104  1  0.28540000  0.53960000  0.05780000  1
  H  H105  1  0.11720000  0.03960000  0.55780000  1
  H  H106  1  0.87800000  0.69400000  0.88600000  1
  H  H107  1  0.54200000  0.19400000  0.38600000  1
  H  H108  1  0.30210000  0.63750000  0.92490000  1
  H  H109  1  0.13550000  0.13750000  0.42490000  1
  H  H110  1  0.64250000  0.54330000  0.99350000  1
  H  H111  1  0.82070000  0.04330000  0.49350000  1
  H  H112  1  0.55140000  0.41070000  0.11170000  1
  H  H113  1  0.92620000  0.91070000  0.61170000  1
  H  H114  1  0.23690000  0.52120000  0.98980000  1
  H  H115  1  0.25210000  0.02120000  0.48980000  1
  H  H116  1  0.76310000  0.47880000  0.01020000  1
  H  H117  1  0.74790000  0.97880000  0.51020000  1
  H  H118  1  0.44860000  0.58930000  0.88830000  1
  H  H119  1  0.07380000  0.08930000  0.38830000  1
  H  H120  1  0.35750000  0.45670000  0.00650000  1
  H  H121  1  0.17930000  0.95670000  0.50650000  1
  H  H122  1  0.69790000  0.36250000  0.07510000  1
  H  H123  1  0.86450000  0.86250000  0.57510000  1
  H  H124  1  0.12200000  0.30600000  0.11400000  1
  H  H125  1  0.45800000  0.80600000  0.61400000  1
  H  H126  1  0.71460000  0.46040000  0.94220000  1
  H  H127  1  0.88280000  0.96040000  0.44220000  1
  H  H128  1  0.59990000  0.33300000  0.05420000  1
  H  H129  1  0.01290000  0.83300000  0.55420000  1
  H  H130  1  0.76400000  0.61400000  0.69400000  1
  H  H131  1  0.92800000  0.11400000  0.19400000  1
  H  H132  1  0.98760000  0.36900000  0.90960000  1
  H  H133  1  0.73380000  0.86900000  0.40960000  1
  H  H134  1  0.91370000  0.30470000  0.92910000  1
  H  H135  1  0.85250000  0.80470000  0.42910000  1
  H  H136  1  0.34590000  0.55420000  0.66700000  1
  H  H137  1  0.43290000  0.05420000  0.16700000  1
  H  H138  1  0.22701667  0.57510000  0.63750000  1
  H  H139  1  0.56038333  0.07510000  0.13750000  1
  H  H140  1  0.46210000  0.11170000  0.08930000  1
  H  H141  1  0.33690000  0.61170000  0.58930000  1
  H  H142  1  0.05950000  0.27410000  0.91810000  1
  H  H143  1  0.74830000  0.77410000  0.41810000  1
  H  H144  1  0.41320000  0.37670000  0.81490000  1
  H  H145  1  0.39520000  0.87670000  0.31490000  1
  H  H146  1  0.33960000  0.31290000  0.85090000  1
  H  H147  1  0.49660000  0.81290000  0.35090000  1
  H  H148  1  0.02240000  0.41810000  0.72590000  1
  H  H149  1  0.83360000  0.91810000  0.22590000  1
  H  H150  1  0.15720000  0.42910000  0.69530000  1
  H  H151  1  0.71840000  0.92910000  0.19530000  1
  H  H152  1  0.34770000  0.35030000  0.76170000  1
  H  H153  1  0.54030000  0.85030000  0.26170000  1
  H  H154  1  0.80200000  0.23830000  0.85030000  1
  H  H155  1  0.10940000  0.73830000  0.35030000  1
  H  H156  1  0.71010000  0.18510000  0.87670000  1
  H  H157  1  0.22810000  0.68510000  0.37670000  1
  H  H158  1  0.63600000  0.50650000  0.54330000  1
  H  H159  1  0.31420000  0.00650000  0.04330000  1
  H  H160  1  0.10280000  0.40960000  0.63100000  1
  H  H161  1  0.85660000  0.90960000  0.13100000  1
  H  H162  1  0.80950000  0.35090000  0.68710000  1
  H  H163  1  0.15250000  0.85090000  0.18710000  1
  H  H164  1  0.22670000  0.51020000  0.52120000  1
  H  H165  1  0.74190000  0.01020000  0.02120000  1
  H  H166  1  0.32500000  0.05780000  0.96040000  1
  H  H167  1  0.65680000  0.55780000  0.46040000  1
  Mg  Mg168  1  0.00000000  0.00000000  0.00000000  1
  Mg  Mg169  1  0.00000000  0.50000000  0.50000000  1
  Mg  Mg170  1  0.12973000  0.82783000  0.91251000  1
  Mg  Mg171  1  0.12993000  0.32783000  0.41251000  1
  Mg  Mg172  1  0.99094000  0.77473000  0.82259000  1
  Mg  Mg173  1  0.41174000  0.27473000  0.32259000  1
  Mg  Mg174  1  0.95776000  0.41251000  0.17217000  1
  Mg  Mg175  1  0.45756000  0.91251000  0.67217000  1
  Mg  Mg176  1  0.18647000  0.32259000  0.22527000  1
  Mg  Mg177  1  0.26567000  0.82259000  0.72527000  1
  Mg  Mg178  1  1.00000000  0.50000000  0.00000000  1
  Mg  Mg179  1  0.50000000  1.00000000  0.50000000  1
  Mg  Mg180  1  0.81353000  0.67741000  0.77473000  1
  Mg  Mg181  1  0.73433000  0.17741000  0.27473000  1
  Mg  Mg182  1  0.04224000  0.58749000  0.82783000  1
  Mg  Mg183  1  0.54244000  0.08749000  0.32783000  1
  Mg  Mg184  1  0.00906000  0.22527000  0.17741000  1
  Mg  Mg185  1  0.58826000  0.72527000  0.67741000  1
  Mg  Mg186  1  0.87027000  0.17217000  0.08749000  1
  Mg  Mg187  1  0.87007000  0.67217000  0.58749000  1
  O  O188  1  0.08770000  0.57430000  0.42410000  1
  O  O189  1  0.91390000  0.07430000  0.92410000  1
  O  O190  1  0.94529000  0.90641000  0.97241000  1
  O  O191  1  0.17589000  0.40641000  0.47241000  1
  O  O192  1  0.00100000  0.44540000  0.39660000  1
  O  O193  1  0.15700000  0.94540000  0.89660000  1
  O  O194  1  0.18190000  0.80630000  0.01230000  1
  O  O195  1  0.99950000  0.30630000  0.51230000  1
  O  O196  1  0.85110000  0.85730000  0.91050000  1
  O  O197  1  0.38110000  0.35730000  0.41050000  1
  O  O198  1  0.80580000  0.51230000  0.19370000  1
  O  O199  1  0.48820000  0.01230000  0.69370000  1
  O  O200  1  0.00946000  0.42410000  0.27238000  1
  O  O201  1  0.29406000  0.92410000  0.77238000  1
  O  O202  1  0.25100000  0.34750000  0.30610000  1
  O  O203  1  0.09540000  0.84750000  0.80610000  1
  O  O204  1  0.06644000  0.72762000  0.92410000  1
  O  O205  1  0.28184000  0.22762000  0.42410000  1
  O  O206  1  0.83800000  0.57590000  0.07430000  1
  O  O207  1  0.51180000  0.07590000  0.57430000  1
  O  O208  1  0.65930000  0.77210000  0.82790000  1
  O  O209  1  0.74070000  0.27210000  0.32790000  1
  O  O210  1  0.30347000  0.76017000  0.83169000  1
  O  O211  1  0.10467000  0.26017000  0.33169000  1
  O  O212  1  0.86484000  0.33169000  0.23983000  1
  O  O213  1  0.56364000  0.83169000  0.73983000  1
  O  O214  1  0.08230000  0.47241000  0.09359000  1
  O  O215  1  0.35170000  0.97241000  0.59359000  1
  O  O216  1  0.51280000  0.32790000  0.22790000  1
  O  O217  1  0.93140000  0.82790000  0.72790000  1
  O  O218  1  0.23840000  0.41050000  0.14270000  1
  O  O219  1  0.20840000  0.91050000  0.64270000  1
  O  O220  1  0.05360000  0.60340000  0.94540000  1
  O  O221  1  0.39760000  0.10340000  0.44540000  1
  O  O222  1  0.90150000  0.69390000  0.84750000  1
  O  O223  1  0.55710000  0.19390000  0.34750000  1
  O  O224  1  0.09850000  0.30610000  0.15250000  1
  O  O225  1  0.44290000  0.80610000  0.65250000  1
  O  O226  1  0.94640000  0.39660000  0.05460000  1
  O  O227  1  0.60240000  0.89660000  0.55460000  1
  O  O228  1  0.76160000  0.58950000  0.85730000  1
  O  O229  1  0.79160000  0.08950000  0.35730000  1
  O  O230  1  0.48720000  0.67210000  0.77210000  1
  O  O231  1  0.06860000  0.17210000  0.27210000  1
  O  O232  1  0.91770000  0.52759000  0.90641000  1
  O  O233  1  0.64830000  0.02759000  0.40641000  1
  O  O234  1  0.13516000  0.66831000  0.76017000  1
  O  O235  1  0.43636000  0.16831000  0.26017000  1
  O  O236  1  0.69653000  0.23983000  0.16831000  1
  O  O237  1  0.89533000  0.73983000  0.66831000  1
  O  O238  1  0.34070000  0.22790000  0.17210000  1
  O  O239  1  0.25930000  0.72790000  0.67210000  1
  O  O240  1  0.16200000  0.42410000  0.92570000  1
  O  O241  1  0.48820000  0.92410000  0.42570000  1
  O  O242  1  0.93356000  0.27238000  0.07590000  1
  O  O243  1  0.71816000  0.77238000  0.57590000  1
  O  O244  1  0.74900000  0.65250000  0.69390000  1
  O  O245  1  0.90460000  0.15250000  0.19390000  1
  O  O246  1  0.99054000  0.57590000  0.72762000  1
  O  O247  1  0.70594000  0.07590000  0.22762000  1
  O  O248  1  0.19420000  0.48770000  0.80630000  1
  O  O249  1  0.51180000  0.98770000  0.30630000  1
  O  O250  1  0.14890000  0.14270000  0.08950000  1
  O  O251  1  0.61890000  0.64270000  0.58950000  1
  O  O252  1  0.81810000  0.19370000  0.98770000  1
  O  O253  1  0.00050000  0.69370000  0.48770000  1
  O  O254  1  0.99900000  0.55460000  0.60340000  1
  O  O255  1  0.84300000  0.05460000  0.10340000  1
  O  O256  1  0.05471000  0.09359000  0.02759000  1
  O  O257  1  0.82411000  0.59359000  0.52759000  1
  O  O258  1  0.91230000  0.42570000  0.57590000  1
  O  O259  1  0.08610000  0.92570000  0.07590000  1
