# generated using pymatgen
data_Er3PH9C11NO19
_symmetry_space_group_name_H-M   'P 1'
_cell_length_a   10.04760000
_cell_length_b   14.98690000
_cell_length_c   22.24260000
_cell_angle_alpha   90.00000000
_cell_angle_beta   90.00000000
_cell_angle_gamma   107.58600000
_symmetry_Int_Tables_number   1
_chemical_formula_structural   Er3PH9C11NO19
_chemical_formula_sum   'Er12 P4 H36 C44 N4 O76'
_cell_volume   3192.81039445
_cell_formula_units_Z   4
loop_
 _symmetry_equiv_pos_site_id
 _symmetry_equiv_pos_as_xyz
  1  'x, y, z'
loop_
 _atom_site_type_symbol
 _atom_site_label
 _atom_site_symmetry_multiplicity
 _atom_site_fract_x
 _atom_site_fract_y
 _atom_site_fract_z
 _atom_site_occupancy
  Er  Er0  1  0.02620000  0.49739000  0.14140000  1
  Er  Er1  1  0.08284000  0.25316000  0.65621000  1
  Er  Er2  1  0.24157000  0.90742000  0.01384000  1
  Er  Er3  1  0.25843000  0.59258000  0.51384000  1
  Er  Er4  1  0.41716000  0.24684000  0.15621000  1
  Er  Er5  1  0.47380000  0.00261000  0.64140000  1
  Er  Er6  1  0.52620000  0.99739000  0.35860000  1
  Er  Er7  1  0.58284000  0.75316000  0.84379000  1
  Er  Er8  1  0.74157000  0.40742000  0.48616000  1
  Er  Er9  1  0.75843000  0.09258000  0.98616000  1
  Er  Er10  1  0.91716000  0.74684000  0.34379000  1
  Er  Er11  1  0.97380000  0.50261000  0.85860000  1
  P  P12  1  0.04940000  0.34556000  0.50861000  1
  P  P13  1  0.45060000  0.15444000  0.00861000  1
  P  P14  1  0.54940000  0.84556000  0.99139000  1
  P  P15  1  0.95060000  0.65444000  0.49139000  1
  H  H16  1  0.03320000  0.86370000  0.58940000  1
  H  H17  1  0.03720000  0.93050000  0.53470000  1
  H  H18  1  0.08810000  0.84210000  0.52680000  1
  H  H19  1  0.12130000  0.29820000  0.41710000  1
  H  H20  1  0.12990000  0.18270000  0.51050000  1
  H  H21  1  0.17990000  0.31010000  0.95140000  1
  H  H22  1  0.21390000  0.08880000  0.45180000  1
  H  H23  1  0.21840000  0.15550000  0.39700000  1
  H  H24  1  0.24580000  0.32210000  0.46280000  1
  H  H25  1  0.25420000  0.17790000  0.96280000  1
  H  H26  1  0.28160000  0.34450000  0.89700000  1
  H  H27  1  0.28610000  0.41120000  0.95180000  1
  H  H28  1  0.32010000  0.18990000  0.45140000  1
  H  H29  1  0.37010000  0.31730000  0.01050000  1
  H  H30  1  0.37870000  0.20180000  0.91710000  1
  H  H31  1  0.41190000  0.65790000  0.02680000  1
  H  H32  1  0.46280000  0.56950000  0.03470000  1
  H  H33  1  0.46680000  0.63630000  0.08940000  1
  H  H34  1  0.53320000  0.36370000  0.91060000  1
  H  H35  1  0.53720000  0.43050000  0.96530000  1
  H  H36  1  0.58810000  0.34210000  0.97320000  1
  H  H37  1  0.62130000  0.79820000  0.08290000  1
  H  H38  1  0.62990000  0.68270000  0.98950000  1
  H  H39  1  0.67990000  0.81010000  0.54860000  1
  H  H40  1  0.71390000  0.58880000  0.04820000  1
  H  H41  1  0.71840000  0.65550000  0.10300000  1
  H  H42  1  0.74580000  0.82210000  0.03720000  1
  H  H43  1  0.75420000  0.67790000  0.53720000  1
  H  H44  1  0.78160000  0.84450000  0.60300000  1
  H  H45  1  0.78610000  0.91120000  0.54820000  1
  H  H46  1  0.82010000  0.68990000  0.04860000  1
  H  H47  1  0.87010000  0.81730000  0.48950000  1
  H  H48  1  0.87870000  0.70180000  0.58290000  1
  H  H49  1  0.91190000  0.15790000  0.47320000  1
  H  H50  1  0.96280000  0.06950000  0.46530000  1
  H  H51  1  0.96680000  0.13630000  0.41060000  1
  C  C52  1  0.00960000  0.00090000  0.96490000  1
  C  C53  1  0.02180000  0.86660000  0.54660000  1
  C  C54  1  0.02570000  0.33600000  0.78090000  1
  C  C55  1  0.04430000  0.55200000  0.00110000  1
  C  C56  1  0.04740000  0.41930000  0.73640000  1
  C  C57  1  0.14680000  0.29020000  0.45840000  1
  C  C58  1  0.19810000  0.91610000  0.34980000  1
  C  C59  1  0.21840000  0.37070000  0.18120000  1
  C  C60  1  0.22810000  0.15260000  0.43980000  1
  C  C61  1  0.23990000  0.38190000  0.11250000  1
  C  C62  1  0.24810000  0.83040000  0.33810000  1
  C  C63  1  0.25190000  0.66960000  0.83810000  1
  C  C64  1  0.26010000  0.11810000  0.61250000  1
  C  C65  1  0.27190000  0.34740000  0.93980000  1
  C  C66  1  0.28160000  0.12930000  0.68120000  1
  C  C67  1  0.30190000  0.58390000  0.84980000  1
  C  C68  1  0.35320000  0.20980000  0.95840000  1
  C  C69  1  0.45260000  0.08070000  0.23640000  1
  C  C70  1  0.45570000  0.94800000  0.50110000  1
  C  C71  1  0.47430000  0.16400000  0.28090000  1
  C  C72  1  0.47820000  0.63340000  0.04660000  1
  C  C73  1  0.49040000  0.49910000  0.46490000  1
  C  C74  1  0.50960000  0.50090000  0.53510000  1
  C  C75  1  0.52180000  0.36660000  0.95340000  1
  C  C76  1  0.52570000  0.83600000  0.71910000  1
  C  C77  1  0.54430000  0.05200000  0.49890000  1
  C  C78  1  0.54740000  0.91930000  0.76360000  1
  C  C79  1  0.64680000  0.79020000  0.04160000  1
  C  C80  1  0.69810000  0.41610000  0.15020000  1
  C  C81  1  0.71840000  0.87070000  0.31880000  1
  C  C82  1  0.72810000  0.65260000  0.06020000  1
  C  C83  1  0.73990000  0.88190000  0.38750000  1
  C  C84  1  0.74810000  0.33040000  0.16190000  1
  C  C85  1  0.75190000  0.16960000  0.66190000  1
  C  C86  1  0.76010000  0.61810000  0.88750000  1
  C  C87  1  0.77190000  0.84740000  0.56020000  1
  C  C88  1  0.78160000  0.62930000  0.81880000  1
  C  C89  1  0.80190000  0.08390000  0.65020000  1
  C  C90  1  0.85320000  0.70980000  0.54160000  1
  C  C91  1  0.95260000  0.58070000  0.26360000  1
  C  C92  1  0.95570000  0.44800000  0.99890000  1
  C  C93  1  0.97430000  0.66400000  0.21910000  1
  C  C94  1  0.97820000  0.13340000  0.45340000  1
  C  C95  1  0.99040000  0.99910000  0.03510000  1
  N  N96  1  0.12110000  0.18950000  0.47020000  1
  N  N97  1  0.37890000  0.31050000  0.97020000  1
  N  N98  1  0.62110000  0.68950000  0.02980000  1
  N  N99  1  0.87890000  0.81050000  0.52980000  1
  O  O100  1  0.01080000  0.65070000  0.16710000  1
  O  O101  1  0.02990000  0.49240000  0.75560000  1
  O  O102  1  0.03160000  0.28960000  0.56570000  1
  O  O103  1  0.04820000  0.26340000  0.76150000  1
  O  O104  1  0.06690000  0.96300000  0.06440000  1
  O  O105  1  0.06730000  0.90080000  0.34760000  1
  O  O106  1  0.07050000  0.58810000  0.05280000  1
  O  O107  1  0.08000000  0.40410000  0.68300000  1
  O  O108  1  0.08210000  0.59090000  0.95200000  1
  O  O109  1  0.08870000  0.66090000  0.52010000  1
  O  O110  1  0.09560000  0.96440000  0.94510000  1
  O  O111  1  0.12210000  0.65500000  0.83410000  1
  O  O112  1  0.14190000  0.41440000  0.20390000  1
  O  O113  1  0.14340000  0.44380000  0.51600000  1
  O  O114  1  0.15680000  0.75280000  0.33270000  1
  O  O115  1  0.18600000  0.43530000  0.08660000  1
  O  O116  1  0.18660000  0.16490000  0.59030000  1
  O  O117  1  0.21310000  0.50890000  0.86040000  1
  O  O118  1  0.22130000  0.17950000  0.70840000  1
  O  O119  1  0.27870000  0.32050000  0.20840000  1
  O  O120  1  0.28690000  0.99110000  0.36040000  1
  O  O121  1  0.31340000  0.33510000  0.09030000  1
  O  O122  1  0.31400000  0.06470000  0.58660000  1
  O  O123  1  0.34320000  0.74720000  0.83270000  1
  O  O124  1  0.35660000  0.05620000  0.01600000  1
  O  O125  1  0.35810000  0.08560000  0.70390000  1
  O  O126  1  0.37790000  0.84500000  0.33410000  1
  O  O127  1  0.40440000  0.53560000  0.44510000  1
  O  O128  1  0.41130000  0.83910000  0.02010000  1
  O  O129  1  0.41790000  0.90910000  0.45200000  1
  O  O130  1  0.42000000  0.09590000  0.18300000  1
  O  O131  1  0.42950000  0.91190000  0.55280000  1
  O  O132  1  0.43270000  0.59920000  0.84760000  1
  O  O133  1  0.43310000  0.53700000  0.56440000  1
  O  O134  1  0.45180000  0.23660000  0.26150000  1
  O  O135  1  0.46840000  0.21040000  0.06570000  1
  O  O136  1  0.47010000  0.00760000  0.25560000  1
  O  O137  1  0.48920000  0.84930000  0.66710000  1
  O  O138  1  0.51080000  0.15070000  0.33290000  1
  O  O139  1  0.52990000  0.99240000  0.74440000  1
  O  O140  1  0.53160000  0.78960000  0.93430000  1
  O  O141  1  0.54820000  0.76340000  0.73850000  1
  O  O142  1  0.56690000  0.46300000  0.43560000  1
  O  O143  1  0.56730000  0.40080000  0.15240000  1
  O  O144  1  0.57050000  0.08810000  0.44720000  1
  O  O145  1  0.58000000  0.90410000  0.81700000  1
  O  O146  1  0.58210000  0.09090000  0.54800000  1
  O  O147  1  0.58870000  0.16090000  0.97990000  1
  O  O148  1  0.59560000  0.46440000  0.55490000  1
  O  O149  1  0.62210000  0.15500000  0.66590000  1
  O  O150  1  0.64190000  0.91440000  0.29610000  1
  O  O151  1  0.64340000  0.94380000  0.98400000  1
  O  O152  1  0.65680000  0.25280000  0.16730000  1
  O  O153  1  0.68600000  0.93530000  0.41340000  1
  O  O154  1  0.68660000  0.66490000  0.90970000  1
  O  O155  1  0.71310000  0.00890000  0.63960000  1
  O  O156  1  0.72130000  0.67950000  0.79160000  1
  O  O157  1  0.77870000  0.82050000  0.29160000  1
  O  O158  1  0.78690000  0.49110000  0.13960000  1
  O  O159  1  0.81340000  0.83510000  0.40970000  1
  O  O160  1  0.81400000  0.56470000  0.91340000  1
  O  O161  1  0.84320000  0.24720000  0.66730000  1
  O  O162  1  0.85660000  0.55620000  0.48400000  1
  O  O163  1  0.85810000  0.58560000  0.79610000  1
  O  O164  1  0.87790000  0.34500000  0.16590000  1
  O  O165  1  0.90440000  0.03560000  0.05490000  1
  O  O166  1  0.91130000  0.33910000  0.47990000  1
  O  O167  1  0.91790000  0.40910000  0.04800000  1
  O  O168  1  0.92000000  0.59590000  0.31700000  1
  O  O169  1  0.92950000  0.41190000  0.94720000  1
  O  O170  1  0.93270000  0.09920000  0.65240000  1
  O  O171  1  0.93310000  0.03700000  0.93560000  1
  O  O172  1  0.95180000  0.73660000  0.23850000  1
  O  O173  1  0.96840000  0.71040000  0.43430000  1
  O  O174  1  0.97010000  0.50760000  0.24440000  1
  O  O175  1  0.98920000  0.34930000  0.83290000  1
