# generated using pymatgen
data_ZnH16C20(NO2)2
_symmetry_space_group_name_H-M   'P 1'
_cell_length_a   9.47920000
_cell_length_b   11.36580000
_cell_length_c   22.12650000
_cell_angle_alpha   102.43400000
_cell_angle_beta   90.00000000
_cell_angle_gamma   114.64600000
_symmetry_Int_Tables_number   1
_chemical_formula_structural   ZnH16C20(NO2)2
_chemical_formula_sum   'Zn4 H64 C80 N8 O16'
_cell_volume   2105.03723025
_cell_formula_units_Z   4
loop_
 _symmetry_equiv_pos_site_id
 _symmetry_equiv_pos_as_xyz
  1  'x, y, z'
loop_
 _atom_site_type_symbol
 _atom_site_label
 _atom_site_symmetry_multiplicity
 _atom_site_fract_x
 _atom_site_fract_y
 _atom_site_fract_z
 _atom_site_occupancy
  Zn  Zn0  1  0.07894000  0.66650000  0.62011000  1
  Zn  Zn1  1  0.41244000  0.33350000  0.87989000  1
  Zn  Zn2  1  0.58756000  0.66650000  0.12011000  1
  Zn  Zn3  1  0.92106000  0.33350000  0.37989000  1
  H  H4  1  0.00560000  0.05040000  0.10480000  1
  H  H5  1  0.01750000  0.21480000  0.52420000  1
  H  H6  1  0.02410000  0.41160000  0.14800000  1
  H  H7  1  0.03660000  0.60500000  0.45410000  1
  H  H8  1  0.03920000  0.17100000  0.70140000  1
  H  H9  1  0.04480000  0.05040000  0.60480000  1
  H  H10  1  0.08980000  0.87480000  0.97210000  1
  H  H11  1  0.12550000  0.26600000  0.30070000  1
  H  H12  1  0.13180000  0.17100000  0.20140000  1
  H  H13  1  0.13670000  0.72380000  0.04470000  1
  H  H14  1  0.14050000  0.26600000  0.80070000  1
  H  H15  1  0.15550000  0.80200000  0.91920000  1
  H  H16  1  0.16650000  0.98920000  0.59460000  1
  H  H17  1  0.17730000  0.01080000  0.90540000  1
  H  H18  1  0.19730000  0.21480000  0.02420000  1
  H  H19  1  0.21500000  0.12520000  0.52790000  1
  H  H20  1  0.25760000  0.61200000  0.98330000  1
  H  H21  1  0.26220000  0.82300000  0.46340000  1
  H  H22  1  0.26300000  0.58800000  0.16650000  1
  H  H23  1  0.30780000  0.80740000  0.72950000  1
  H  H24  1  0.31100000  0.90260000  0.82950000  1
  H  H25  1  0.32500000  0.58800000  0.66650000  1
  H  H26  1  0.35350000  0.19800000  0.58080000  1
  H  H27  1  0.35440000  0.61200000  0.48330000  1
  H  H28  1  0.38750000  0.41160000  0.64800000  1
  H  H29  1  0.39740000  0.96140000  0.40180000  1
  H  H30  1  0.40840000  0.09740000  0.67050000  1
  H  H31  1  0.41290000  0.27620000  0.45530000  1
  H  H32  1  0.43160000  0.39500000  0.04590000  1
  H  H33  1  0.43600000  0.03860000  0.09820000  1
  H  H34  1  0.43920000  0.17700000  0.03660000  1
  H  H35  1  0.49960000  0.80740000  0.22950000  1
  H  H36  1  0.50040000  0.19260000  0.77050000  1
  H  H37  1  0.56080000  0.82300000  0.96340000  1
  H  H38  1  0.56400000  0.96140000  0.90180000  1
  H  H39  1  0.56840000  0.60500000  0.95410000  1
  H  H40  1  0.58710000  0.72380000  0.54470000  1
  H  H41  1  0.59160000  0.90260000  0.32950000  1
  H  H42  1  0.60260000  0.03860000  0.59820000  1
  H  H43  1  0.61250000  0.58840000  0.35200000  1
  H  H44  1  0.64560000  0.38800000  0.51670000  1
  H  H45  1  0.64650000  0.80200000  0.41920000  1
  H  H46  1  0.67500000  0.41200000  0.33350000  1
  H  H47  1  0.68900000  0.09740000  0.17050000  1
  H  H48  1  0.69220000  0.19260000  0.27050000  1
  H  H49  1  0.73700000  0.41200000  0.83350000  1
  H  H50  1  0.73780000  0.17700000  0.53660000  1
  H  H51  1  0.74240000  0.38800000  0.01670000  1
  H  H52  1  0.78500000  0.87480000  0.47210000  1
  H  H53  1  0.80270000  0.78520000  0.97580000  1
  H  H54  1  0.82270000  0.98920000  0.09460000  1
  H  H55  1  0.83350000  0.01080000  0.40540000  1
  H  H56  1  0.84450000  0.19800000  0.08080000  1
  H  H57  1  0.85950000  0.73400000  0.19930000  1
  H  H58  1  0.86330000  0.27620000  0.95530000  1
  H  H59  1  0.86820000  0.82900000  0.79860000  1
  H  H60  1  0.87450000  0.73400000  0.69930000  1
  H  H61  1  0.91020000  0.12520000  0.02790000  1
  H  H62  1  0.95520000  0.94960000  0.39520000  1
  H  H63  1  0.96080000  0.82900000  0.29860000  1
  H  H64  1  0.96340000  0.39500000  0.54590000  1
  H  H65  1  0.97590000  0.58840000  0.85200000  1
  H  H66  1  0.98250000  0.78520000  0.47580000  1
  H  H67  1  0.99440000  0.94960000  0.89520000  1
  C  C68  1  0.03572000  0.23084000  0.27324000  1
  C  C69  1  0.04066000  0.17532000  0.21463000  1
  C  C70  1  0.05021000  0.39902000  0.56738000  1
  C  C71  1  0.07268000  0.43296000  0.96308000  1
  C  C72  1  0.07308000  0.83076000  0.92830000  1
  C  C73  1  0.08159000  0.28958000  0.08437000  1
  C  C74  1  0.08176000  0.63332000  0.02656000  1
  C  C75  1  0.08229000  0.28998000  0.55421000  1
  C  C76  1  0.08388000  0.92896000  0.89042000  1
  C  C77  1  0.08827000  0.87454000  0.82543000  1
  C  C78  1  0.10581000  0.40482000  0.12653000  1
  C  C79  1  0.13466000  0.17532000  0.71463000  1
  C  C80  1  0.15046000  0.35872000  0.92404000  1
  C  C81  1  0.15384000  0.56688000  0.99002000  1
  C  C82  1  0.15492000  0.07104000  0.60958000  1
  C  C83  1  0.19512000  0.23084000  0.77324000  1
  C  C84  1  0.20769000  0.28998000  0.05421000  1
  C  C85  1  0.20799000  0.28958000  0.58437000  1
  C  C86  1  0.20826000  0.35872000  0.42404000  1
  C  C87  1  0.21373000  0.12546000  0.67457000  1
  C  C88  1  0.21740000  0.81140000  0.74396000  1
  C  C89  1  0.21946000  0.86752000  0.80301000  1
  C  C90  1  0.24232000  0.16924000  0.57170000  1
  C  C91  1  0.25042000  0.51084000  0.13747000  1
  C  C92  1  0.26042000  0.51084000  0.63747000  1
  C  C93  1  0.29901000  0.40482000  0.62653000  1
  C  C94  1  0.32658000  0.83076000  0.57637000  1
  C  C95  1  0.34881000  0.39902000  0.06738000  1
  C  C96  1  0.35194000  0.13248000  0.69699000  1
  C  C97  1  0.35818000  0.89436000  0.47869000  1
  C  C98  1  0.36028000  0.43296000  0.46308000  1
  C  C99  1  0.40600000  0.18860000  0.75604000  1
  C  C100  1  0.41304000  0.56688000  0.49002000  1
  C  C101  1  0.41817000  0.91734000  0.53647000  1
  C  C102  1  0.43932000  0.97684000  0.44230000  1
  C  C103  1  0.44844000  0.36668000  0.47344000  1
  C  C104  1  0.46248000  0.02316000  0.05770000  1
  C  C105  1  0.46382000  0.10564000  0.02131000  1
  C  C106  1  0.49582000  0.16924000  0.92363000  1
  C  C107  1  0.49917000  0.91734000  0.03647000  1
  C  C108  1  0.50083000  0.08266000  0.96353000  1
  C  C109  1  0.50418000  0.83076000  0.07637000  1
  C  C110  1  0.53618000  0.89436000  0.97869000  1
  C  C111  1  0.53752000  0.97684000  0.94230000  1
  C  C112  1  0.55156000  0.63332000  0.52656000  1
  C  C113  1  0.56068000  0.02316000  0.55770000  1
  C  C114  1  0.58183000  0.08266000  0.46353000  1
  C  C115  1  0.58696000  0.43312000  0.50998000  1
  C  C116  1  0.59400000  0.81140000  0.24396000  1
  C  C117  1  0.63972000  0.56704000  0.53692000  1
  C  C118  1  0.64182000  0.10564000  0.52131000  1
  C  C119  1  0.64806000  0.86752000  0.30301000  1
  C  C120  1  0.65119000  0.60098000  0.93262000  1
  C  C121  1  0.67342000  0.16924000  0.42363000  1
  C  C122  1  0.70099000  0.59518000  0.37347000  1
  C  C123  1  0.73958000  0.48916000  0.36253000  1
  C  C124  1  0.74958000  0.48916000  0.86253000  1
  C  C125  1  0.75768000  0.83076000  0.42830000  1
  C  C126  1  0.78054000  0.13248000  0.19699000  1
  C  C127  1  0.78260000  0.18860000  0.25604000  1
  C  C128  1  0.78627000  0.87454000  0.32543000  1
  C  C129  1  0.79174000  0.64128000  0.57596000  1
  C  C130  1  0.79201000  0.71042000  0.41563000  1
  C  C131  1  0.79231000  0.71002000  0.94579000  1
  C  C132  1  0.80488000  0.76916000  0.22676000  1
  C  C133  1  0.84508000  0.92896000  0.39042000  1
  C  C134  1  0.84616000  0.43312000  0.00998000  1
  C  C135  1  0.84954000  0.64128000  0.07596000  1
  C  C136  1  0.86534000  0.82468000  0.28537000  1
  C  C137  1  0.89419000  0.59518000  0.87347000  1
  C  C138  1  0.91173000  0.12546000  0.17457000  1
  C  C139  1  0.91612000  0.07104000  0.10958000  1
  C  C140  1  0.91771000  0.71002000  0.44579000  1
  C  C141  1  0.91824000  0.36668000  0.97344000  1
  C  C142  1  0.91841000  0.71042000  0.91563000  1
  C  C143  1  0.92692000  0.16924000  0.07170000  1
  C  C144  1  0.92732000  0.56704000  0.03692000  1
  C  C145  1  0.94979000  0.60098000  0.43262000  1
  C  C146  1  0.95934000  0.82468000  0.78537000  1
  C  C147  1  0.96428000  0.76916000  0.72676000  1
  N  N148  1  0.09129000  0.76152000  0.70562000  1
  N  N149  1  0.13639000  0.50966000  0.60905000  1
  N  N150  1  0.32977000  0.23848000  0.79438000  1
  N  N151  1  0.37327000  0.50966000  0.10905000  1
  N  N152  1  0.62673000  0.49034000  0.89095000  1
  N  N153  1  0.67023000  0.76152000  0.20562000  1
  N  N154  1  0.86361000  0.49034000  0.39095000  1
  N  N155  1  0.90871000  0.23848000  0.29438000  1
  O  O156  1  0.08201000  0.23780000  0.90459000  1
  O  O157  1  0.14045000  0.43002000  0.41350000  1
  O  O158  1  0.15579000  0.23780000  0.40459000  1
  O  O159  1  0.18237000  0.76166000  0.56003000  1
  O  O160  1  0.28957000  0.43002000  0.91350000  1
  O  O161  1  0.39064000  0.83164000  0.62329000  1
  O  O162  1  0.42071000  0.23834000  0.93997000  1
  O  O163  1  0.44100000  0.83164000  0.12329000  1
  O  O164  1  0.55900000  0.16836000  0.87671000  1
  O  O165  1  0.57929000  0.76166000  0.06003000  1
  O  O166  1  0.60936000  0.16836000  0.37671000  1
  O  O167  1  0.71043000  0.56998000  0.08650000  1
  O  O168  1  0.81763000  0.23834000  0.43997000  1
  O  O169  1  0.84421000  0.76220000  0.59541000  1
  O  O170  1  0.85955000  0.56998000  0.58650000  1
  O  O171  1  0.91799000  0.76220000  0.09541000  1
