# generated using pymatgen
data_LaH9C15O8
_symmetry_space_group_name_H-M   'P 1'
_cell_length_a   9.48000000
_cell_length_b   9.96800000
_cell_length_c   11.25500000
_cell_angle_alpha   92.32900000
_cell_angle_beta   98.80400000
_cell_angle_gamma   110.79600000
_symmetry_Int_Tables_number   1
_chemical_formula_structural   LaH9C15O8
_chemical_formula_sum   'La2 H18 C30 O16'
_cell_volume   977.34807070
_cell_formula_units_Z   2
loop_
 _symmetry_equiv_pos_site_id
 _symmetry_equiv_pos_as_xyz
  1  'x, y, z'
loop_
 _atom_site_type_symbol
 _atom_site_label
 _atom_site_symmetry_multiplicity
 _atom_site_fract_x
 _atom_site_fract_y
 _atom_site_fract_z
 _atom_site_occupancy
  La  La0  1  0.28370000  0.04439000  0.98478000  1
  La  La1  1  0.71630000  0.95561000  0.01522000  1
  H  H2  1  0.06120000  0.10380000  0.43420000  1
  H  H3  1  0.07980000  0.63630000  0.84100000  1
  H  H4  1  0.09400000  0.01300000  0.20400000  1
  H  H5  1  0.15080000  0.22560000  0.62710000  1
  H  H6  1  0.16310000  0.58720000  0.43040000  1
  H  H7  1  0.19720000  0.78050000  0.21640000  1
  H  H8  1  0.23200000  0.13300000  0.20900000  1
  H  H9  1  0.25050000  0.70930000  0.62330000  1
  H  H10  1  0.32400000  0.49430000  0.04220000  1
  H  H11  1  0.67600000  0.50570000  0.95780000  1
  H  H12  1  0.74950000  0.29070000  0.37670000  1
  H  H13  1  0.76800000  0.86700000  0.79100000  1
  H  H14  1  0.80280000  0.21950000  0.78360000  1
  H  H15  1  0.83690000  0.41280000  0.56960000  1
  H  H16  1  0.84920000  0.77440000  0.37290000  1
  H  H17  1  0.90600000  0.98700000  0.79600000  1
  H  H18  1  0.92020000  0.36370000  0.15900000  1
  H  H19  1  0.93880000  0.89620000  0.56580000  1
  C  C20  1  0.00060000  0.67230000  0.38260000  1
  C  C21  1  0.01200000  0.43630000  0.15200000  1
  C  C22  1  0.01550000  0.16470000  0.46170000  1
  C  C23  1  0.04830000  0.57470000  0.20470000  1
  C  C24  1  0.06920000  0.23730000  0.57720000  1
  C  C25  1  0.07600000  0.25630000  0.02950000  1
  C  C26  1  0.10520000  0.81750000  0.61240000  1
  C  C27  1  0.11480000  0.40650000  0.08800000  1
  C  C28  1  0.11910000  0.65000000  0.45700000  1
  C  C29  1  0.16850000  0.90360000  0.73540000  1
  C  C30  1  0.17100000  0.72330000  0.57230000  1
  C  C31  1  0.17910000  0.68600000  0.18770000  1
  C  C32  1  0.25230000  0.51510000  0.07980000  1
  C  C33  1  0.28250000  0.65530000  0.12790000  1
  C  C34  1  0.42680000  0.77230000  0.10880000  1
  C  C35  1  0.57320000  0.22770000  0.89120000  1
  C  C36  1  0.71750000  0.34470000  0.87210000  1
  C  C37  1  0.74770000  0.48490000  0.92020000  1
  C  C38  1  0.82090000  0.31400000  0.81230000  1
  C  C39  1  0.82900000  0.27670000  0.42770000  1
  C  C40  1  0.83150000  0.09640000  0.26460000  1
  C  C41  1  0.88090000  0.35000000  0.54300000  1
  C  C42  1  0.88520000  0.59350000  0.91200000  1
  C  C43  1  0.89480000  0.18250000  0.38760000  1
  C  C44  1  0.92400000  0.74370000  0.97050000  1
  C  C45  1  0.93080000  0.76270000  0.42280000  1
  C  C46  1  0.95170000  0.42530000  0.79530000  1
  C  C47  1  0.98450000  0.83530000  0.53830000  1
  C  C48  1  0.98800000  0.56370000  0.84800000  1
  C  C49  1  0.99940000  0.32770000  0.61740000  1
  O  O50  1  0.05190000  0.83490000  0.97290000  1
  O  O51  1  0.05670000  0.39750000  0.73360000  1
  O  O52  1  0.11320000  0.99320000  0.76800000  1
  O  O53  1  0.18220000  0.23380000  0.98430000  1
  O  O54  1  0.18840000  0.03990000  0.19140000  1
  O  O55  1  0.27810000  0.88240000  0.80240000  1
  O  O56  1  0.42310000  0.89430000  0.08050000  1
  O  O57  1  0.45060000  0.25160000  0.87980000  1
  O  O58  1  0.54940000  0.74840000  0.12020000  1
  O  O59  1  0.57690000  0.10570000  0.91950000  1
  O  O60  1  0.72190000  0.11760000  0.19760000  1
  O  O61  1  0.81160000  0.96010000  0.80860000  1
  O  O62  1  0.81780000  0.76620000  0.01570000  1
  O  O63  1  0.88680000  0.00680000  0.23200000  1
  O  O64  1  0.94330000  0.60250000  0.26640000  1
  O  O65  1  0.94810000  0.16510000  0.02710000  1
