# generated using pymatgen
data_Cu2H21C22(NO2)5
_symmetry_space_group_name_H-M   'P 1'
_cell_length_a   16.25942381
_cell_length_b   16.25942381
_cell_length_c   18.36400000
_cell_angle_alpha   100.76649192
_cell_angle_beta   100.76649192
_cell_angle_gamma   90.58306935
_symmetry_Int_Tables_number   1
_chemical_formula_structural   Cu2H21C22(NO2)5
_chemical_formula_sum   'Cu8 H84 C88 N20 O40'
_cell_volume   4680.33779429
_cell_formula_units_Z   4
loop_
 _symmetry_equiv_pos_site_id
 _symmetry_equiv_pos_as_xyz
  1  'x, y, z'
loop_
 _atom_site_type_symbol
 _atom_site_label
 _atom_site_symmetry_multiplicity
 _atom_site_fract_x
 _atom_site_fract_y
 _atom_site_fract_z
 _atom_site_occupancy
  C  C0  1  0.63731000  0.34391000  0.11790000  1
  C  C1  1  0.34391000  0.63731000  0.61790000  1
  C  C2  1  0.70880000  0.25100000  0.77530000  1
  C  C3  1  0.25100000  0.70880000  0.27530000  1
  C  C4  1  0.65190000  0.29250000  0.81300000  1
  C  C5  1  0.29250000  0.65190000  0.31300000  1
  C  C6  1  0.78850000  0.15182000  0.22250000  1
  C  C7  1  0.15182000  0.78850000  0.72250000  1
  C  C8  1  0.61557000  0.31591000  0.43100000  1
  C  C9  1  0.31591000  0.61557000  0.93100000  1
  C  C10  1  0.79523000  0.13343000  0.14740000  1
  C  C11  1  0.13343000  0.79523000  0.64740000  1
  C  C12  1  0.72760000  0.17460000  0.78970000  1
  C  C13  1  0.17460000  0.72760000  0.28970000  1
  C  C14  1  0.61380000  0.25420000  0.86000000  1
  C  C15  1  0.25420000  0.61380000  0.36000000  1
  C  C16  1  0.59831000  0.25817000  0.07920000  1
  C  C17  1  0.25817000  0.59831000  0.57920000  1
  C  C18  1  0.72171000  0.11451000  0.24090000  1
  C  C19  1  0.11451000  0.72171000  0.74090000  1
  C  C20  1  0.68790000  0.13830000  0.83670000  1
  C  C21  1  0.13830000  0.68790000  0.33670000  1
  C  C22  1  0.73754000  0.07854000  0.09610000  1
  C  C23  1  0.07854000  0.73754000  0.59610000  1
  C  C24  1  0.46545000  0.33687000  0.40310000  1
  C  C25  1  0.33687000  0.46545000  0.90310000  1
  C  C26  1  0.66547000  0.06227000  0.18720000  1
  C  C27  1  0.06227000  0.66547000  0.68720000  1
  C  C28  1  0.51971000  0.20667000  0.34710000  1
  C  C29  1  0.20667000  0.51971000  0.84710000  1
  C  C30  1  0.35896000  0.31466000  0.87170000  1
  C  C31  1  0.31466000  0.35896000  0.37170000  1
  C  C32  1  0.33755000  0.26431000  0.92800000  1
  C  C33  1  0.26431000  0.33755000  0.42800000  1
  C  C34  1  0.37140000  0.22640000  0.32120000  1
  C  C35  1  0.22640000  0.37140000  0.82120000  1
  C  C36  1  0.38895000  0.18691000  0.92800000  1
  C  C37  1  0.18691000  0.38895000  0.42800000  1
  C  C38  1  0.58959000  0.97007000  0.87510000  1
  C  C39  1  0.97007000  0.58959000  0.37510000  1
  C  C40  1  0.42107000  0.11121000  0.18080000  1
  C  C41  1  0.11121000  0.42107000  0.68080000  1
  C  C42  1  0.42504000  0.09790000  0.26100000  1
  C  C43  1  0.09790000  0.42504000  0.76100000  1
  C  C44  1  0.57496000  0.90210000  0.73900000  1
  C  C45  1  0.90210000  0.57496000  0.23900000  1
  C  C46  1  0.57893000  0.88879000  0.81920000  1
  C  C47  1  0.88879000  0.57893000  0.31920000  1
  C  C48  1  0.41041000  0.02993000  0.12490000  1
  C  C49  1  0.02993000  0.41041000  0.62490000  1
  C  C50  1  0.61105000  0.81309000  0.07200000  1
  C  C51  1  0.81309000  0.61105000  0.57200000  1
  C  C52  1  0.62860000  0.77360000  0.67880000  1
  C  C53  1  0.77360000  0.62860000  0.17880000  1
  C  C54  1  0.66245000  0.73569000  0.07200000  1
  C  C55  1  0.73569000  0.66245000  0.57200000  1
  C  C56  1  0.64104000  0.68534000  0.12830000  1
  C  C57  1  0.68534000  0.64104000  0.62830000  1
  C  C58  1  0.48029000  0.79333000  0.65290000  1
  C  C59  1  0.79333000  0.48029000  0.15290000  1
  C  C60  1  0.33453000  0.93773000  0.81280000  1
  C  C61  1  0.93773000  0.33453000  0.31280000  1
  C  C62  1  0.53455000  0.66313000  0.59690000  1
  C  C63  1  0.66313000  0.53455000  0.09690000  1
  C  C64  1  0.26246000  0.92146000  0.90390000  1
  C  C65  1  0.92146000  0.26246000  0.40390000  1
  C  C66  1  0.31210000  0.86170000  0.16330000  1
  C  C67  1  0.86170000  0.31210000  0.66330000  1
  C  C68  1  0.27829000  0.88549000  0.75910000  1
  C  C69  1  0.88549000  0.27829000  0.25910000  1
  C  C70  1  0.40169000  0.74183000  0.92080000  1
  C  C71  1  0.74183000  0.40169000  0.42080000  1
  C  C72  1  0.38620000  0.74580000  0.14000000  1
  C  C73  1  0.74580000  0.38620000  0.64000000  1
  C  C74  1  0.27240000  0.82540000  0.21030000  1
  C  C75  1  0.82540000  0.27240000  0.71030000  1
  C  C76  1  0.20477000  0.86657000  0.85260000  1
  C  C77  1  0.86657000  0.20477000  0.35260000  1
  C  C78  1  0.38443000  0.68409000  0.56900000  1
  C  C79  1  0.68409000  0.38443000  0.06900000  1
  C  C80  1  0.21150000  0.84818000  0.77750000  1
  C  C81  1  0.84818000  0.21150000  0.27750000  1
  C  C82  1  0.34810000  0.70750000  0.18700000  1
  C  C83  1  0.70750000  0.34810000  0.68700000  1
  C  C84  1  0.29120000  0.74900000  0.22470000  1
  C  C85  1  0.74900000  0.29120000  0.72470000  1
  C  C86  1  0.36269000  0.65609000  0.88210000  1
  C  C87  1  0.65609000  0.36269000  0.38210000  1
  Cu  Cu88  1  0.57261500  0.12924500  0.94209000  1
  Cu  Cu89  1  0.12924000  0.57262000  0.44209000  1
  Cu  Cu90  1  0.58340000  0.97538000  0.03921000  1
  Cu  Cu91  1  0.97538000  0.58340000  0.53921000  1
  Cu  Cu92  1  0.41660000  0.02462000  0.96079000  1
  Cu  Cu93  1  0.02462000  0.41660000  0.46079000  1
  Cu  Cu94  1  0.42738000  0.87076000  0.05791000  1
  Cu  Cu95  1  0.87075500  0.42738500  0.55791000  1
  H  H96  1  0.83880000  0.15800000  0.13140000  1
  H  H97  1  0.15800000  0.83880000  0.63140000  1
  H  H98  1  0.66130000  0.32430000  0.33610000  1
  H  H99  1  0.32430000  0.66130000  0.83610000  1
  H  H100  1  0.63860000  0.34660000  0.80700000  1
  H  H101  1  0.34660000  0.63860000  0.30700000  1
  H  H102  1  0.59350000  0.38010000  0.13200000  1
  H  H103  1  0.38010000  0.59350000  0.63200000  1
  H  H104  1  0.61350000  0.35290000  0.47850000  1
  H  H105  1  0.35290000  0.61350000  0.97850000  1
  H  H106  1  0.64910000  0.26910000  0.44190000  1
  H  H107  1  0.26910000  0.64910000  0.94190000  1
  H  H108  1  0.76840000  0.14560000  0.76740000  1
  H  H109  1  0.14560000  0.76840000  0.26740000  1
  H  H110  1  0.57460000  0.28320000  0.88440000  1
  H  H111  1  0.28320000  0.57460000  0.38440000  1
  H  H112  1  0.71440000  0.12480000  0.29080000  1
  H  H113  1  0.12480000  0.71440000  0.79080000  1
  H  H114  1  0.74450000  0.06570000  0.04610000  1
  H  H115  1  0.06570000  0.74450000  0.54610000  1
  H  H116  1  0.70160000  0.08460000  0.84370000  1
  H  H117  1  0.08460000  0.70160000  0.34370000  1
  H  H118  1  0.41690000  0.33550000  0.88730000  1
  H  H119  1  0.33550000  0.41690000  0.38730000  1
  H  H120  1  0.62000000  0.03900000  0.20170000  1
  H  H121  1  0.03900000  0.62000000  0.70170000  1
  H  H122  1  0.34840000  0.29900000  0.97810000  1
  H  H123  1  0.29900000  0.34840000  0.47810000  1
  H  H124  1  0.52000000  0.11740000  0.06080000  1
  H  H125  1  0.11740000  0.52000000  0.56080000  1
  H  H126  1  0.35300000  0.27840000  0.82250000  1
  H  H127  1  0.27840000  0.35300000  0.32250000  1
  H  H128  1  0.47220000  0.14080000  0.17820000  1
  H  H129  1  0.14080000  0.47220000  0.67820000  1
  H  H130  1  0.62700000  0.92920000  0.73540000  1
  H  H131  1  0.92920000  0.62700000  0.23540000  1
  H  H132  1  0.47030000  0.06170000  0.27400000  1
  H  H133  1  0.06170000  0.47030000  0.77400000  1
  H  H134  1  0.27840000  0.24760000  0.91500000  1
  H  H135  1  0.24760000  0.27840000  0.41500000  1
  H  H136  1  0.37450000  0.14590000  0.16760000  1
  H  H137  1  0.14590000  0.37450000  0.66760000  1
  H  H138  1  0.62550000  0.85410000  0.83240000  1
  H  H139  1  0.85410000  0.62550000  0.33240000  1
  H  H140  1  0.72160000  0.75240000  0.08500000  1
  H  H141  1  0.75240000  0.72160000  0.58500000  1
  H  H142  1  0.52970000  0.93830000  0.72600000  1
  H  H143  1  0.93830000  0.52970000  0.22600000  1
  H  H144  1  0.37300000  0.07080000  0.26460000  1
  H  H145  1  0.07080000  0.37300000  0.76460000  1
  H  H146  1  0.52780000  0.85920000  0.82180000  1
  H  H147  1  0.85920000  0.52780000  0.32180000  1
  H  H148  1  0.64700000  0.72160000  0.17750000  1
  H  H149  1  0.72160000  0.64700000  0.67750000  1
  H  H150  1  0.48000000  0.88260000  0.93920000  1
  H  H151  1  0.88260000  0.48000000  0.43920000  1
  H  H152  1  0.65160000  0.70100000  0.02190000  1
  H  H153  1  0.70100000  0.65160000  0.52190000  1
  H  H154  1  0.38000000  0.96100000  0.79830000  1
  H  H155  1  0.96100000  0.38000000  0.29830000  1
  H  H156  1  0.58310000  0.66450000  0.11270000  1
  H  H157  1  0.66450000  0.58310000  0.61270000  1
  H  H158  1  0.29840000  0.91540000  0.15630000  1
  H  H159  1  0.91540000  0.29840000  0.65630000  1
  H  H160  1  0.25550000  0.93430000  0.95390000  1
  H  H161  1  0.93430000  0.25550000  0.45390000  1
  H  H162  1  0.28560000  0.87520000  0.70920000  1
  H  H163  1  0.87520000  0.28560000  0.20920000  1
  H  H164  1  0.42540000  0.71680000  0.11560000  1
  H  H165  1  0.71680000  0.42540000  0.61560000  1
  H  H166  1  0.23160000  0.85440000  0.23260000  1
  H  H167  1  0.85440000  0.23160000  0.73260000  1
  H  H168  1  0.35090000  0.73090000  0.55810000  1
  H  H169  1  0.73090000  0.35090000  0.05810000  1
  H  H170  1  0.38650000  0.64710000  0.52150000  1
  H  H171  1  0.64710000  0.38650000  0.02150000  1
  H  H172  1  0.40650000  0.61990000  0.86800000  1
  H  H173  1  0.61990000  0.40650000  0.36800000  1
  H  H174  1  0.36140000  0.65340000  0.19300000  1
  H  H175  1  0.65340000  0.36140000  0.69300000  1
  H  H176  1  0.33870000  0.67570000  0.66390000  1
  H  H177  1  0.67570000  0.33870000  0.16390000  1
  H  H178  1  0.16120000  0.84200000  0.86860000  1
  H  H179  1  0.84200000  0.16120000  0.36860000  1
  N  N180  1  0.52942000  0.28432000  0.39286000  1
  N  N181  1  0.28432000  0.52942000  0.89286000  1
  N  N182  1  0.63137000  0.17649000  0.87204000  1
  N  N183  1  0.17649000  0.63137000  0.37204000  1
  N  N184  1  0.67265000  0.04317000  0.11500000  1
  N  N185  1  0.04317000  0.67265000  0.61500000  1
  N  N186  1  0.38577000  0.30443000  0.36592000  1
  N  N187  1  0.30443000  0.38577000  0.86592000  1
  N  N188  1  0.43895000  0.17923000  0.31423000  1
  N  N189  1  0.17923000  0.43895000  0.81423000  1
  N  N190  1  0.56105000  0.82077000  0.68577000  1
  N  N191  1  0.82077000  0.56105000  0.18577000  1
  N  N192  1  0.61423000  0.69557000  0.63408000  1
  N  N193  1  0.69557000  0.61423000  0.13408000  1
  N  N194  1  0.32735000  0.95683000  0.88500000  1
  N  N195  1  0.95683000  0.32735000  0.38500000  1
  N  N196  1  0.36863000  0.82351000  0.12796000  1
  N  N197  1  0.82351000  0.36863000  0.62796000  1
  N  N198  1  0.47058000  0.71568000  0.60714000  1
  N  N199  1  0.71568000  0.47058000  0.10714000  1
  O  O200  1  0.47663000  0.40685000  0.44194000  1
  O  O201  1  0.40685000  0.47663000  0.94194000  1
  O  O202  1  0.62328000  0.22548000  0.01953000  1
  O  O203  1  0.22548000  0.62328000  0.51953000  1
  O  O204  1  0.54581000  0.22551000  0.10741000  1
  O  O205  1  0.22551000  0.54581000  0.60741000  1
  O  O206  1  0.57958000  0.16468000  0.33689000  1
  O  O207  1  0.16468000  0.57958000  0.83689000  1
  O  O208  1  0.45391000  0.18477000  0.90306000  1
  O  O209  1  0.18477000  0.45391000  0.40306000  1
  O  O210  1  0.64750000  0.98012000  0.93195000  1
  O  O211  1  0.98012000  0.64750000  0.43195000  1
  O  O212  1  0.52500000  0.07688000  0.01526000  1
  O  O213  1  0.07688000  0.52500000  0.51526000  1
  O  O214  1  0.53762000  0.02624000  0.86390000  1
  O  O215  1  0.02624000  0.53762000  0.36390000  1
  O  O216  1  0.63934000  0.87128000  0.04554000  1
  O  O217  1  0.87128000  0.63934000  0.54554000  1
  O  O218  1  0.30094000  0.20084000  0.28887000  1
  O  O219  1  0.20084000  0.30094000  0.78887000  1
  O  O220  1  0.69906000  0.79916000  0.71113000  1
  O  O221  1  0.79916000  0.69906000  0.21113000  1
  O  O222  1  0.36066000  0.12872000  0.95446000  1
  O  O223  1  0.12872000  0.36066000  0.45446000  1
  O  O224  1  0.46238000  0.97376000  0.13610000  1
  O  O225  1  0.97376000  0.46238000  0.63610000  1
  O  O226  1  0.47500000  0.92312000  0.98474000  1
  O  O227  1  0.92312000  0.47500000  0.48474000  1
  O  O228  1  0.35250000  0.01988000  0.06805000  1
  O  O229  1  0.01988000  0.35250000  0.56805000  1
  O  O230  1  0.54609000  0.81523000  0.09694000  1
  O  O231  1  0.81523000  0.54609000  0.59694000  1
  O  O232  1  0.42042000  0.83532000  0.66311000  1
  O  O233  1  0.83532000  0.42042000  0.16311000  1
  O  O234  1  0.45419000  0.77449000  0.89259000  1
  O  O235  1  0.77449000  0.45419000  0.39259000  1
  O  O236  1  0.37672000  0.77452000  0.98047000  1
  O  O237  1  0.77452000  0.37672000  0.48047000  1
  O  O238  1  0.52337000  0.59315000  0.55806000  1
  O  O239  1  0.59315000  0.52337000  0.05806000  1
