# generated using pymatgen
data_Mn3H14(C5O2)6
_symmetry_space_group_name_H-M   'P 1'
_cell_length_a   14.82290000
_cell_length_b   19.21300000
_cell_length_c   19.21301948
_cell_angle_alpha   113.62806674
_cell_angle_beta   104.90212714
_cell_angle_gamma   104.90200000
_symmetry_Int_Tables_number   1
_chemical_formula_structural   Mn3H14(C5O2)6
_chemical_formula_sum   'Mn9 H42 C90 O36'
_cell_volume   4425.25639908
_cell_formula_units_Z   3
loop_
 _symmetry_equiv_pos_site_id
 _symmetry_equiv_pos_as_xyz
  1  'x, y, z'
loop_
 _atom_site_type_symbol
 _atom_site_label
 _atom_site_symmetry_multiplicity
 _atom_site_fract_x
 _atom_site_fract_y
 _atom_site_fract_z
 _atom_site_occupancy
  Mn  Mn0  1  0.50000000  0.50000000  0.50000000  1
  Mn  Mn1  1  1.00000000  0.50000000  1.00000000  1
  Mn  Mn2  1  0.40477000  0.28611000  0.32846000  1
  Mn  Mn3  1  0.07631000  0.67154000  0.95765000  1
  Mn  Mn4  1  0.11866000  0.04235000  0.71389000  1
  Mn  Mn5  1  0.00000000  1.00000000  0.50000000  1
  Mn  Mn6  1  0.88134000  0.95765000  0.28611000  1
  Mn  Mn7  1  0.92369000  0.32846000  0.04235000  1
  Mn  Mn8  1  0.59523000  0.71389000  0.67154000  1
  H  H9  1  0.21580000  0.37850000  0.18720000  1
  H  H10  1  0.84150000  0.34250000  0.79320000  1
  H  H11  1  0.73200000  0.45100000  0.63490000  1
  H  H12  1  0.31460000  0.59380000  0.18370000  1
  H  H13  1  0.85500000  0.41800000  0.71350000  1
  H  H14  1  0.59790000  0.21980000  0.45330000  1
  H  H15  1  0.56300000  0.70450000  0.41800000  1
  H  H16  1  0.50100000  0.54930000  0.34250000  1
  H  H17  1  0.97140000  0.18720000  0.80870000  1
  H  H18  1  0.70300000  0.17690000  0.52380000  1
  H  H19  1  0.83730000  0.80870000  0.62150000  1
  H  H20  1  0.71900000  0.81610000  0.45100000  1
  H  H21  1  0.86910000  0.18370000  0.58990000  1
  H  H22  1  0.09710000  0.36510000  0.81610000  1
  H  H23  1  0.47390000  0.65310000  0.17690000  1
  H  H24  1  0.72080000  0.58990000  0.40620000  1
  H  H25  1  0.14460000  0.54670000  0.76650000  1
  H  H26  1  0.62190000  0.76650000  0.21980000  1
  H  H27  1  0.14150000  0.28650000  0.70450000  1
  H  H28  1  0.82080000  0.52380000  0.34690000  1
  H  H29  1  0.04830000  0.20680000  0.54930000  1
  H  H30  1  0.95170000  0.79320000  0.45070000  1
  H  H31  1  0.17920000  0.47620000  0.65310000  1
  H  H32  1  0.85850000  0.71350000  0.29550000  1
  H  H33  1  0.37810000  0.23350000  0.78020000  1
  H  H34  1  0.85540000  0.45330000  0.23350000  1
  H  H35  1  0.27920000  0.41010000  0.59380000  1
  H  H36  1  0.52610000  0.34690000  0.82310000  1
  H  H37  1  0.90290000  0.63490000  0.18390000  1
  H  H38  1  0.13090000  0.81630000  0.41010000  1
  H  H39  1  0.28100000  0.18390000  0.54900000  1
  H  H40  1  0.16270000  0.19130000  0.37850000  1
  H  H41  1  0.29700000  0.82310000  0.47620000  1
  H  H42  1  0.02860000  0.81280000  0.19130000  1
  H  H43  1  0.49900000  0.45070000  0.65750000  1
  H  H44  1  0.43700000  0.29550000  0.58200000  1
  H  H45  1  0.40210000  0.78020000  0.54670000  1
  H  H46  1  0.14500000  0.58200000  0.28650000  1
  H  H47  1  0.68540000  0.40620000  0.81630000  1
  H  H48  1  0.26800000  0.54900000  0.36510000  1
  H  H49  1  0.15850000  0.65750000  0.20680000  1
  H  H50  1  0.78420000  0.62150000  0.81280000  1
  C  C51  1  0.91440000  0.29820000  0.90020000  1
  C  C52  1  0.14460000  0.45800000  0.11190000  1
  C  C53  1  0.26820000  0.42970000  0.20770000  1
  C  C54  1  0.25120000  0.48640000  0.17650000  1
  C  C55  1  0.38380000  0.39800000  0.29820000  1
  C  C56  1  0.90530000  0.26660000  0.81330000  1
  C  C57  1  0.86090000  0.29980000  0.76810000  1
  C  C58  1  0.36130000  0.45330000  0.26660000  1
  C  C59  1  0.58870000  0.36220000  0.48670000  1
  C  C60  1  0.72930000  0.39740000  0.61320000  1
  C  C61  1  0.32580000  0.55940000  0.20490000  1
  C  C62  1  0.65860000  0.33700000  0.53530000  1
  C  C63  1  0.80160000  0.37750000  0.66280000  1
  C  C64  1  0.43890000  0.53170000  0.29980000  1
  C  C65  1  0.64900000  0.25920000  0.50570000  1
  C  C66  1  0.68660000  0.65390000  0.54200000  1
  C  C67  1  0.42180000  0.58510000  0.26710000  1
  C  C68  1  0.78380000  0.29220000  0.62780000  1
  C  C69  1  0.93950000  0.20770000  0.77800000  1
  C  C70  1  0.71060000  0.23200000  0.54790000  1
  C  C71  1  0.84530000  0.26710000  0.68200000  1
  C  C72  1  0.57590000  0.71470000  0.37750000  1
  C  C73  1  0.50840000  0.66440000  0.29220000  1
  C  C74  1  0.10200000  0.51330000  0.87550000  1
  C  C75  1  0.87910000  0.20490000  0.64550000  1
  C  C76  1  0.92530000  0.17650000  0.69010000  1
  C  C77  1  0.76480000  0.69010000  0.51360000  1
  C  C78  1  0.83850000  0.77800000  0.57030000  1
  C  C79  1  0.66810000  0.78420000  0.39740000  1
  C  C80  1  0.52140000  0.68410000  0.23200000  1
  C  C81  1  0.96730000  0.11190000  0.65390000  1
  C  C82  1  0.12330000  0.46470000  0.80170000  1
  C  C83  1  0.76640000  0.64550000  0.44060000  1
  C  C84  1  0.11610000  0.38680000  0.78420000  1
  C  C85  1  0.67840000  0.80170000  0.33700000  1
  C  C86  1  0.61020000  0.75350000  0.25920000  1
  C  C87  1  0.90800000  0.81330000  0.54670000  1
  C  C88  1  0.98580000  0.90020000  0.60200000  1
  C  C89  1  0.14330000  0.49430000  0.75350000  1
  C  C90  1  0.77350000  0.87550000  0.36220000  1
  C  C91  1  0.83670000  0.68200000  0.41490000  1
  C  C92  1  0.13880000  0.33720000  0.71470000  1
  C  C93  1  0.90720000  0.76810000  0.46830000  1
  C  C94  1  0.16270000  0.45210000  0.68410000  1
  C  C95  1  0.15600000  0.37220000  0.66440000  1
  C  C96  1  0.84400000  0.62780000  0.33560000  1
  C  C97  1  0.83730000  0.54790000  0.31590000  1
  C  C98  1  0.09280000  0.23190000  0.53170000  1
  C  C99  1  0.86120000  0.66280000  0.28530000  1
  C  C100  1  0.16330000  0.31800000  0.58510000  1
  C  C101  1  0.22650000  0.12450000  0.63780000  1
  C  C102  1  0.85670000  0.50570000  0.24650000  1
  C  C103  1  0.01420000  0.09980000  0.39800000  1
  C  C104  1  0.09200000  0.18670000  0.45330000  1
  C  C105  1  0.38980000  0.24650000  0.74080000  1
  C  C106  1  0.32160000  0.19830000  0.66300000  1
  C  C107  1  0.88390000  0.61320000  0.21580000  1
  C  C108  1  0.23360000  0.35450000  0.55940000  1
  C  C109  1  0.87670000  0.53530000  0.19830000  1
  C  C110  1  0.03270000  0.88810000  0.34610000  1
  C  C111  1  0.47860000  0.31590000  0.76800000  1
  C  C112  1  0.33190000  0.21580000  0.60260000  1
  C  C113  1  0.16150000  0.22200000  0.42970000  1
  C  C114  1  0.23520000  0.30990000  0.48640000  1
  C  C115  1  0.07470000  0.82350000  0.30990000  1
  C  C116  1  0.12090000  0.79510000  0.35450000  1
  C  C117  1  0.89800000  0.48670000  0.12450000  1
  C  C118  1  0.49160000  0.33560000  0.70780000  1
  C  C119  1  0.42410000  0.28530000  0.62250000  1
  C  C120  1  0.15470000  0.73290000  0.31800000  1
  C  C121  1  0.28940000  0.76800000  0.45210000  1
  C  C122  1  0.06050000  0.79230000  0.22200000  1
  C  C123  1  0.21620000  0.70780000  0.37220000  1
  C  C124  1  0.57820000  0.41490000  0.73290000  1
  C  C125  1  0.31340000  0.34610000  0.45800000  1
  C  C126  1  0.35100000  0.74080000  0.49430000  1
  C  C127  1  0.56110000  0.46830000  0.70020000  1
  C  C128  1  0.19840000  0.62250000  0.33720000  1
  C  C129  1  0.34140000  0.66300000  0.46470000  1
  C  C130  1  0.67420000  0.44060000  0.79510000  1
  C  C131  1  0.27070000  0.60260000  0.38680000  1
  C  C132  1  0.41130000  0.63780000  0.51330000  1
  C  C133  1  0.63870000  0.54670000  0.73340000  1
  C  C134  1  0.13910000  0.70020000  0.23190000  1
  C  C135  1  0.09470000  0.73340000  0.18670000  1
  C  C136  1  0.61620000  0.60200000  0.70180000  1
  C  C137  1  0.74880000  0.51360000  0.82350000  1
  C  C138  1  0.73180000  0.57030000  0.79230000  1
  C  C139  1  0.85540000  0.54200000  0.88810000  1
  C  C140  1  0.08560000  0.70180000  0.09980000  1
  O  O141  1  0.07800000  0.75310000  0.07460000  1
  O  O142  1  0.91850000  0.61130000  0.90280000  1
  O  O143  1  0.08970000  0.63460000  0.05840000  1
  O  O144  1  0.12700000  0.50310000  0.08390000  1
  O  O145  1  0.58790000  0.43040000  0.51900000  1
  O  O146  1  0.32490000  0.32150000  0.24690000  1
  O  O147  1  0.69280000  0.70850000  0.61130000  1
  O  O148  1  0.45510000  0.42380000  0.36540000  1
  O  O149  1  0.52700000  0.30440000  0.41550000  1
  O  O150  1  0.62390000  0.58080000  0.49690000  1
  O  O151  1  0.06890000  0.48100000  0.91140000  1
  O  O152  1  0.11150000  0.58450000  0.88890000  1
  O  O153  1  0.01570000  0.09720000  0.70850000  1
  O  O154  1  0.00340000  0.92540000  0.67850000  1
  O  O155  1  0.95690000  0.08390000  0.58080000  1
  O  O156  1  0.84250000  0.91140000  0.43040000  1
  O  O157  1  0.03130000  0.94160000  0.57620000  1
  O  O158  1  0.77740000  0.88890000  0.30440000  1
  O  O159  1  0.22260000  0.11110000  0.69560000  1
  O  O160  1  0.96870000  0.05840000  0.42380000  1
  O  O161  1  0.15750000  0.08860000  0.56960000  1
  O  O162  1  0.04310000  0.91610000  0.41920000  1
  O  O163  1  0.99660000  0.07460000  0.32150000  1
  O  O164  1  0.98430000  0.90280000  0.29150000  1
  O  O165  1  0.88850000  0.41550000  0.11110000  1
  O  O166  1  0.93110000  0.51900000  0.08860000  1
  O  O167  1  0.37610000  0.41920000  0.50310000  1
  O  O168  1  0.47300000  0.69560000  0.58450000  1
  O  O169  1  0.54490000  0.57620000  0.63460000  1
  O  O170  1  0.30720000  0.29150000  0.38870000  1
  O  O171  1  0.67510000  0.67850000  0.75310000  1
  O  O172  1  0.41210000  0.56960000  0.48100000  1
  O  O173  1  0.87300000  0.49690000  0.91610000  1
  O  O174  1  0.91030000  0.36540000  0.94160000  1
  O  O175  1  0.08150000  0.38870000  0.09720000  1
  O  O176  1  0.92200000  0.24690000  0.92540000  1
