# generated using pymatgen
data_TbH5C9NO8
_symmetry_space_group_name_H-M   'P 1'
_cell_length_a   13.00900000
_cell_length_b   13.77010000
_cell_length_c   15.04390000
_cell_angle_alpha   99.51300000
_cell_angle_beta   90.40200000
_cell_angle_gamma   116.52200000
_symmetry_Int_Tables_number   1
_chemical_formula_structural   TbH5C9NO8
_chemical_formula_sum   'Tb4 H20 C36 N4 O32'
_cell_volume   2368.13641108
_cell_formula_units_Z   4
loop_
 _symmetry_equiv_pos_site_id
 _symmetry_equiv_pos_as_xyz
  1  'x, y, z'
loop_
 _atom_site_type_symbol
 _atom_site_label
 _atom_site_symmetry_multiplicity
 _atom_site_fract_x
 _atom_site_fract_y
 _atom_site_fract_z
 _atom_site_occupancy
  Tb  Tb0  1  0.00908000  0.14873000  0.03970000  1
  Tb  Tb1  1  0.35606000  0.85596000  0.46486000  1
  Tb  Tb2  1  0.64394000  0.14404000  0.53514000  1
  Tb  Tb3  1  0.99092000  0.85127000  0.96030000  1
  H  H4  1  0.20920000  0.98430000  0.72850000  1
  H  H5  1  0.26690000  0.97600000  0.23430000  1
  H  H6  1  0.28980000  0.28390000  0.87410000  1
  H  H7  1  0.30020000  0.22760000  0.11420000  1
  H  H8  1  0.37290000  0.45810000  0.84760000  1
  H  H9  1  0.38530000  0.41260000  0.13480000  1
  H  H10  1  0.45090000  0.44480000  0.92040000  1
  H  H11  1  0.46440000  0.37030000  0.07950000  1
  H  H12  1  0.47780000  0.71840000  0.67500000  1
  H  H13  1  0.48360000  0.25330000  0.67590000  1
  H  H14  1  0.51640000  0.74670000  0.32410000  1
  H  H15  1  0.52220000  0.28160000  0.32500000  1
  H  H16  1  0.53560000  0.62970000  0.92050000  1
  H  H17  1  0.54910000  0.55520000  0.07960000  1
  H  H18  1  0.61470000  0.58740000  0.86520000  1
  H  H19  1  0.62710000  0.54190000  0.15240000  1
  H  H20  1  0.69980000  0.77240000  0.88580000  1
  H  H21  1  0.71020000  0.71610000  0.12590000  1
  H  H22  1  0.73310000  0.02400000  0.76570000  1
  H  H23  1  0.79080000  0.01570000  0.27150000  1
  C  C24  1  0.13670000  0.07460000  0.86700000  1
  C  C25  1  0.17090000  0.01330000  0.09560000  1
  C  C26  1  0.23760000  0.12540000  0.81010000  1
  C  C27  1  0.25660000  0.06020000  0.74050000  1
  C  C28  1  0.26970000  0.08970000  0.16290000  1
  C  C29  1  0.30560000  0.05050000  0.23080000  1
  C  C30  1  0.30690000  0.23970000  0.82910000  1
  C  C31  1  0.32700000  0.20100000  0.15720000  1
  C  C32  1  0.34880000  0.10760000  0.68600000  1
  C  C33  1  0.36430000  0.03460000  0.60860000  1
  C  C34  1  0.39970000  0.28620000  0.78120000  1
  C  C35  1  0.40020000  0.12320000  0.29380000  1
  C  C36  1  0.42090000  0.22080000  0.70880000  1
  C  C37  1  0.42490000  0.27290000  0.21640000  1
  C  C38  1  0.43790000  0.07800000  0.36190000  1
  C  C39  1  0.44930000  0.46580000  0.86220000  1
  C  C40  1  0.45860000  0.23320000  0.28450000  1
  C  C41  1  0.46180000  0.41710000  0.13430000  1
  C  C42  1  0.53820000  0.58290000  0.86570000  1
  C  C43  1  0.54140000  0.76680000  0.71550000  1
  C  C44  1  0.55070000  0.53420000  0.13780000  1
  C  C45  1  0.56210000  0.92200000  0.63810000  1
  C  C46  1  0.57510000  0.72710000  0.78360000  1
  C  C47  1  0.57910000  0.77920000  0.29120000  1
  C  C48  1  0.59980000  0.87680000  0.70620000  1
  C  C49  1  0.60030000  0.71380000  0.21880000  1
  C  C50  1  0.63570000  0.96540000  0.39140000  1
  C  C51  1  0.65120000  0.89240000  0.31400000  1
  C  C52  1  0.67300000  0.79900000  0.84280000  1
  C  C53  1  0.69310000  0.76030000  0.17090000  1
  C  C54  1  0.69440000  0.94950000  0.76920000  1
  C  C55  1  0.73030000  0.91030000  0.83710000  1
  C  C56  1  0.74340000  0.93980000  0.25950000  1
  C  C57  1  0.76240000  0.87460000  0.18990000  1
  C  C58  1  0.82910000  0.98670000  0.90440000  1
  C  C59  1  0.86330000  0.92540000  0.13300000  1
  N  N60  1  0.15630000  0.36390000  0.99310000  1
  N  N61  1  0.27720000  0.63660000  0.51200000  1
  N  N62  1  0.72280000  0.36340000  0.48800000  1
  N  N63  1  0.84370000  0.63610000  0.00690000  1
  O  O64  1  0.04730000  0.31720000  0.97550000  1
  O  O65  1  0.09790000  0.13610000  0.90630000  1
  O  O66  1  0.10370000  0.97450000  0.87120000  1
  O  O67  1  0.11320000  0.04890000  0.05740000  1
  O  O68  1  0.14910000  0.91130000  0.07540000  1
  O  O69  1  0.19600000  0.32130000  0.04270000  1
  O  O70  1  0.21680000  0.44560000  0.96350000  1
  O  O71  1  0.22060000  0.69290000  0.52180000  1
  O  O72  1  0.24020000  0.54840000  0.53750000  1
  O  O73  1  0.28590000  0.93900000  0.58300000  1
  O  O74  1  0.36310000  0.67140000  0.46840000  1
  O  O75  1  0.37020000  0.98500000  0.37550000  1
  O  O76  1  0.45400000  0.07320000  0.56810000  1
  O  O77  1  0.46010000  0.86230000  0.59770000  1
  O  O78  1  0.47480000  0.39740000  0.79490000  1
  O  O79  1  0.48790000  0.38160000  0.21300000  1
  O  O80  1  0.51210000  0.61840000  0.78700000  1
  O  O81  1  0.52520000  0.60260000  0.20510000  1
  O  O82  1  0.53990000  0.13770000  0.40230000  1
  O  O83  1  0.54600000  0.92680000  0.43190000  1
  O  O84  1  0.62980000  0.01500000  0.62450000  1
  O  O85  1  0.63690000  0.32860000  0.53160000  1
  O  O86  1  0.71410000  0.06100000  0.41700000  1
  O  O87  1  0.75980000  0.45160000  0.46250000  1
  O  O88  1  0.77940000  0.30710000  0.47820000  1
  O  O89  1  0.78320000  0.55440000  0.03650000  1
  O  O90  1  0.80400000  0.67870000  0.95730000  1
  O  O91  1  0.85090000  0.08870000  0.92460000  1
  O  O92  1  0.88680000  0.95110000  0.94260000  1
  O  O93  1  0.89630000  0.02550000  0.12880000  1
  O  O94  1  0.90210000  0.86390000  0.09370000  1
  O  O95  1  0.95270000  0.68280000  0.02450000  1
