# generated using pymatgen
data_FeH5C8O5
_symmetry_space_group_name_H-M   'P 1'
_cell_length_a   11.34000000
_cell_length_b   13.79800000
_cell_length_c   19.22000000
_cell_angle_alpha   110.82000000
_cell_angle_beta   90.00000000
_cell_angle_gamma   90.00000000
_symmetry_Int_Tables_number   1
_chemical_formula_structural   FeH5C8O5
_chemical_formula_sum   'Fe8 H40 C64 O40'
_cell_volume   2810.96601023
_cell_formula_units_Z   8
loop_
 _symmetry_equiv_pos_site_id
 _symmetry_equiv_pos_as_xyz
  1  'x, y, z'
loop_
 _atom_site_type_symbol
 _atom_site_label
 _atom_site_symmetry_multiplicity
 _atom_site_fract_x
 _atom_site_fract_y
 _atom_site_fract_z
 _atom_site_occupancy
  Fe  Fe0  1  0.99863000  0.25134000  0.99987000  1
  Fe  Fe1  1  0.50766000  0.99870000  0.49949000  1
  Fe  Fe2  1  0.50448000  0.24967000  0.49910000  1
  Fe  Fe3  1  0.49841000  0.74862000  0.50000000  1
  Fe  Fe4  1  0.49132000  0.49771000  0.50016000  1
  Fe  Fe5  1  0.00319000  0.50080000  0.99908000  1
  Fe  Fe6  1  0.00081000  0.00202000  0.00134000  1
  Fe  Fe7  1  0.00071000  0.75151000  0.00012000  1
  H  H8  1  0.83902000  0.86427000  0.97502000  1
  H  H9  1  0.83217000  0.35652000  0.97155000  1
  H  H10  1  0.82311000  0.07492000  0.20195000  1
  H  H11  1  0.82052000  0.38078000  0.19916000  1
  H  H12  1  0.82031000  0.56771000  0.19730000  1
  H  H13  1  0.80756000  0.87307000  0.19386000  1
  H  H14  1  0.77641000  0.18838000  0.82216000  1
  H  H15  1  0.77590000  0.69192000  0.82267000  1
  H  H16  1  0.77310000  0.38625000  0.82592000  1
  H  H17  1  0.77266000  0.88356000  0.82715000  1
  H  H18  1  0.72468000  0.13747000  0.32562000  1
  H  H19  1  0.72225000  0.44321000  0.32330000  1
  H  H20  1  0.72110000  0.62838000  0.32125000  1
  H  H21  1  0.70875000  0.93376000  0.31787000  1
  H  H22  1  0.68076000  0.12427000  0.69741000  1
  H  H23  1  0.67550000  0.81970000  0.70284000  1
  H  H24  1  0.67422000  0.62978000  0.69973000  1
  H  H25  1  0.67275000  0.32385000  0.70260000  1
  H  H26  1  0.67239000  0.12880000  0.50844000  1
  H  H27  1  0.65799000  0.63151000  0.52162000  1
  H  H28  1  0.38243000  0.66030000  0.27905000  1
  H  H29  1  0.34144000  0.86631000  0.47501000  1
  H  H30  1  0.33704000  0.35208000  0.46898000  1
  H  H31  1  0.32920000  0.17727000  0.29903000  1
  H  H32  1  0.32168000  0.87114000  0.30168000  1
  H  H33  1  0.30494000  0.06348000  0.68714000  1
  H  H34  1  0.29976000  0.36843000  0.68233000  1
  H  H35  1  0.28128000  0.59893000  0.15615000  1
  H  H36  1  0.27897000  0.38532000  0.31389000  1
  H  H37  1  0.26675000  0.56071000  0.67401000  1
  H  H38  1  0.26153000  0.86601000  0.67024000  1
  H  H39  1  0.23102000  0.11606000  0.17527000  1
  H  H40  1  0.22232000  0.81008000  0.17816000  1
  H  H41  1  0.19878000  0.12545000  0.80873000  1
  H  H42  1  0.19450000  0.43045000  0.80430000  1
  H  H43  1  0.18075000  0.32287000  0.18999000  1
  H  H44  1  0.17151000  0.62384000  0.79903000  1
  H  H45  1  0.16617000  0.92913000  0.79512000  1
  H  H46  1  0.16085000  0.64417000  0.03271000  1
  H  H47  1  0.15887000  0.12641000  0.01354000  1
  C  C48  1  0.88446000  0.18628000  0.11979000  1
  C  C49  1  0.88219000  0.68197000  0.11690000  1
  C  C50  1  0.84545000  0.57900000  0.90210000  1
  C  C51  1  0.84335000  0.07752000  0.90336000  1
  C  C52  1  0.82719000  0.22421000  0.19366000  1
  C  C53  1  0.81973000  0.71709000  0.18902000  1
  C  C54  1  0.80134000  0.15510000  0.22944000  1
  C  C55  1  0.79945000  0.32865000  0.22744000  1
  C  C56  1  0.79551000  0.64722000  0.22441000  1
  C  C57  1  0.78814000  0.82073000  0.22227000  1
  C  C58  1  0.77997000  0.54275000  0.83111000  1
  C  C59  1  0.77993000  0.03976000  0.83162000  1
  C  C60  1  0.75362000  0.10828000  0.79539000  1
  C  C61  1  0.75229000  0.61204000  0.79583000  1
  C  C62  1  0.75119000  0.93534000  0.79864000  1
  C  C63  1  0.75057000  0.43850000  0.79800000  1
  C  C64  1  0.74748000  0.18972000  0.29800000  1
  C  C65  1  0.74552000  0.36332000  0.29615000  1
  C  C66  1  0.74126000  0.68087000  0.29310000  1
  C  C67  1  0.73403000  0.85437000  0.29087000  1
  C  C68  1  0.71916000  0.29393000  0.33158000  1
  C  C69  1  0.71154000  0.78487000  0.32685000  1
  C  C70  1  0.70097000  0.07269000  0.72631000  1
  C  C71  1  0.69790000  0.89987000  0.72969000  1
  C  C72  1  0.69656000  0.57752000  0.72769000  1
  C  C73  1  0.69534000  0.40393000  0.72972000  1
  C  C74  1  0.67350000  0.96809000  0.69293000  1
  C  C75  1  0.66890000  0.47303000  0.69401000  1
  C  C76  1  0.65699000  0.33020000  0.40372000  1
  C  C77  1  0.65429000  0.82288000  0.40055000  1
  C  C78  1  0.61873000  0.92963000  0.61832000  1
  C  C79  1  0.61141000  0.43489000  0.62021000  1
  C  C80  1  0.38951000  0.56497000  0.37807000  1
  C  C81  1  0.38754000  0.06530000  0.38159000  1
  C  C82  1  0.36529000  0.17380000  0.60450000  1
  C  C83  1  0.33873000  0.58666000  0.25885000  1
  C  C84  1  0.33671000  0.52598000  0.30311000  1
  C  C85  1  0.33373000  0.67212000  0.59364000  1
  C  C86  1  0.33070000  0.02786000  0.30748000  1
  C  C87  1  0.30673000  0.09724000  0.27162000  1
  C  C88  1  0.30642000  0.21210000  0.67767000  1
  C  C89  1  0.30148000  0.92372000  0.27359000  1
  C  C90  1  0.28285000  0.55270000  0.19072000  1
  C  C91  1  0.28153000  0.42970000  0.27809000  1
  C  C92  1  0.28004000  0.14313000  0.71350000  1
  C  C93  1  0.27694000  0.31639000  0.71039000  1
  C  C94  1  0.26922000  0.70956000  0.66507000  1
  C  C95  1  0.25213000  0.06328000  0.20303000  1
  C  C96  1  0.24693000  0.88974000  0.20501000  1
  C  C97  1  0.24329000  0.64062000  0.70102000  1
  C  C98  1  0.24016000  0.81383000  0.69845000  1
  C  C99  1  0.22631000  0.39558000  0.20981000  1
  C  C100  1  0.22528000  0.45752000  0.16648000  1
  C  C101  1  0.22169000  0.17744000  0.78068000  1
  C  C102  1  0.22150000  0.95938000  0.16955000  1
  C  C103  1  0.21893000  0.35071000  0.77776000  1
  C  C104  1  0.19116000  0.67571000  0.77028000  1
  C  C105  1  0.19057000  0.28136000  0.81283000  1
  C  C106  1  0.18790000  0.84891000  0.76778000  1
  C  C107  1  0.16440000  0.78031000  0.80437000  1
  C  C108  1  0.15755000  0.42363000  0.09649000  1
  C  C109  1  0.15717000  0.92352000  0.09804000  1
  C  C110  1  0.12438000  0.31756000  0.88357000  1
  C  C111  1  0.11229000  0.81852000  0.87982000  1
  O  O112  1  0.91853000  0.87180000  0.99217000  1
  O  O113  1  0.91179000  0.36954000  0.99156000  1
  O  O114  1  0.90998000  0.09130000  0.09316000  1
  O  O115  1  0.90911000  0.58741000  0.08982000  1
  O  O116  1  0.90409000  0.74973000  0.08877000  1
  O  O117  1  0.90289000  0.25215000  0.08943000  1
  O  O118  1  0.87312000  0.51157000  0.92945000  1
  O  O119  1  0.87023000  0.17238000  0.92883000  1
  O  O120  1  0.86996000  0.67420000  0.92935000  1
  O  O121  1  0.86689000  0.01222000  0.93347000  1
  O  O122  1  0.63928000  0.26359000  0.43391000  1
  O  O123  1  0.63371000  0.75843000  0.43182000  1
  O  O124  1  0.63109000  0.91844000  0.42675000  1
  O  O125  1  0.62684000  0.42393000  0.43017000  1
  O  O126  1  0.60889000  0.99348000  0.58541000  1
  O  O127  1  0.59734000  0.33828000  0.59039000  1
  O  O128  1  0.58852000  0.12695000  0.50442000  1
  O  O129  1  0.58680000  0.83598000  0.59333000  1
  O  O130  1  0.58139000  0.50183000  0.59300000  1
  O  O131  1  0.57597000  0.62744000  0.50996000  1
  O  O132  1  0.42119000  0.87145000  0.49180000  1
  O  O133  1  0.41494000  0.36703000  0.49120000  1
  O  O134  1  0.41383000  0.66027000  0.40491000  1
  O  O135  1  0.41371000  0.16016000  0.40819000  1
  O  O136  1  0.40493000  0.99987000  0.41253000  1
  O  O137  1  0.40452000  0.49983000  0.40942000  1
  O  O138  1  0.39135000  0.07908000  0.57883000  1
  O  O139  1  0.38003000  0.23784000  0.57205000  1
  O  O140  1  0.35983000  0.57727000  0.56814000  1
  O  O141  1  0.35897000  0.73774000  0.56401000  1
  O  O142  1  0.13459000  0.49105000  0.06813000  1
  O  O143  1  0.13256000  0.99031000  0.06941000  1
  O  O144  1  0.13076000  0.82866000  0.07110000  1
  O  O145  1  0.12601000  0.33002000  0.07110000  1
  O  O146  1  0.09869000  0.25047000  0.91147000  1
  O  O147  1  0.09787000  0.41237000  0.90938000  1
  O  O148  1  0.09439000  0.75231000  0.90998000  1
  O  O149  1  0.09123000  0.91427000  0.90830000  1
  O  O150  1  0.08340000  0.63311000  0.01277000  1
  O  O151  1  0.07540000  0.12612000  0.00621000  1
