# generated using pymatgen
data_Ga9P9O37F4
_symmetry_space_group_name_H-M   'P 1'
_cell_length_a   10.07490000
_cell_length_b   17.49410000
_cell_length_c   32.39300000
_cell_angle_alpha   90.00000000
_cell_angle_beta   90.00000000
_cell_angle_gamma   90.00000000
_symmetry_Int_Tables_number   1
_chemical_formula_structural   Ga9P9O37F4
_chemical_formula_sum   'Ga36 P36 O148 F16'
_cell_volume   5709.30862296
_cell_formula_units_Z   4
loop_
 _symmetry_equiv_pos_site_id
 _symmetry_equiv_pos_as_xyz
  1  'x, y, z'
loop_
 _atom_site_type_symbol
 _atom_site_label
 _atom_site_symmetry_multiplicity
 _atom_site_fract_x
 _atom_site_fract_y
 _atom_site_fract_z
 _atom_site_occupancy
  Ga  Ga0  1  0.53538000  0.01392000  0.02560000  1
  Ga  Ga1  1  0.44141000  0.01609000  0.47561000  1
  Ga  Ga2  1  0.56059000  0.07404000  0.92055000  1
  Ga  Ga3  1  0.41799000  0.08020000  0.58125000  1
  Ga  Ga4  1  0.87423000  0.15626000  0.82191000  1
  Ga  Ga5  1  0.09414000  0.15693000  0.50610000  1
  Ga  Ga6  1  0.09885000  0.15886000  0.66766000  1
  Ga  Ga7  1  0.87555000  0.15986000  0.99250000  1
  Ga  Ga8  1  0.42093000  0.19969000  0.75887000  1
  Ga  Ga9  1  0.92093000  0.30031000  0.75887000  1
  Ga  Ga10  1  0.37555000  0.34014000  0.99250000  1
  Ga  Ga11  1  0.59885000  0.34114000  0.66766000  1
  Ga  Ga12  1  0.59414000  0.34307000  0.50610000  1
  Ga  Ga13  1  0.37423000  0.34374000  0.82191000  1
  Ga  Ga14  1  0.91799000  0.41980000  0.58125000  1
  Ga  Ga15  1  0.06059000  0.42596000  0.92055000  1
  Ga  Ga16  1  0.94141000  0.48391000  0.47561000  1
  Ga  Ga17  1  0.03538000  0.48608000  0.02560000  1
  Ga  Ga18  1  0.53538000  0.51392000  0.97440000  1
  Ga  Ga19  1  0.44141000  0.51609000  0.52439000  1
  Ga  Ga20  1  0.56059000  0.57404000  0.07945000  1
  Ga  Ga21  1  0.41799000  0.58020000  0.41875000  1
  Ga  Ga22  1  0.87423000  0.65626000  0.17809000  1
  Ga  Ga23  1  0.09414000  0.65693000  0.49390000  1
  Ga  Ga24  1  0.09885000  0.65886000  0.33234000  1
  Ga  Ga25  1  0.87555000  0.65986000  0.00750000  1
  Ga  Ga26  1  0.42093000  0.69969000  0.24113000  1
  Ga  Ga27  1  0.92093000  0.80031000  0.24113000  1
  Ga  Ga28  1  0.37555000  0.84014000  0.00750000  1
  Ga  Ga29  1  0.59885000  0.84114000  0.33234000  1
  Ga  Ga30  1  0.59414000  0.84307000  0.49390000  1
  Ga  Ga31  1  0.37423000  0.84374000  0.17809000  1
  Ga  Ga32  1  0.91799000  0.91980000  0.41875000  1
  Ga  Ga33  1  0.06059000  0.92596000  0.07945000  1
  Ga  Ga34  1  0.94141000  0.98391000  0.52439000  1
  Ga  Ga35  1  0.03538000  0.98608000  0.97440000  1
  P  P36  1  0.14130000  0.01860000  0.45188000  1
  P  P37  1  0.83440000  0.02140000  0.04666000  1
  P  P38  1  0.12580000  0.06300000  0.59057000  1
  P  P39  1  0.85440000  0.06790000  0.90707000  1
  P  P40  1  0.11460000  0.14975000  0.75867000  1
  P  P41  1  0.54730000  0.18150000  0.84055000  1
  P  P42  1  0.56050000  0.18690000  0.99637000  1
  P  P43  1  0.40890000  0.18860000  0.50369000  1
  P  P44  1  0.41150000  0.19020000  0.66274000  1
  P  P45  1  0.91150000  0.30980000  0.66274000  1
  P  P46  1  0.90890000  0.31140000  0.50369000  1
  P  P47  1  0.06050000  0.31310000  0.99637000  1
  P  P48  1  0.04730000  0.31850000  0.84055000  1
  P  P49  1  0.61460000  0.35025000  0.75867000  1
  P  P50  1  0.35440000  0.43210000  0.90707000  1
  P  P51  1  0.62580000  0.43700000  0.59057000  1
  P  P52  1  0.33440000  0.47860000  0.04666000  1
  P  P53  1  0.64130000  0.48140000  0.45188000  1
  P  P54  1  0.14130000  0.51860000  0.54812000  1
  P  P55  1  0.83440000  0.52140000  0.95334000  1
  P  P56  1  0.12580000  0.56300000  0.40943000  1
  P  P57  1  0.85440000  0.56790000  0.09293000  1
  P  P58  1  0.11460000  0.64975000  0.24133000  1
  P  P59  1  0.54730000  0.68150000  0.15945000  1
  P  P60  1  0.56050000  0.68690000  0.00363000  1
  P  P61  1  0.40890000  0.68860000  0.49631000  1
  P  P62  1  0.41150000  0.69020000  0.33726000  1
  P  P63  1  0.91150000  0.80980000  0.33726000  1
  P  P64  1  0.90890000  0.81140000  0.49631000  1
  P  P65  1  0.06050000  0.81310000  0.00363000  1
  P  P66  1  0.04730000  0.81850000  0.15945000  1
  P  P67  1  0.61460000  0.85025000  0.24133000  1
  P  P68  1  0.35440000  0.93210000  0.09293000  1
  P  P69  1  0.62580000  0.93700000  0.40943000  1
  P  P70  1  0.33440000  0.97860000  0.95334000  1
  P  P71  1  0.64130000  0.98140000  0.54812000  1
  O  O72  1  0.69240000  0.00010000  0.05860000  1
  O  O73  1  0.92910000  0.00070000  0.92540000  1
  O  O74  1  0.28850000  0.00380000  0.44140000  1
  O  O75  1  0.42270000  0.00440000  0.91690000  1
  O  O76  1  0.55620000  0.00670000  0.42730000  1
  O  O77  1  0.55950000  0.01200000  0.58570000  1
  O  O78  1  0.37530000  0.01950000  0.99300000  1
  O  O79  1  0.60250000  0.02300000  0.50820000  1
  O  O80  1  0.71210000  0.04110000  0.89290000  1
  O  O81  1  0.26630000  0.04240000  0.60580000  1
  O  O82  1  0.04290000  0.08820000  0.62930000  1
  O  O83  1  0.92550000  0.09620000  0.86820000  1
  O  O84  1  0.11620000  0.10500000  0.45610000  1
  O  O85  1  0.09100000  0.10770000  0.71660000  1
  O  O86  1  0.84800000  0.10820000  0.04180000  1
  O  O87  1  0.02630000  0.11280000  0.79190000  1
  O  O88  1  0.53720000  0.12430000  0.02950000  1
  O  O89  1  0.49210000  0.12480000  0.87220000  1
  O  O90  1  0.44060000  0.12770000  0.47240000  1
  O  O91  1  0.13820000  0.13290000  0.56140000  1
  O  O92  1  0.83430000  0.13430000  0.93770000  1
  O  O93  1  0.47290000  0.13640000  0.63090000  1
  O  O94  1  0.25980000  0.13980000  0.77120000  1
  O  O95  1  0.52620000  0.14520000  0.79720000  1
  O  O96  1  0.44110000  0.15840000  0.70560000  1
  O  O97  1  0.52490000  0.16070000  0.95200000  1
  O  O98  1  0.44880000  0.16630000  0.54880000  1
  O  O99  1  0.69610000  0.19470000  0.84680000  1
  O  O100  1  0.25890000  0.20220000  0.65540000  1
  O  O101  1  0.82650000  0.20860000  0.77020000  1
  O  O102  1  0.26170000  0.21230000  0.50240000  1
  O  O103  1  0.70560000  0.21610000  0.99710000  1
  O  O104  1  0.96760000  0.22840000  0.65840000  1
  O  O105  1  0.08500000  0.23520000  0.75110000  1
  O  O106  1  0.99530000  0.24130000  0.49240000  1
  O  O107  1  0.96890000  0.24410000  0.84350000  1
  O  O108  1  0.97060000  0.24670000  0.00700000  1
  O  O109  1  0.47060000  0.25330000  0.00700000  1
  O  O110  1  0.46890000  0.25590000  0.84350000  1
  O  O111  1  0.49530000  0.25870000  0.49240000  1
  O  O112  1  0.58500000  0.26480000  0.75110000  1
  O  O113  1  0.46760000  0.27160000  0.65840000  1
  O  O114  1  0.20560000  0.28390000  0.99710000  1
  O  O115  1  0.76170000  0.28770000  0.50240000  1
  O  O116  1  0.32650000  0.29140000  0.77020000  1
  O  O117  1  0.75890000  0.29780000  0.65540000  1
  O  O118  1  0.19610000  0.30530000  0.84680000  1
  O  O119  1  0.94880000  0.33370000  0.54880000  1
  O  O120  1  0.02490000  0.33930000  0.95200000  1
  O  O121  1  0.94110000  0.34160000  0.70560000  1
  O  O122  1  0.02620000  0.35480000  0.79720000  1
  O  O123  1  0.75980000  0.36020000  0.77120000  1
  O  O124  1  0.97290000  0.36360000  0.63090000  1
  O  O125  1  0.33430000  0.36570000  0.93770000  1
  O  O126  1  0.63820000  0.36710000  0.56140000  1
  O  O127  1  0.94060000  0.37230000  0.47240000  1
  O  O128  1  0.99210000  0.37520000  0.87220000  1
  O  O129  1  0.03720000  0.37570000  0.02950000  1
  O  O130  1  0.52630000  0.38720000  0.79190000  1
  O  O131  1  0.34800000  0.39180000  0.04180000  1
  O  O132  1  0.59100000  0.39230000  0.71660000  1
  O  O133  1  0.61620000  0.39500000  0.45610000  1
  O  O134  1  0.42550000  0.40380000  0.86820000  1
  O  O135  1  0.54290000  0.41180000  0.62930000  1
  O  O136  1  0.76630000  0.45760000  0.60580000  1
  O  O137  1  0.21210000  0.45890000  0.89290000  1
  O  O138  1  0.10250000  0.47700000  0.50820000  1
  O  O139  1  0.87530000  0.48050000  0.99300000  1
  O  O140  1  0.05950000  0.48800000  0.58570000  1
  O  O141  1  0.05620000  0.49330000  0.42730000  1
  O  O142  1  0.92270000  0.49560000  0.91690000  1
  O  O143  1  0.78850000  0.49620000  0.44140000  1
  O  O144  1  0.42910000  0.49930000  0.92540000  1
  O  O145  1  0.19240000  0.49990000  0.05860000  1
  O  O146  1  0.69240000  0.50010000  0.94140000  1
  O  O147  1  0.92910000  0.50070000  0.07460000  1
  O  O148  1  0.28850000  0.50380000  0.55860000  1
  O  O149  1  0.42270000  0.50440000  0.08310000  1
  O  O150  1  0.55620000  0.50670000  0.57270000  1
  O  O151  1  0.55950000  0.51200000  0.41430000  1
  O  O152  1  0.37530000  0.51950000  0.00700000  1
  O  O153  1  0.60250000  0.52300000  0.49180000  1
  O  O154  1  0.71210000  0.54110000  0.10710000  1
  O  O155  1  0.26630000  0.54240000  0.39420000  1
  O  O156  1  0.04290000  0.58820000  0.37070000  1
  O  O157  1  0.92550000  0.59620000  0.13180000  1
  O  O158  1  0.11620000  0.60500000  0.54390000  1
  O  O159  1  0.09100000  0.60770000  0.28340000  1
  O  O160  1  0.84800000  0.60820000  0.95820000  1
  O  O161  1  0.02630000  0.61280000  0.20810000  1
  O  O162  1  0.53720000  0.62430000  0.97050000  1
  O  O163  1  0.49210000  0.62480000  0.12780000  1
  O  O164  1  0.44060000  0.62770000  0.52760000  1
  O  O165  1  0.13820000  0.63290000  0.43860000  1
  O  O166  1  0.83430000  0.63430000  0.06230000  1
  O  O167  1  0.47290000  0.63640000  0.36910000  1
  O  O168  1  0.25980000  0.63980000  0.22880000  1
  O  O169  1  0.52620000  0.64520000  0.20280000  1
  O  O170  1  0.44110000  0.65840000  0.29440000  1
  O  O171  1  0.52490000  0.66070000  0.04800000  1
  O  O172  1  0.44880000  0.66630000  0.45120000  1
  O  O173  1  0.69610000  0.69470000  0.15320000  1
  O  O174  1  0.25890000  0.70220000  0.34460000  1
  O  O175  1  0.82650000  0.70860000  0.22980000  1
  O  O176  1  0.26170000  0.71230000  0.49760000  1
  O  O177  1  0.70560000  0.71610000  0.00290000  1
  O  O178  1  0.96760000  0.72840000  0.34160000  1
  O  O179  1  0.08500000  0.73520000  0.24890000  1
  O  O180  1  0.99530000  0.74130000  0.50760000  1
  O  O181  1  0.96890000  0.74410000  0.15650000  1
  O  O182  1  0.97060000  0.74670000  0.99300000  1
  O  O183  1  0.47060000  0.75330000  0.99300000  1
  O  O184  1  0.46890000  0.75590000  0.15650000  1
  O  O185  1  0.49530000  0.75870000  0.50760000  1
  O  O186  1  0.58500000  0.76480000  0.24890000  1
  O  O187  1  0.46760000  0.77160000  0.34160000  1
  O  O188  1  0.20560000  0.78390000  0.00290000  1
  O  O189  1  0.76170000  0.78770000  0.49760000  1
  O  O190  1  0.32650000  0.79140000  0.22980000  1
  O  O191  1  0.75890000  0.79780000  0.34460000  1
  O  O192  1  0.19610000  0.80530000  0.15320000  1
  O  O193  1  0.94880000  0.83370000  0.45120000  1
  O  O194  1  0.02490000  0.83930000  0.04800000  1
  O  O195  1  0.94110000  0.84160000  0.29440000  1
  O  O196  1  0.02620000  0.85480000  0.20280000  1
  O  O197  1  0.75980000  0.86020000  0.22880000  1
  O  O198  1  0.97290000  0.86360000  0.36910000  1
  O  O199  1  0.33430000  0.86570000  0.06230000  1
  O  O200  1  0.63820000  0.86710000  0.43860000  1
  O  O201  1  0.94060000  0.87230000  0.52760000  1
  O  O202  1  0.99210000  0.87520000  0.12780000  1
  O  O203  1  0.03720000  0.87570000  0.97050000  1
  O  O204  1  0.52630000  0.88720000  0.20810000  1
  O  O205  1  0.34800000  0.89180000  0.95820000  1
  O  O206  1  0.59100000  0.89230000  0.28340000  1
  O  O207  1  0.61620000  0.89500000  0.54390000  1
  O  O208  1  0.42550000  0.90380000  0.13180000  1
  O  O209  1  0.54290000  0.91180000  0.37070000  1
  O  O210  1  0.76630000  0.95760000  0.39420000  1
  O  O211  1  0.21210000  0.95890000  0.10710000  1
  O  O212  1  0.10250000  0.97700000  0.49180000  1
  O  O213  1  0.87530000  0.98050000  0.00700000  1
  O  O214  1  0.05950000  0.98800000  0.41430000  1
  O  O215  1  0.05620000  0.99330000  0.57270000  1
  O  O216  1  0.92270000  0.99560000  0.08310000  1
  O  O217  1  0.78850000  0.99620000  0.55860000  1
  O  O218  1  0.42910000  0.99930000  0.07460000  1
  O  O219  1  0.19240000  0.99990000  0.94140000  1
  F  F220  1  0.63130000  0.02240000  0.97170000  1
  F  F221  1  0.34940000  0.02580000  0.52950000  1
  F  F222  1  0.92900000  0.09600000  0.51520000  1
  F  F223  1  0.04160000  0.10030000  0.98410000  1
  F  F224  1  0.54160000  0.39970000  0.98410000  1
  F  F225  1  0.42900000  0.40400000  0.51520000  1
  F  F226  1  0.84940000  0.47420000  0.52950000  1
  F  F227  1  0.13130000  0.47760000  0.97170000  1
  F  F228  1  0.63130000  0.52240000  0.02830000  1
  F  F229  1  0.34940000  0.52580000  0.47050000  1
  F  F230  1  0.92900000  0.59600000  0.48480000  1
  F  F231  1  0.04160000  0.60030000  0.01590000  1
  F  F232  1  0.54160000  0.89970000  0.01590000  1
  F  F233  1  0.42900000  0.90400000  0.48480000  1
  F  F234  1  0.84940000  0.97420000  0.47050000  1
  F  F235  1  0.13130000  0.97760000  0.02830000  1
