# generated using pymatgen
data_FeH8Au2(C2N)8
_symmetry_space_group_name_H-M   'P 1'
_cell_length_a   9.35410000
_cell_length_b   15.45986120
_cell_length_c   15.45986120
_cell_angle_alpha   116.03909354
_cell_angle_beta   101.63555305
_cell_angle_gamma   101.63555305
_symmetry_Int_Tables_number   1
_chemical_formula_structural   FeH8Au2(C2N)8
_chemical_formula_sum   'Fe3 H24 Au6 C48 N24'
_cell_volume   1857.41358617
_cell_formula_units_Z   3
loop_
 _symmetry_equiv_pos_site_id
 _symmetry_equiv_pos_as_xyz
  1  'x, y, z'
loop_
 _atom_site_type_symbol
 _atom_site_label
 _atom_site_symmetry_multiplicity
 _atom_site_fract_x
 _atom_site_fract_y
 _atom_site_fract_z
 _atom_site_occupancy
  Au  Au0  1  1.00000000  0.70708000  0.29292000  1
  Au  Au1  1  1.00000000  0.29292000  0.70708000  1
  Au  Au2  1  0.70708000  0.70708000  0.41416000  1
  Au  Au3  1  0.70708000  0.41416000  0.70708000  1
  Au  Au4  1  0.29292000  0.58584000  0.29292000  1
  Au  Au5  1  0.29292000  0.29292000  0.58584000  1
  C  C6  1  0.79340000  0.60440000  0.42740000  1
  C  C7  1  0.79340000  0.42740000  0.60440000  1
  C  C8  1  0.35720000  1.00000000  0.08630000  1
  C  C9  1  0.35720000  0.08630000  1.00000000  1
  C  C10  1  0.36820000  0.90800000  0.18460000  1
  C  C11  1  0.36820000  0.18460000  0.90800000  1
  C  C12  1  0.72910000  0.08630000  0.08630000  1
  C  C13  1  0.39490000  0.00000000  0.18170000  1
  C  C14  1  0.39490000  0.18170000  0.00000000  1
  C  C15  1  0.40360000  0.91230000  0.27900000  1
  C  C16  1  0.40360000  0.27900000  0.91230000  1
  C  C17  1  0.18900000  0.82300000  0.39560000  1
  C  C18  1  0.18900000  0.39560000  0.82300000  1
  C  C19  1  0.63400000  0.82300000  0.42740000  1
  C  C20  1  0.63400000  0.42740000  0.82300000  1
  C  C21  1  0.12460000  0.72100000  0.63330000  1
  C  C22  1  0.12460000  0.63330000  0.72100000  1
  C  C23  1  0.78680000  0.18170000  0.18170000  1
  C  C24  1  0.46020000  0.09200000  0.27660000  1
  C  C25  1  0.46020000  0.27660000  0.09200000  1
  C  C26  1  0.49130000  0.08770000  0.36670000  1
  C  C27  1  0.49130000  0.36670000  0.08770000  1
  C  C28  1  0.81640000  0.27660000  0.18460000  1
  C  C29  1  0.81640000  0.18460000  0.27660000  1
  C  C30  1  0.18360000  0.81540000  0.72340000  1
  C  C31  1  0.18360000  0.72340000  0.81540000  1
  C  C32  1  0.50870000  0.91230000  0.63330000  1
  C  C33  1  0.50870000  0.63330000  0.91230000  1
  C  C34  1  0.53980000  0.90800000  0.72340000  1
  C  C35  1  0.53980000  0.72340000  0.90800000  1
  C  C36  1  0.21320000  0.81830000  0.81830000  1
  C  C37  1  0.87540000  0.36670000  0.27900000  1
  C  C38  1  0.87540000  0.27900000  0.36670000  1
  C  C39  1  0.36600000  0.17700000  0.57260000  1
  C  C40  1  0.36600000  0.57260000  0.17700000  1
  C  C41  1  0.81100000  0.17700000  0.60440000  1
  C  C42  1  0.81100000  0.60440000  0.17700000  1
  C  C43  1  0.59640000  0.08770000  0.72100000  1
  C  C44  1  0.59640000  0.72100000  0.08770000  1
  C  C45  1  0.60510000  1.00000000  0.81830000  1
  C  C46  1  0.60510000  0.81830000  0.00000000  1
  C  C47  1  0.27090000  0.91370000  0.91370000  1
  C  C48  1  0.63180000  0.09200000  0.81540000  1
  C  C49  1  0.63180000  0.81540000  0.09200000  1
  C  C50  1  0.64280000  1.00000000  0.91370000  1
  C  C51  1  0.64280000  0.91370000  0.00000000  1
  C  C52  1  0.20660000  0.57260000  0.39560000  1
  C  C53  1  0.20660000  0.39560000  0.57260000  1
  Fe  Fe54  1  1.00000000  0.50000000  0.50000000  1
  Fe  Fe55  1  0.50000000  1.00000000  0.50000000  1
  Fe  Fe56  1  0.50000000  0.50000000  0.00000000  1
  H  H57  1  0.67240000  0.87540000  0.15440000  1
  H  H58  1  0.67240000  0.15440000  0.87540000  1
  H  H59  1  0.38580000  0.85150000  0.28010000  1
  H  H60  1  0.38580000  0.28010000  0.85150000  1
  H  H61  1  0.10570000  0.71990000  0.57140000  1
  H  H62  1  0.10570000  0.57140000  0.71990000  1
  H  H63  1  0.79700000  0.12460000  0.27900000  1
  H  H64  1  0.79700000  0.27900000  0.12460000  1
  H  H65  1  0.46570000  0.85150000  0.57140000  1
  H  H66  1  0.46570000  0.57140000  0.85150000  1
  H  H67  1  0.48200000  0.27900000  0.15440000  1
  H  H68  1  0.48200000  0.15440000  0.27900000  1
  H  H69  1  0.51800000  0.84560000  0.72100000  1
  H  H70  1  0.51800000  0.72100000  0.84560000  1
  H  H71  1  0.53430000  0.14850000  0.42860000  1
  H  H72  1  0.53430000  0.42860000  0.14850000  1
  H  H73  1  0.20300000  0.87540000  0.72100000  1
  H  H74  1  0.20300000  0.72100000  0.87540000  1
  H  H75  1  0.89430000  0.42860000  0.28010000  1
  H  H76  1  0.89430000  0.28010000  0.42860000  1
  H  H77  1  0.61420000  0.14850000  0.71990000  1
  H  H78  1  0.61420000  0.71990000  0.14850000  1
  H  H79  1  0.32760000  0.12460000  0.84560000  1
  H  H80  1  0.32760000  0.84560000  0.12460000  1
  N  N81  1  0.85840000  0.55710000  0.45040000  1
  N  N82  1  0.85840000  0.45040000  0.55710000  1
  N  N83  1  0.70050000  0.00000000  0.09070000  1
  N  N84  1  0.70050000  0.09070000  1.00000000  1
  N  N85  1  0.39020000  0.09070000  0.09070000  1
  N  N86  1  0.09390000  0.63200000  0.63200000  1
  N  N87  1  0.30130000  0.89330000  0.44290000  1
  N  N88  1  0.30130000  0.44290000  0.89330000  1
  N  N89  1  0.59200000  0.89330000  0.45040000  1
  N  N90  1  0.59200000  0.45040000  0.89330000  1
  N  N91  1  0.46190000  1.00000000  0.36800000  1
  N  N92  1  0.46190000  0.36800000  0.00000000  1
  N  N93  1  0.53810000  1.00000000  0.63200000  1
  N  N94  1  0.53810000  0.63200000  0.00000000  1
  N  N95  1  0.40800000  0.10670000  0.54960000  1
  N  N96  1  0.40800000  0.54960000  0.10670000  1
  N  N97  1  0.69870000  0.10670000  0.55710000  1
  N  N98  1  0.69870000  0.55710000  0.10670000  1
  N  N99  1  0.90610000  0.36800000  0.36800000  1
  N  N100  1  0.60980000  0.90930000  0.90930000  1
  N  N101  1  0.29950000  0.00000000  0.90930000  1
  N  N102  1  0.29950000  0.90930000  0.00000000  1
  N  N103  1  0.14160000  0.54960000  0.44290000  1
  N  N104  1  0.14160000  0.44290000  0.54960000  1
