# generated using pymatgen
data_MnCr(CO2)6
_symmetry_space_group_name_H-M   'P 1'
_cell_length_a   15.49010000
_cell_length_b   15.49010000
_cell_length_c   15.49010000
_cell_angle_alpha   90.00000000
_cell_angle_beta   90.00000000
_cell_angle_gamma   90.00000000
_symmetry_Int_Tables_number   1
_chemical_formula_structural   MnCr(CO2)6
_chemical_formula_sum   'Mn4 Cr4 C24 O48'
_cell_volume   3716.74413149
_cell_formula_units_Z   4
loop_
 _symmetry_equiv_pos_site_id
 _symmetry_equiv_pos_as_xyz
  1  'x, y, z'
loop_
 _atom_site_type_symbol
 _atom_site_label
 _atom_site_symmetry_multiplicity
 _atom_site_fract_x
 _atom_site_fract_y
 _atom_site_fract_z
 _atom_site_occupancy
  Mn  Mn0  1  0.14650000  0.85350000  0.35350000  1
  Mn  Mn1  1  0.35350000  0.14650000  0.85350000  1
  Mn  Mn2  1  0.64650000  0.64650000  0.64650000  1
  Mn  Mn3  1  0.85350000  0.35350000  0.14650000  1
  Cr  Cr4  1  0.09730000  0.09730000  0.09730000  1
  Cr  Cr5  1  0.40270000  0.90270000  0.59730000  1
  Cr  Cr6  1  0.59730000  0.40270000  0.90270000  1
  Cr  Cr7  1  0.90270000  0.59730000  0.40270000  1
  C  C8  1  0.00700000  0.26300000  0.12200000  1
  C  C9  1  0.06600000  0.69500000  0.37500000  1
  C  C10  1  0.12200000  0.00700000  0.26300000  1
  C  C11  1  0.12500000  0.93400000  0.19500000  1
  C  C12  1  0.19500000  0.12500000  0.93400000  1
  C  C13  1  0.23700000  0.87800000  0.50700000  1
  C  C14  1  0.26300000  0.12200000  0.00700000  1
  C  C15  1  0.30500000  0.87500000  0.43400000  1
  C  C16  1  0.37500000  0.06600000  0.69500000  1
  C  C17  1  0.37800000  0.99300000  0.76300000  1
  C  C18  1  0.43400000  0.30500000  0.87500000  1
  C  C19  1  0.49300000  0.73700000  0.62200000  1
  C  C20  1  0.50700000  0.23700000  0.87800000  1
  C  C21  1  0.56600000  0.80500000  0.62500000  1
  C  C22  1  0.62200000  0.49300000  0.73700000  1
  C  C23  1  0.62500000  0.56600000  0.80500000  1
  C  C24  1  0.69500000  0.37500000  0.06600000  1
  C  C25  1  0.73700000  0.62200000  0.49300000  1
  C  C26  1  0.76300000  0.37800000  0.99300000  1
  C  C27  1  0.80500000  0.62500000  0.56600000  1
  C  C28  1  0.87500000  0.43400000  0.30500000  1
  C  C29  1  0.87800000  0.50700000  0.23700000  1
  C  C30  1  0.93400000  0.19500000  0.12500000  1
  C  C31  1  0.99300000  0.76300000  0.37800000  1
  O  O32  1  0.02030000  0.84210000  0.36580000  1
  O  O33  1  0.04740000  0.61800000  0.38960000  1
  O  O34  1  0.08020000  0.24000000  0.11270000  1
  O  O35  1  0.11040000  0.95260000  0.11800000  1
  O  O36  1  0.11270000  0.08020000  0.24000000  1
  O  O37  1  0.11800000  0.11040000  0.95260000  1
  O  O38  1  0.13420000  0.97970000  0.34210000  1
  O  O39  1  0.14070000  0.85670000  0.22600000  1
  O  O40  1  0.14330000  0.72600000  0.35930000  1
  O  O41  1  0.15790000  0.86580000  0.47970000  1
  O  O42  1  0.22600000  0.14070000  0.85670000  1
  O  O43  1  0.24000000  0.11270000  0.08020000  1
  O  O44  1  0.26000000  0.88730000  0.58020000  1
  O  O45  1  0.27400000  0.85930000  0.35670000  1
  O  O46  1  0.34210000  0.13420000  0.97970000  1
  O  O47  1  0.35670000  0.27400000  0.85930000  1
  O  O48  1  0.35930000  0.14330000  0.72600000  1
  O  O49  1  0.36580000  0.02030000  0.84210000  1
  O  O50  1  0.38200000  0.88960000  0.45260000  1
  O  O51  1  0.38730000  0.91980000  0.74000000  1
  O  O52  1  0.38960000  0.04740000  0.61800000  1
  O  O53  1  0.41980000  0.76000000  0.61270000  1
  O  O54  1  0.45260000  0.38200000  0.88960000  1
  O  O55  1  0.47970000  0.15790000  0.86580000  1
  O  O56  1  0.52030000  0.65790000  0.63420000  1
  O  O57  1  0.54740000  0.88200000  0.61040000  1
  O  O58  1  0.58020000  0.26000000  0.88730000  1
  O  O59  1  0.61040000  0.54740000  0.88200000  1
  O  O60  1  0.61270000  0.41980000  0.76000000  1
  O  O61  1  0.61800000  0.38960000  0.04740000  1
  O  O62  1  0.63420000  0.52030000  0.65790000  1
  O  O63  1  0.64070000  0.64330000  0.77400000  1
  O  O64  1  0.64330000  0.77400000  0.64070000  1
  O  O65  1  0.65790000  0.63420000  0.52030000  1
  O  O66  1  0.72600000  0.35930000  0.14330000  1
  O  O67  1  0.74000000  0.38730000  0.91980000  1
  O  O68  1  0.76000000  0.61270000  0.41980000  1
  O  O69  1  0.77400000  0.64070000  0.64330000  1
  O  O70  1  0.84210000  0.36580000  0.02030000  1
  O  O71  1  0.85670000  0.22600000  0.14070000  1
  O  O72  1  0.85930000  0.35670000  0.27400000  1
  O  O73  1  0.86580000  0.47970000  0.15790000  1
  O  O74  1  0.88200000  0.61040000  0.54740000  1
  O  O75  1  0.88730000  0.58020000  0.26000000  1
  O  O76  1  0.88960000  0.45260000  0.38200000  1
  O  O77  1  0.91980000  0.74000000  0.38730000  1
  O  O78  1  0.95260000  0.11800000  0.11040000  1
  O  O79  1  0.97970000  0.34210000  0.13420000  1
