# generated using pymatgen
data_AlP2C8N3O7
_symmetry_space_group_name_H-M   'P 1'
_cell_length_a   6.91500000
_cell_length_b   10.08471658
_cell_length_c   11.29500000
_cell_angle_alpha   90.42272580
_cell_angle_beta   90.00000000
_cell_angle_gamma   110.05033426
_symmetry_Int_Tables_number   1
_chemical_formula_structural   AlP2C8N3O7
_chemical_formula_sum   'Al2 P4 C16 N6 O14'
_cell_volume   739.90418590
_cell_formula_units_Z   2
loop_
 _symmetry_equiv_pos_site_id
 _symmetry_equiv_pos_as_xyz
  1  'x, y, z'
loop_
 _atom_site_type_symbol
 _atom_site_label
 _atom_site_symmetry_multiplicity
 _atom_site_fract_x
 _atom_site_fract_y
 _atom_site_fract_z
 _atom_site_occupancy
  Al  Al0  1  0.50000000  0.50000000  0.50000000  1
  Al  Al1  1  0.00000000  0.50000000  0.50000000  1
  C  C2  1  0.64500000  0.93800000  0.45500000  1
  C  C3  1  0.29300000  0.93800000  0.45500000  1
  C  C4  1  0.43100000  0.86200000  0.26200000  1
  C  C5  1  0.51800000  0.63400000  0.94600000  1
  C  C6  1  0.11600000  0.63400000  0.94600000  1
  C  C7  1  0.67200000  0.62800000  0.03400000  1
  C  C8  1  0.95600000  0.62800000  0.03400000  1
  C  C9  1  0.25100000  0.50200000  0.79400000  1
  C  C10  1  0.74900000  0.49800000  0.20600000  1
  C  C11  1  0.32800000  0.37200000  0.96600000  1
  C  C12  1  0.04400000  0.37200000  0.96600000  1
  C  C13  1  0.48200000  0.36600000  0.05400000  1
  C  C14  1  0.88400000  0.36600000  0.05400000  1
  C  C15  1  0.56900000  0.13800000  0.73800000  1
  C  C16  1  0.35500000  0.06200000  0.54500000  1
  C  C17  1  0.70700000  0.06200000  0.54500000  1
  N  N18  1  0.47400000  0.94800000  0.37800000  1
  N  N19  1  0.59800000  0.50400000  0.11500000  1
  N  N20  1  0.90600000  0.50400000  0.11500000  1
  N  N21  1  0.40200000  0.49600000  0.88500000  1
  N  N22  1  0.09400000  0.49600000  0.88500000  1
  N  N23  1  0.52600000  0.05200000  0.62200000  1
  O  O24  1  0.41100000  0.82200000  0.73000000  1
  O  O25  1  0.49700000  0.64400000  0.62000000  1
  O  O26  1  0.14700000  0.64400000  0.62000000  1
  O  O27  1  0.47600000  0.62800000  0.36500000  1
  O  O28  1  0.15200000  0.62800000  0.36500000  1
  O  O29  1  0.30000000  0.60000000  0.19300000  1
  O  O30  1  0.78500000  0.57000000  0.45900000  1
  O  O31  1  0.21500000  0.43000000  0.54100000  1
  O  O32  1  0.70000000  0.40000000  0.80700000  1
  O  O33  1  0.52400000  0.37200000  0.63500000  1
  O  O34  1  0.84800000  0.37200000  0.63500000  1
  O  O35  1  0.50300000  0.35600000  0.38000000  1
  O  O36  1  0.85300000  0.35600000  0.38000000  1
  O  O37  1  0.58900000  0.17800000  0.27000000  1
  P  P38  1  0.34000000  0.68000000  0.30500000  1
  P  P39  1  0.33200000  0.66400000  0.70500000  1
  P  P40  1  0.66800000  0.33600000  0.29500000  1
  P  P41  1  0.66000000  0.32000000  0.69500000  1
