# generated using pymatgen
data_YPH7C7NO9
_symmetry_space_group_name_H-M   'P 1'
_cell_length_a   11.35800000
_cell_length_b   14.82900000
_cell_length_c   16.32500000
_cell_angle_alpha   90.00000000
_cell_angle_beta   90.00000000
_cell_angle_gamma   90.00000000
_symmetry_Int_Tables_number   1
_chemical_formula_structural   YPH7C7NO9
_chemical_formula_sum   'Y8 P8 H56 C56 N8 O72'
_cell_volume   2749.58354115
_cell_formula_units_Z   8
loop_
 _symmetry_equiv_pos_site_id
 _symmetry_equiv_pos_as_xyz
  1  'x, y, z'
loop_
 _atom_site_type_symbol
 _atom_site_label
 _atom_site_symmetry_multiplicity
 _atom_site_fract_x
 _atom_site_fract_y
 _atom_site_fract_z
 _atom_site_occupancy
  Y  Y0  1  0.22445000  0.25503000  0.93134000  1
  Y  Y1  1  0.23280000  0.80503000  0.05452000  1
  Y  Y2  1  0.26720000  0.19497000  0.55452000  1
  Y  Y3  1  0.27555000  0.74497000  0.43134000  1
  Y  Y4  1  0.72445000  0.24497000  0.06866000  1
  Y  Y5  1  0.73280000  0.69497000  0.94548000  1
  Y  Y6  1  0.76720000  0.30503000  0.44548000  1
  Y  Y7  1  0.77555000  0.75503000  0.56866000  1
  P  P8  1  0.17860000  0.05180000  0.04687000  1
  P  P9  1  0.24340000  0.18226000  0.33253000  1
  P  P10  1  0.25660000  0.81774000  0.83253000  1
  P  P11  1  0.32140000  0.94820000  0.54687000  1
  P  P12  1  0.67860000  0.44820000  0.95313000  1
  P  P13  1  0.74340000  0.31774000  0.66747000  1
  P  P14  1  0.75660000  0.68226000  0.16747000  1
  P  P15  1  0.82140000  0.55180000  0.45313000  1
  H  H16  1  0.00280000  0.37820000  0.68010000  1
  H  H17  1  0.00500000  0.08100000  0.66170000  1
  H  H18  1  0.02320000  0.99530000  0.03290000  1
  H  H19  1  0.08930000  0.94030000  0.62430000  1
  H  H20  1  0.09140000  0.85910000  0.68580000  1
  H  H21  1  0.10250000  0.25260000  0.29720000  1
  H  H22  1  0.10940000  0.09760000  0.17690000  1
  H  H23  1  0.12940000  0.65290000  0.75930000  1
  H  H24  1  0.13000000  0.46370000  0.59520000  1
  H  H25  1  0.16630000  0.04170000  0.30390000  1
  H  H26  1  0.19960000  0.59910000  0.64000000  1
  H  H27  1  0.20040000  0.96720000  0.82600000  1
  H  H28  1  0.20850000  0.16380000  0.14770000  1
  H  H29  1  0.23640000  0.00670000  0.69410000  1
  H  H30  1  0.26360000  0.99330000  0.19410000  1
  H  H31  1  0.29150000  0.83620000  0.64770000  1
  H  H32  1  0.29960000  0.03280000  0.32600000  1
  H  H33  1  0.30040000  0.40090000  0.14000000  1
  H  H34  1  0.33370000  0.95830000  0.80390000  1
  H  H35  1  0.37000000  0.53630000  0.09520000  1
  H  H36  1  0.37060000  0.34710000  0.25930000  1
  H  H37  1  0.39060000  0.90240000  0.67690000  1
  H  H38  1  0.39750000  0.74740000  0.79720000  1
  H  H39  1  0.40860000  0.14090000  0.18580000  1
  H  H40  1  0.41070000  0.05970000  0.12430000  1
  H  H41  1  0.47680000  0.00470000  0.53290000  1
  H  H42  1  0.49500000  0.91900000  0.16170000  1
  H  H43  1  0.49720000  0.62180000  0.18010000  1
  H  H44  1  0.50280000  0.12180000  0.31990000  1
  H  H45  1  0.50500000  0.41900000  0.33830000  1
  H  H46  1  0.52320000  0.50470000  0.96710000  1
  H  H47  1  0.58930000  0.55970000  0.37570000  1
  H  H48  1  0.59140000  0.64090000  0.31420000  1
  H  H49  1  0.60250000  0.24740000  0.70280000  1
  H  H50  1  0.60940000  0.40240000  0.82310000  1
  H  H51  1  0.62940000  0.84710000  0.24070000  1
  H  H52  1  0.63000000  0.03630000  0.40480000  1
  H  H53  1  0.66630000  0.45830000  0.69610000  1
  H  H54  1  0.69960000  0.90090000  0.36000000  1
  H  H55  1  0.70040000  0.53280000  0.17400000  1
  H  H56  1  0.70850000  0.33620000  0.85230000  1
  H  H57  1  0.73640000  0.49330000  0.30590000  1
  H  H58  1  0.76360000  0.50670000  0.80590000  1
  H  H59  1  0.79150000  0.66380000  0.35230000  1
  H  H60  1  0.79960000  0.46720000  0.67400000  1
  H  H61  1  0.80040000  0.09910000  0.86000000  1
  H  H62  1  0.83370000  0.54170000  0.19610000  1
  H  H63  1  0.87000000  0.96370000  0.90480000  1
  H  H64  1  0.87060000  0.15290000  0.74070000  1
  H  H65  1  0.89060000  0.59760000  0.32310000  1
  H  H66  1  0.89750000  0.75260000  0.20280000  1
  H  H67  1  0.90860000  0.35910000  0.81420000  1
  H  H68  1  0.91070000  0.44030000  0.87570000  1
  H  H69  1  0.97680000  0.49530000  0.46710000  1
  H  H70  1  0.99500000  0.58100000  0.83830000  1
  H  H71  1  0.99720000  0.87820000  0.81990000  1
  C  C72  1  0.00190000  0.76030000  0.45660000  1
  C  C73  1  0.00580000  0.70260000  0.99150000  1
  C  C74  1  0.01250000  0.97020000  0.73320000  1
  C  C75  1  0.02420000  0.55510000  0.79060000  1
  C  C76  1  0.02680000  0.43540000  0.69630000  1
  C  C77  1  0.04160000  0.29740000  0.48780000  1
  C  C78  1  0.05050000  0.73680000  0.54100000  1
  C  C79  1  0.10230000  0.92380000  0.68110000  1
  C  C80  1  0.10600000  0.48650000  0.64560000  1
  C  C81  1  0.14520000  0.56700000  0.67110000  1
  C  C82  1  0.18660000  0.10080000  0.15160000  1
  C  C83  1  0.23820000  0.17610000  0.75040000  1
  C  C84  1  0.24360000  0.06730000  0.29390000  1
  C  C85  1  0.24640000  0.72260000  0.23710000  1
  C  C86  1  0.25360000  0.27740000  0.73710000  1
  C  C87  1  0.25640000  0.93270000  0.79390000  1
  C  C88  1  0.26180000  0.82390000  0.25040000  1
  C  C89  1  0.31340000  0.89920000  0.65160000  1
  C  C90  1  0.35480000  0.43300000  0.17110000  1
  C  C91  1  0.39400000  0.51350000  0.14560000  1
  C  C92  1  0.39770000  0.07620000  0.18110000  1
  C  C93  1  0.44950000  0.26320000  0.04100000  1
  C  C94  1  0.45840000  0.70260000  0.98780000  1
  C  C95  1  0.47320000  0.56460000  0.19630000  1
  C  C96  1  0.47580000  0.44490000  0.29060000  1
  C  C97  1  0.48750000  0.02980000  0.23320000  1
  C  C98  1  0.49420000  0.29740000  0.49150000  1
  C  C99  1  0.49810000  0.23970000  0.95660000  1
  C  C100  1  0.50190000  0.73970000  0.54340000  1
  C  C101  1  0.50580000  0.79740000  0.00850000  1
  C  C102  1  0.51250000  0.52980000  0.26680000  1
  C  C103  1  0.52420000  0.94490000  0.20940000  1
  C  C104  1  0.52680000  0.06460000  0.30370000  1
  C  C105  1  0.54160000  0.20260000  0.51220000  1
  C  C106  1  0.55050000  0.76320000  0.45900000  1
  C  C107  1  0.60230000  0.57620000  0.31890000  1
  C  C108  1  0.60600000  0.01350000  0.35440000  1
  C  C109  1  0.64520000  0.93300000  0.32890000  1
  C  C110  1  0.68660000  0.39920000  0.84840000  1
  C  C111  1  0.73820000  0.32390000  0.24960000  1
  C  C112  1  0.74360000  0.43270000  0.70610000  1
  C  C113  1  0.74640000  0.77740000  0.76290000  1
  C  C114  1  0.75360000  0.22260000  0.26290000  1
  C  C115  1  0.75640000  0.56730000  0.20610000  1
  C  C116  1  0.76180000  0.67610000  0.74960000  1
  C  C117  1  0.81340000  0.60080000  0.34840000  1
  C  C118  1  0.85480000  0.06700000  0.82890000  1
  C  C119  1  0.89400000  0.98650000  0.85440000  1
  C  C120  1  0.89770000  0.42380000  0.81890000  1
  C  C121  1  0.94950000  0.23680000  0.95900000  1
  C  C122  1  0.95840000  0.79740000  0.01220000  1
  C  C123  1  0.97320000  0.93540000  0.80370000  1
  C  C124  1  0.97580000  0.05510000  0.70940000  1
  C  C125  1  0.98750000  0.47020000  0.76680000  1
  C  C126  1  0.99420000  0.20260000  0.50850000  1
  C  C127  1  0.99810000  0.26030000  0.04340000  1
  N  N128  1  0.10440000  0.60110000  0.74300000  1
  N  N129  1  0.22720000  0.94680000  0.70420000  1
  N  N130  1  0.27280000  0.05320000  0.20420000  1
  N  N131  1  0.39560000  0.39890000  0.24300000  1
  N  N132  1  0.60440000  0.89890000  0.25700000  1
  N  N133  1  0.72720000  0.55320000  0.29580000  1
  N  N134  1  0.77280000  0.44680000  0.79580000  1
  N  N135  1  0.89560000  0.10110000  0.75700000  1
  O  O136  1  0.02580000  0.23720000  0.89920000  1
  O  O137  1  0.03080000  0.84940000  0.04880000  1
  O  O138  1  0.04560000  0.04770000  0.03020000  1
  O  O139  1  0.06570000  0.15290000  0.54320000  1
  O  O140  1  0.07750000  0.76520000  0.40080000  1
  O  O141  1  0.10650000  0.27440000  0.05070000  1
  O  O142  1  0.10660000  0.68410000  0.01320000  1
  O  O143  1  0.11050000  0.21040000  0.32910000  1
  O  O144  1  0.14250000  0.31560000  0.50680000  1
  O  O145  1  0.15470000  0.72170000  0.54800000  1
  O  O146  1  0.17710000  0.76070000  0.78210000  1
  O  O147  1  0.22240000  0.15010000  0.82190000  1
  O  O148  1  0.22620000  0.69700000  0.16520000  1
  O  O149  1  0.22710000  0.82920000  0.92030000  1
  O  O150  1  0.23190000  0.11570000  0.98750000  1
  O  O151  1  0.23540000  0.96030000  0.04990000  1
  O  O152  1  0.24010000  0.13050000  0.68650000  1
  O  O153  1  0.24930000  0.67320000  0.30070000  1
  O  O154  1  0.25070000  0.32680000  0.80070000  1
  O  O155  1  0.25990000  0.86950000  0.18650000  1
  O  O156  1  0.26460000  0.03970000  0.54990000  1
  O  O157  1  0.26810000  0.88430000  0.48750000  1
  O  O158  1  0.27290000  0.17080000  0.42030000  1
  O  O159  1  0.27380000  0.30300000  0.66520000  1
  O  O160  1  0.27760000  0.84990000  0.32190000  1
  O  O161  1  0.32290000  0.23930000  0.28210000  1
  O  O162  1  0.34530000  0.27830000  0.04800000  1
  O  O163  1  0.35750000  0.68440000  0.00680000  1
  O  O164  1  0.38950000  0.78960000  0.82910000  1
  O  O165  1  0.39340000  0.31590000  0.51320000  1
  O  O166  1  0.39350000  0.72560000  0.55070000  1
  O  O167  1  0.42250000  0.23480000  0.90080000  1
  O  O168  1  0.43430000  0.84710000  0.04320000  1
  O  O169  1  0.45440000  0.95230000  0.53020000  1
  O  O170  1  0.46920000  0.15060000  0.54880000  1
  O  O171  1  0.47420000  0.76280000  0.39920000  1
  O  O172  1  0.52580000  0.26280000  0.10080000  1
  O  O173  1  0.53080000  0.65060000  0.95120000  1
  O  O174  1  0.54560000  0.45230000  0.96980000  1
  O  O175  1  0.56570000  0.34710000  0.45680000  1
  O  O176  1  0.57750000  0.73480000  0.59920000  1
  O  O177  1  0.60650000  0.22560000  0.94930000  1
  O  O178  1  0.60660000  0.81590000  0.98680000  1
  O  O179  1  0.61050000  0.28960000  0.67090000  1
  O  O180  1  0.64250000  0.18440000  0.49320000  1
  O  O181  1  0.65470000  0.77830000  0.45200000  1
  O  O182  1  0.67710000  0.73930000  0.21790000  1
  O  O183  1  0.72240000  0.34990000  0.17810000  1
  O  O184  1  0.72620000  0.80300000  0.83480000  1
  O  O185  1  0.72710000  0.67080000  0.07970000  1
  O  O186  1  0.73190000  0.38430000  0.01250000  1
  O  O187  1  0.73540000  0.53970000  0.95010000  1
  O  O188  1  0.74010000  0.36950000  0.31350000  1
  O  O189  1  0.74930000  0.82680000  0.69930000  1
  O  O190  1  0.75070000  0.17320000  0.19930000  1
  O  O191  1  0.75990000  0.63050000  0.81350000  1
  O  O192  1  0.76460000  0.46030000  0.45010000  1
  O  O193  1  0.76810000  0.61570000  0.51250000  1
  O  O194  1  0.77290000  0.32920000  0.57970000  1
  O  O195  1  0.77380000  0.19700000  0.33480000  1
  O  O196  1  0.77760000  0.65010000  0.67810000  1
  O  O197  1  0.82290000  0.26070000  0.71790000  1
  O  O198  1  0.84530000  0.22170000  0.95200000  1
  O  O199  1  0.85750000  0.81560000  0.99320000  1
  O  O200  1  0.88950000  0.71040000  0.17090000  1
  O  O201  1  0.89340000  0.18410000  0.48680000  1
  O  O202  1  0.89350000  0.77440000  0.44930000  1
  O  O203  1  0.92250000  0.26520000  0.09920000  1
  O  O204  1  0.93430000  0.65290000  0.95680000  1
  O  O205  1  0.95440000  0.54770000  0.46980000  1
  O  O206  1  0.96920000  0.34940000  0.45120000  1
  O  O207  1  0.97420000  0.73720000  0.60080000  1
