# generated using pymatgen
data_LaH9(C7O2)3
_symmetry_space_group_name_H-M   'P 1'
_cell_length_a   8.11600000
_cell_length_b   11.51061519
_cell_length_c   11.51061519
_cell_angle_alpha   73.55363121
_cell_angle_beta   88.14272385
_cell_angle_gamma   88.14272385
_symmetry_Int_Tables_number   1
_chemical_formula_structural   LaH9(C7O2)3
_chemical_formula_sum   'La2 H18 C42 O12'
_cell_volume   1030.48212626
_cell_formula_units_Z   2
loop_
 _symmetry_equiv_pos_site_id
 _symmetry_equiv_pos_as_xyz
  1  'x, y, z'
loop_
 _atom_site_type_symbol
 _atom_site_label
 _atom_site_symmetry_multiplicity
 _atom_site_fract_x
 _atom_site_fract_y
 _atom_site_fract_z
 _atom_site_occupancy
  C  C0  1  0.59110000  0.34450000  0.62250000  1
  C  C1  1  0.09110000  0.62250000  0.34450000  1
  C  C2  1  0.48240000  0.92710000  0.81290000  1
  C  C3  1  0.98240000  0.81290000  0.92710000  1
  C  C4  1  0.58630000  0.87390000  0.72910000  1
  C  C5  1  0.08630000  0.72910000  0.87390000  1
  C  C6  1  0.61310000  0.94040000  0.60880000  1
  C  C7  1  0.11310000  0.60880000  0.94040000  1
  C  C8  1  0.15020000  0.77140000  0.75740000  1
  C  C9  1  0.65020000  0.75740000  0.77140000  1
  C  C10  1  0.70940000  0.88970000  0.53190000  1
  C  C11  1  0.20940000  0.53190000  0.88970000  1
  C  C12  1  0.74580000  0.70290000  0.69530000  1
  C  C13  1  0.24580000  0.69530000  0.70290000  1
  C  C14  1  0.26930000  0.85360000  0.50440000  1
  C  C15  1  0.76930000  0.50440000  0.85360000  1
  C  C16  1  0.78120000  0.77430000  0.57110000  1
  C  C17  1  0.28120000  0.57110000  0.77430000  1
  C  C18  1  0.30830000  0.73860000  0.57900000  1
  C  C19  1  0.80830000  0.57900000  0.73860000  1
  C  C20  1  0.33020000  0.89950000  0.38850000  1
  C  C21  1  0.83020000  0.38850000  0.89950000  1
  C  C22  1  0.88650000  0.71980000  0.49380000  1
  C  C23  1  0.38650000  0.49380000  0.71980000  1
  C  C24  1  0.41310000  0.66270000  0.52950000  1
  C  C25  1  0.91310000  0.52950000  0.66270000  1
  C  C26  1  0.44100000  0.82480000  0.34260000  1
  C  C27  1  0.94100000  0.34260000  0.82480000  1
  C  C28  1  0.92990000  0.78980000  0.37480000  1
  C  C29  1  0.42990000  0.37480000  0.78980000  1
  C  C30  1  0.94920000  0.60020000  0.53720000  1
  C  C31  1  0.44920000  0.53720000  0.60020000  1
  C  C32  1  0.48020000  0.71070000  0.41170000  1
  C  C33  1  0.98020000  0.41170000  0.71070000  1
  C  C34  1  0.52080000  0.87350000  0.22090000  1
  C  C35  1  0.02080000  0.22090000  0.87350000  1
  C  C36  1  0.03330000  0.74300000  0.30240000  1
  C  C37  1  0.53330000  0.30240000  0.74300000  1
  C  C38  1  0.04950000  0.55440000  0.45800000  1
  C  C39  1  0.54950000  0.45800000  0.55440000  1
  C  C40  1  0.09140000  0.82440000  0.18360000  1
  C  C41  1  0.59140000  0.18360000  0.82440000  1
  H  H42  1  0.08870000  0.47470000  0.48410000  1
  H  H43  1  0.58870000  0.48410000  0.47470000  1
  H  H44  1  0.65820000  0.29460000  0.58920000  1
  H  H45  1  0.15820000  0.58920000  0.29460000  1
  H  H46  1  0.56740000  0.01810000  0.57990000  1
  H  H47  1  0.06740000  0.57990000  0.01810000  1
  H  H48  1  0.12980000  0.85170000  0.71390000  1
  H  H49  1  0.62980000  0.71390000  0.85170000  1
  H  H50  1  0.19720000  0.90260000  0.53540000  1
  H  H51  1  0.69720000  0.53540000  0.90260000  1
  H  H52  1  0.72600000  0.93470000  0.45170000  1
  H  H53  1  0.22600000  0.45170000  0.93470000  1
  H  H54  1  0.29980000  0.97670000  0.34170000  1
  H  H55  1  0.79980000  0.34170000  0.97670000  1
  H  H56  1  0.88760000  0.86840000  0.34560000  1
  H  H57  1  0.38760000  0.34560000  0.86840000  1
  H  H58  1  0.55350000  0.66290000  0.38010000  1
  H  H59  1  0.05350000  0.38010000  0.66290000  1
  La  La60  1  0.25533000  0.01584000  0.98166000  1
  La  La61  1  0.75533000  0.98166000  0.01584000  1
  O  O62  1  0.70800000  0.12473333  0.79146667  1
  O  O63  1  0.20800000  0.79150000  0.12470000  1
  O  O64  1  0.01370000  0.92700000  0.89280000  1
  O  O65  1  0.51370000  0.89280000  0.92700000  1
  O  O66  1  0.36710000  0.99980000  0.77300000  1
  O  O67  1  0.86710000  0.77300000  0.99980000  1
  O  O68  1  0.46240000  0.96780000  0.14680000  1
  O  O69  1  0.96240000  0.14680000  0.96780000  1
  O  O70  1  0.02060000  0.93000000  0.14400000  1
  O  O71  1  0.52060000  0.14400000  0.93000000  1
  O  O72  1  0.64990000  0.81990000  0.19530000  1
  O  O73  1  0.14990000  0.19530000  0.81990000  1
