# generated using pymatgen
data_CoH8C14SO6
_symmetry_space_group_name_H-M   'P 1'
_cell_length_a   16.65400000
_cell_length_b   17.19800000
_cell_length_c   20.42600000
_cell_angle_alpha   90.00000000
_cell_angle_beta   90.00000000
_cell_angle_gamma   99.83030000
_symmetry_Int_Tables_number   1
_chemical_formula_structural   CoH8C14SO6
_chemical_formula_sum   'Co12 H96 C168 S12 O72'
_cell_volume   5764.42692535
_cell_formula_units_Z   12
loop_
 _symmetry_equiv_pos_site_id
 _symmetry_equiv_pos_as_xyz
  1  'x, y, z'
loop_
 _atom_site_type_symbol
 _atom_site_label
 _atom_site_symmetry_multiplicity
 _atom_site_fract_x
 _atom_site_fract_y
 _atom_site_fract_z
 _atom_site_occupancy
  Co  Co0  1  0.03786000  0.75883000  0.16415000  1
  Co  Co1  1  0.08930000  0.43499000  0.85735000  1
  Co  Co2  1  0.14070000  0.94693000  0.12366000  1
  Co  Co3  1  0.35930000  0.55307000  0.62366000  1
  Co  Co4  1  0.41070000  0.06501000  0.35735000  1
  Co  Co5  1  0.46214000  0.74117000  0.66415000  1
  Co  Co6  1  0.53786000  0.25883000  0.33585000  1
  Co  Co7  1  0.58930000  0.93499000  0.64265000  1
  Co  Co8  1  0.64070000  0.44693000  0.37634000  1
  Co  Co9  1  0.85930000  0.05307000  0.87634000  1
  Co  Co10  1  0.91070000  0.56501000  0.14265000  1
  Co  Co11  1  0.96214000  0.24117000  0.83585000  1
  H  H12  1  0.00160000  0.93630000  0.93220000  1
  H  H13  1  0.01240000  0.72160000  0.00370000  1
  H  H14  1  0.01440000  0.74790000  0.46100000  1
  H  H15  1  0.01800000  0.88760000  0.62710000  1
  H  H16  1  0.01830000  0.74000000  0.35020000  1
  H  H17  1  0.02060000  0.59410000  0.75740000  1
  H  H18  1  0.02840000  0.33440000  0.09690000  1
  H  H19  1  0.03320000  0.06560000  0.27820000  1
  H  H20  1  0.03540000  0.11860000  0.16960000  1
  H  H21  1  0.06290000  0.15600000  0.66780000  1
  H  H22  1  0.09000000  0.19890000  0.43970000  1
  H  H23  1  0.09440000  0.82750000  0.74230000  1
  H  H24  1  0.10670000  0.47180000  0.53120000  1
  H  H25  1  0.10770000  0.47760000  0.64410000  1
  H  H26  1  0.10920000  0.46530000  0.04340000  1
  H  H27  1  0.11220000  0.10890000  0.57390000  1
  H  H28  1  0.14880000  0.57260000  0.72330000  1
  H  H29  1  0.16620000  0.13870000  0.89090000  1
  H  H30  1  0.17140000  0.82920000  0.56300000  1
  H  H31  1  0.19700000  0.68980000  0.09070000  1
  H  H32  1  0.20680000  0.14690000  0.42200000  1
  H  H33  1  0.21880000  0.41490000  0.40770000  1
  H  H34  1  0.22260000  0.80560000  0.71170000  1
  H  H35  1  0.23830000  0.44660000  0.01170000  1
  H  H36  1  0.26170000  0.05340000  0.51170000  1
  H  H37  1  0.27740000  0.69440000  0.21170000  1
  H  H38  1  0.28120000  0.08510000  0.90770000  1
  H  H39  1  0.29320000  0.35310000  0.92200000  1
  H  H40  1  0.30300000  0.81020000  0.59070000  1
  H  H41  1  0.32860000  0.67080000  0.06300000  1
  H  H42  1  0.33380000  0.36130000  0.39090000  1
  H  H43  1  0.35120000  0.92740000  0.22330000  1
  H  H44  1  0.38780000  0.39110000  0.07390000  1
  H  H45  1  0.39080000  0.03470000  0.54340000  1
  H  H46  1  0.39230000  0.02240000  0.14410000  1
  H  H47  1  0.39330000  0.02820000  0.03120000  1
  H  H48  1  0.40560000  0.67250000  0.24230000  1
  H  H49  1  0.41000000  0.30110000  0.93970000  1
  H  H50  1  0.43710000  0.34400000  0.16780000  1
  H  H51  1  0.46460000  0.38140000  0.66960000  1
  H  H52  1  0.46680000  0.43440000  0.77820000  1
  H  H53  1  0.47160000  0.16560000  0.59690000  1
  H  H54  1  0.47940000  0.90590000  0.25740000  1
  H  H55  1  0.48170000  0.76000000  0.85020000  1
  H  H56  1  0.48200000  0.61240000  0.12710000  1
  H  H57  1  0.48560000  0.75210000  0.96100000  1
  H  H58  1  0.48760000  0.77840000  0.50370000  1
  H  H59  1  0.49840000  0.56370000  0.43220000  1
  H  H60  1  0.50160000  0.43630000  0.56780000  1
  H  H61  1  0.51240000  0.22160000  0.49630000  1
  H  H62  1  0.51440000  0.24790000  0.03900000  1
  H  H63  1  0.51800000  0.38760000  0.87290000  1
  H  H64  1  0.51830000  0.24000000  0.14980000  1
  H  H65  1  0.52060000  0.09410000  0.74260000  1
  H  H66  1  0.52840000  0.83440000  0.40310000  1
  H  H67  1  0.53320000  0.56560000  0.22180000  1
  H  H68  1  0.53540000  0.61860000  0.33040000  1
  H  H69  1  0.56290000  0.65600000  0.83220000  1
  H  H70  1  0.59000000  0.69890000  0.06030000  1
  H  H71  1  0.59440000  0.32750000  0.75770000  1
  H  H72  1  0.60670000  0.97180000  0.96880000  1
  H  H73  1  0.60770000  0.97760000  0.85590000  1
  H  H74  1  0.60920000  0.96530000  0.45660000  1
  H  H75  1  0.61220000  0.60890000  0.92610000  1
  H  H76  1  0.64880000  0.07260000  0.77670000  1
  H  H77  1  0.66620000  0.63870000  0.60910000  1
  H  H78  1  0.67140000  0.32920000  0.93700000  1
  H  H79  1  0.69700000  0.18980000  0.40930000  1
  H  H80  1  0.70680000  0.64690000  0.07800000  1
  H  H81  1  0.71880000  0.91490000  0.09230000  1
  H  H82  1  0.72260000  0.30560000  0.78830000  1
  H  H83  1  0.73830000  0.94660000  0.48830000  1
  H  H84  1  0.76170000  0.55340000  0.98830000  1
  H  H85  1  0.77740000  0.19440000  0.28830000  1
  H  H86  1  0.78120000  0.58510000  0.59230000  1
  H  H87  1  0.79320000  0.85310000  0.57800000  1
  H  H88  1  0.80300000  0.31020000  0.90930000  1
  H  H89  1  0.82860000  0.17080000  0.43700000  1
  H  H90  1  0.83380000  0.86130000  0.10910000  1
  H  H91  1  0.85120000  0.42740000  0.27670000  1
  H  H92  1  0.88780000  0.89110000  0.42610000  1
  H  H93  1  0.89080000  0.53470000  0.95660000  1
  H  H94  1  0.89230000  0.52240000  0.35590000  1
  H  H95  1  0.89330000  0.52820000  0.46880000  1
  H  H96  1  0.90560000  0.17250000  0.25770000  1
  H  H97  1  0.91000000  0.80110000  0.56030000  1
  H  H98  1  0.93710000  0.84400000  0.33220000  1
  H  H99  1  0.96460000  0.88140000  0.83040000  1
  H  H100  1  0.96680000  0.93440000  0.72180000  1
  H  H101  1  0.97160000  0.66560000  0.90310000  1
  H  H102  1  0.97940000  0.40590000  0.24260000  1
  H  H103  1  0.98170000  0.26000000  0.64980000  1
  H  H104  1  0.98200000  0.11240000  0.37290000  1
  H  H105  1  0.98560000  0.25210000  0.53900000  1
  H  H106  1  0.98760000  0.27840000  0.99630000  1
  H  H107  1  0.99840000  0.06370000  0.06780000  1
  C  C108  1  0.00260000  0.11780000  0.07400000  1
  C  C109  1  0.00330000  0.75380000  0.96880000  1
  C  C110  1  0.00400000  0.03060000  0.30770000  1
  C  C111  1  0.00730000  0.30330000  0.62590000  1
  C  C112  1  0.00970000  0.29830000  0.55980000  1
  C  C113  1  0.00980000  0.05060000  0.70530000  1
  C  C114  1  0.01370000  0.83450000  0.97780000  1
  C  C115  1  0.02040000  0.28000000  0.09160000  1
  C  C116  1  0.02490000  0.91840000  0.23440000  1
  C  C117  1  0.02510000  0.15060000  0.13490000  1
  C  C118  1  0.02620000  0.94150000  0.63550000  1
  C  C119  1  0.03170000  0.23150000  0.14350000  1
  C  C120  1  0.03770000  0.37180000  0.73230000  1
  C  C121  1  0.04160000  0.37060000  0.65870000  1
  C  C122  1  0.04500000  0.71190000  0.75080000  1
  C  C123  1  0.04770000  0.36140000  0.52330000  1
  C  C124  1  0.04860000  0.87200000  0.03880000  1
  C  C125  1  0.05360000  0.10200000  0.65970000  1
  C  C126  1  0.05830000  0.58920000  0.09500000  1
  C  C127  1  0.06100000  0.63670000  0.74700000  1
  C  C128  1  0.06870000  0.99410000  0.59080000  1
  C  C129  1  0.08120000  0.43250000  0.62300000  1
  C  C130  1  0.08220000  0.42830000  0.55530000  1
  C  C131  1  0.08280000  0.07410000  0.60350000  1
  C  C132  1  0.10520000  0.77640000  0.73850000  1
  C  C133  1  0.13810000  0.62370000  0.72740000  1
  C  C134  1  0.13870000  0.23200000  0.42980000  1
  C  C135  1  0.14170000  0.31360000  0.42560000  1
  C  C136  1  0.14180000  0.57860000  0.07210000  1
  C  C137  1  0.14350000  0.28810000  0.88790000  1
  C  C138  1  0.15330000  0.50620000  0.04750000  1
  C  C139  1  0.18170000  0.76280000  0.72020000  1
  C  C140  1  0.19880000  0.68770000  0.71410000  1
  C  C141  1  0.20410000  0.94390000  0.53650000  1
  C  C142  1  0.20610000  0.64070000  0.07640000  1
  C  C143  1  0.20890000  0.20120000  0.41900000  1
  C  C144  1  0.21530000  0.17130000  0.90050000  1
  C  C145  1  0.21530000  0.87030000  0.55930000  1
  C  C146  1  0.21590000  0.36050000  0.41070000  1
  C  C147  1  0.21730000  0.82710000  0.19420000  1
  C  C148  1  0.21880000  0.25170000  0.90420000  1
  C  C149  1  0.23030000  0.49470000  0.02900000  1
  C  C150  1  0.26970000  0.00530000  0.52900000  1
  C  C151  1  0.28120000  0.24830000  0.40420000  1
  C  C152  1  0.28270000  0.67290000  0.69420000  1
  C  C153  1  0.28410000  0.13950000  0.91070000  1
  C  C154  1  0.28470000  0.32870000  0.40050000  1
  C  C155  1  0.28470000  0.62970000  0.05930000  1
  C  C156  1  0.29110000  0.29880000  0.91900000  1
  C  C157  1  0.29390000  0.85930000  0.57640000  1
  C  C158  1  0.29590000  0.55610000  0.03650000  1
  C  C159  1  0.30120000  0.81230000  0.21410000  1
  C  C160  1  0.31830000  0.73720000  0.22020000  1
  C  C161  1  0.34670000  0.99380000  0.54750000  1
  C  C162  1  0.35650000  0.21190000  0.38790000  1
  C  C163  1  0.35820000  0.92140000  0.57210000  1
  C  C164  1  0.35830000  0.18640000  0.92560000  1
  C  C165  1  0.36130000  0.26800000  0.92980000  1
  C  C166  1  0.36190000  0.87630000  0.22740000  1
  C  C167  1  0.39480000  0.72360000  0.23850000  1
  C  C168  1  0.41720000  0.42590000  0.10350000  1
  C  C169  1  0.41780000  0.07170000  0.05530000  1
  C  C170  1  0.41880000  0.06750000  0.12300000  1
  C  C171  1  0.43130000  0.50590000  0.09080000  1
  C  C172  1  0.43900000  0.86330000  0.24700000  1
  C  C173  1  0.44170000  0.91080000  0.59500000  1
  C  C174  1  0.44640000  0.39800000  0.15970000  1
  C  C175  1  0.45140000  0.62800000  0.53880000  1
  C  C176  1  0.45230000  0.13860000  0.02330000  1
  C  C177  1  0.45500000  0.78810000  0.25080000  1
  C  C178  1  0.45840000  0.12940000  0.15870000  1
  C  C179  1  0.46230000  0.12820000  0.23230000  1
  C  C180  1  0.46830000  0.26850000  0.64350000  1
  C  C181  1  0.47380000  0.55850000  0.13550000  1
  C  C182  1  0.47490000  0.34940000  0.63490000  1
  C  C183  1  0.47510000  0.58160000  0.73440000  1
  C  C184  1  0.47960000  0.22000000  0.59160000  1
  C  C185  1  0.48630000  0.66550000  0.47780000  1
  C  C186  1  0.49020000  0.44940000  0.20530000  1
  C  C187  1  0.49030000  0.20170000  0.05980000  1
  C  C188  1  0.49270000  0.19670000  0.12590000  1
  C  C189  1  0.49600000  0.46940000  0.80770000  1
  C  C190  1  0.49670000  0.74620000  0.46880000  1
  C  C191  1  0.49740000  0.38220000  0.57400000  1
  C  C192  1  0.50260000  0.61780000  0.42600000  1
  C  C193  1  0.50330000  0.25380000  0.53120000  1
  C  C194  1  0.50400000  0.53060000  0.19230000  1
  C  C195  1  0.50730000  0.80330000  0.87410000  1
  C  C196  1  0.50970000  0.79830000  0.94020000  1
  C  C197  1  0.50980000  0.55060000  0.79470000  1
  C  C198  1  0.51370000  0.33450000  0.52220000  1
  C  C199  1  0.52040000  0.78000000  0.40840000  1
  C  C200  1  0.52490000  0.41840000  0.26560000  1
  C  C201  1  0.52510000  0.65060000  0.36510000  1
  C  C202  1  0.52620000  0.44150000  0.86450000  1
  C  C203  1  0.53170000  0.73150000  0.35650000  1
  C  C204  1  0.53770000  0.87180000  0.76770000  1
  C  C205  1  0.54160000  0.87060000  0.84130000  1
  C  C206  1  0.54500000  0.21190000  0.74920000  1
  C  C207  1  0.54770000  0.86140000  0.97670000  1
  C  C208  1  0.54860000  0.37200000  0.46120000  1
  C  C209  1  0.55360000  0.60200000  0.84030000  1
  C  C210  1  0.55830000  0.08920000  0.40500000  1
  C  C211  1  0.56100000  0.13670000  0.75300000  1
  C  C212  1  0.56870000  0.49410000  0.90920000  1
  C  C213  1  0.58120000  0.93250000  0.87700000  1
  C  C214  1  0.58220000  0.92830000  0.94470000  1
  C  C215  1  0.58280000  0.57410000  0.89650000  1
  C  C216  1  0.60520000  0.27640000  0.76150000  1
  C  C217  1  0.63810000  0.12370000  0.77260000  1
  C  C218  1  0.63870000  0.73200000  0.07020000  1
  C  C219  1  0.64170000  0.81360000  0.07440000  1
  C  C220  1  0.64180000  0.07860000  0.42790000  1
  C  C221  1  0.64350000  0.78810000  0.61210000  1
  C  C222  1  0.65330000  0.00620000  0.45250000  1
  C  C223  1  0.68170000  0.26280000  0.77980000  1
  C  C224  1  0.69880000  0.18770000  0.78590000  1
  C  C225  1  0.70410000  0.44390000  0.96350000  1
  C  C226  1  0.70610000  0.14070000  0.42360000  1
  C  C227  1  0.70890000  0.70120000  0.08100000  1
  C  C228  1  0.71530000  0.37030000  0.94070000  1
  C  C229  1  0.71530000  0.67130000  0.59950000  1
  C  C230  1  0.71590000  0.86050000  0.08930000  1
  C  C231  1  0.71730000  0.32710000  0.30580000  1
  C  C232  1  0.71880000  0.75170000  0.59580000  1
  C  C233  1  0.73030000  0.99470000  0.47100000  1
  C  C234  1  0.76970000  0.50530000  0.97100000  1
  C  C235  1  0.78120000  0.74830000  0.09580000  1
  C  C236  1  0.78270000  0.17290000  0.80580000  1
  C  C237  1  0.78410000  0.63950000  0.58930000  1
  C  C238  1  0.78470000  0.12970000  0.44070000  1
  C  C239  1  0.78470000  0.82870000  0.09950000  1
  C  C240  1  0.79110000  0.79880000  0.58100000  1
  C  C241  1  0.79390000  0.35930000  0.92360000  1
  C  C242  1  0.79590000  0.05610000  0.46350000  1
  C  C243  1  0.80120000  0.31230000  0.28590000  1
  C  C244  1  0.81830000  0.23720000  0.27980000  1
  C  C245  1  0.84670000  0.49380000  0.95250000  1
  C  C246  1  0.85650000  0.71190000  0.11210000  1
  C  C247  1  0.85820000  0.42140000  0.92790000  1
  C  C248  1  0.85830000  0.68640000  0.57440000  1
  C  C249  1  0.86130000  0.76800000  0.57020000  1
  C  C250  1  0.86190000  0.37630000  0.27260000  1
  C  C251  1  0.89480000  0.22360000  0.26150000  1
  C  C252  1  0.91720000  0.92590000  0.39650000  1
  C  C253  1  0.91780000  0.57170000  0.44470000  1
  C  C254  1  0.91880000  0.56750000  0.37700000  1
  C  C255  1  0.93130000  0.00590000  0.40920000  1
  C  C256  1  0.93900000  0.36330000  0.25300000  1
  C  C257  1  0.94170000  0.41080000  0.90500000  1
  C  C258  1  0.94640000  0.89800000  0.34030000  1
  C  C259  1  0.95140000  0.12800000  0.96120000  1
  C  C260  1  0.95230000  0.63860000  0.47670000  1
  C  C261  1  0.95500000  0.28810000  0.24920000  1
  C  C262  1  0.95840000  0.62940000  0.34130000  1
  C  C263  1  0.96230000  0.62820000  0.26770000  1
  C  C264  1  0.96830000  0.76850000  0.85650000  1
  C  C265  1  0.97380000  0.05850000  0.36450000  1
  C  C266  1  0.97490000  0.84940000  0.86510000  1
  C  C267  1  0.97510000  0.08160000  0.76560000  1
  C  C268  1  0.97960000  0.72000000  0.90840000  1
  C  C269  1  0.98630000  0.16550000  0.02220000  1
  C  C270  1  0.99020000  0.94940000  0.29470000  1
  C  C271  1  0.99030000  0.70170000  0.44020000  1
  C  C272  1  0.99270000  0.69670000  0.37410000  1
  C  C273  1  0.99600000  0.96940000  0.69230000  1
  C  C274  1  0.99670000  0.24620000  0.03120000  1
  C  C275  1  0.99740000  0.88220000  0.92600000  1
  S  S276  1  0.05149000  0.27086000  0.22258000  1
  S  S277  1  0.05361000  0.35391000  0.43746000  1
  S  S278  1  0.10474000  0.95921000  0.51700000  1
  S  S279  1  0.39526000  0.54079000  0.01700000  1
  S  S280  1  0.44639000  0.14609000  0.93746000  1
  S  S281  1  0.44851000  0.22914000  0.72258000  1
  S  S282  1  0.55149000  0.77086000  0.27742000  1
  S  S283  1  0.55361000  0.85391000  0.06254000  1
  S  S284  1  0.60474000  0.45921000  0.98300000  1
  S  S285  1  0.89526000  0.04079000  0.48300000  1
  S  S286  1  0.94639000  0.64609000  0.56254000  1
  S  S287  1  0.94851000  0.72914000  0.77742000  1
  O  O288  1  0.00390000  0.52910000  0.10140000  1
  O  O289  1  0.00880000  0.68230000  0.24110000  1
  O  O290  1  0.01600000  0.70380000  0.58380000  1
  O  O291  1  0.01660000  0.84550000  0.22850000  1
  O  O292  1  0.04700000  0.65760000  0.10670000  1
  O  O293  1  0.05640000  0.88350000  0.50250000  1
  O  O294  1  0.06110000  0.96880000  0.19400000  1
  O  O295  1  0.06270000  0.94470000  0.04420000  1
  O  O296  1  0.06850000  0.43270000  0.41250000  1
  O  O297  1  0.07150000  0.83040000  0.08440000  1
  O  O298  1  0.07540000  0.21160000  0.26430000  1
  O  O299  1  0.08300000  0.42700000  0.76120000  1
  O  O300  1  0.08330000  0.24440000  0.86710000  1
  O  O301  1  0.10330000  0.34630000  0.21620000  1
  O  O302  1  0.11250000  0.02090000  0.46920000  1
  O  O303  1  0.15160000  0.36170000  0.89660000  1
  O  O304  1  0.16110000  0.76920000  0.18880000  1
  O  O305  1  0.21210000  0.89860000  0.18450000  1
  O  O306  1  0.28790000  0.60140000  0.68450000  1
  O  O307  1  0.33890000  0.73080000  0.68880000  1
  O  O308  1  0.34840000  0.13830000  0.39660000  1
  O  O309  1  0.38750000  0.47910000  0.96920000  1
  O  O310  1  0.39670000  0.15370000  0.71620000  1
  O  O311  1  0.41670000  0.25560000  0.36710000  1
  O  O312  1  0.41700000  0.07300000  0.26120000  1
  O  O313  1  0.42460000  0.28840000  0.76430000  1
  O  O314  1  0.42850000  0.66960000  0.58440000  1
  O  O315  1  0.43150000  0.06730000  0.91250000  1
  O  O316  1  0.43730000  0.55530000  0.54420000  1
  O  O317  1  0.43890000  0.53120000  0.69400000  1
  O  O318  1  0.44360000  0.61650000  0.00250000  1
  O  O319  1  0.45300000  0.84240000  0.60670000  1
  O  O320  1  0.48340000  0.65450000  0.72850000  1
  O  O321  1  0.48400000  0.79620000  0.08380000  1
  O  O322  1  0.49120000  0.81770000  0.74110000  1
  O  O323  1  0.49610000  0.97090000  0.60140000  1
  O  O324  1  0.50390000  0.02910000  0.39860000  1
  O  O325  1  0.50880000  0.18230000  0.25890000  1
  O  O326  1  0.51600000  0.20380000  0.91620000  1
  O  O327  1  0.51660000  0.34550000  0.27150000  1
  O  O328  1  0.54700000  0.15760000  0.39330000  1
  O  O329  1  0.55640000  0.38350000  0.99750000  1
  O  O330  1  0.56110000  0.46880000  0.30600000  1
  O  O331  1  0.56270000  0.44470000  0.45580000  1
  O  O332  1  0.56850000  0.93270000  0.08750000  1
  O  O333  1  0.57150000  0.33040000  0.41560000  1
  O  O334  1  0.57540000  0.71160000  0.23570000  1
  O  O335  1  0.58300000  0.92700000  0.73880000  1
  O  O336  1  0.58330000  0.74440000  0.63290000  1
  O  O337  1  0.60330000  0.84630000  0.28380000  1
  O  O338  1  0.61250000  0.52090000  0.03080000  1
  O  O339  1  0.65160000  0.86170000  0.60340000  1
  O  O340  1  0.66110000  0.26920000  0.31120000  1
  O  O341  1  0.71210000  0.39860000  0.31550000  1
  O  O342  1  0.78790000  0.10140000  0.81550000  1
  O  O343  1  0.83890000  0.23080000  0.81120000  1
  O  O344  1  0.84840000  0.63830000  0.10340000  1
  O  O345  1  0.88750000  0.97910000  0.53080000  1
  O  O346  1  0.89670000  0.65370000  0.78380000  1
  O  O347  1  0.91670000  0.75560000  0.13290000  1
  O  O348  1  0.91700000  0.57300000  0.23880000  1
  O  O349  1  0.92460000  0.78840000  0.73570000  1
  O  O350  1  0.92850000  0.16960000  0.91560000  1
  O  O351  1  0.93150000  0.56730000  0.58750000  1
  O  O352  1  0.93730000  0.05530000  0.95580000  1
  O  O353  1  0.93890000  0.03120000  0.80600000  1
  O  O354  1  0.94360000  0.11650000  0.49750000  1
  O  O355  1  0.95300000  0.34240000  0.89330000  1
  O  O356  1  0.98340000  0.15450000  0.77150000  1
  O  O357  1  0.98400000  0.29620000  0.41620000  1
  O  O358  1  0.99120000  0.31770000  0.75890000  1
  O  O359  1  0.99610000  0.47090000  0.89860000  1
