# generated using pymatgen
data_DyPH7C8NO8
_symmetry_space_group_name_H-M   'P 1'
_cell_length_a   9.71920000
_cell_length_b   10.45170000
_cell_length_c   15.54240786
_cell_angle_alpha   90.00000000
_cell_angle_beta   102.68779677
_cell_angle_gamma   90.00000000
_symmetry_Int_Tables_number   1
_chemical_formula_structural   DyPH7C8NO8
_chemical_formula_sum   'Dy4 P4 H28 C32 N4 O32'
_cell_volume   1540.27846501
_cell_formula_units_Z   4
loop_
 _symmetry_equiv_pos_site_id
 _symmetry_equiv_pos_as_xyz
  1  'x, y, z'
loop_
 _atom_site_type_symbol
 _atom_site_label
 _atom_site_symmetry_multiplicity
 _atom_site_fract_x
 _atom_site_fract_y
 _atom_site_fract_z
 _atom_site_occupancy
  Dy  Dy0  1  0.71460000  0.39428000  0.89302000  1
  Dy  Dy1  1  0.21460000  0.10572000  0.39302000  1
  Dy  Dy2  1  0.78540000  0.89428000  0.60698000  1
  Dy  Dy3  1  0.28540000  0.60572000  0.10698000  1
  P  P4  1  0.15651000  0.85017000  0.23131000  1
  P  P5  1  0.65651000  0.64983000  0.73131000  1
  P  P6  1  0.34349000  0.35017000  0.26869000  1
  P  P7  1  0.84349000  0.14983000  0.76869000  1
  H  H8  1  0.83920000  0.83840000  0.88610000  1
  H  H9  1  0.33920000  0.66160000  0.38610000  1
  H  H10  1  0.00150000  0.85960000  0.09510000  1
  H  H11  1  0.50150000  0.64040000  0.59510000  1
  H  H12  1  0.00210000  0.99090000  0.14390000  1
  H  H13  1  0.50210000  0.50910000  0.64390000  1
  H  H14  1  0.69950000  0.76390000  0.97570000  1
  H  H15  1  0.19950000  0.73610000  0.47570000  1
  H  H16  1  0.02750000  0.82930000  0.31470000  1
  H  H17  1  0.52750000  0.67070000  0.81470000  1
  H  H18  1  0.17800000  0.38310000  0.56840000  1
  H  H19  1  0.67800000  0.11690000  0.06840000  1
  H  H20  1  0.61640000  0.90330000  0.06810000  1
  H  H21  1  0.11640000  0.59670000  0.56810000  1
  H  H22  1  0.88360000  0.40330000  0.43190000  1
  H  H23  1  0.38360000  0.09670000  0.93190000  1
  H  H24  1  0.32200000  0.88310000  0.93160000  1
  H  H25  1  0.82200000  0.61690000  0.43160000  1
  H  H26  1  0.47250000  0.32930000  0.18530000  1
  H  H27  1  0.97250000  0.17070000  0.68530000  1
  H  H28  1  0.80050000  0.26390000  0.52430000  1
  H  H29  1  0.30050000  0.23610000  0.02430000  1
  H  H30  1  0.49790000  0.49090000  0.35610000  1
  H  H31  1  0.99790000  0.00910000  0.85610000  1
  H  H32  1  0.49850000  0.35960000  0.40490000  1
  H  H33  1  0.99850000  0.14040000  0.90490000  1
  H  H34  1  0.66080000  0.33840000  0.61390000  1
  H  H35  1  0.16080000  0.16160000  0.11390000  1
  C  C36  1  0.06200000  0.92330000  0.12980000  1
  C  C37  1  0.56200000  0.57670000  0.62980000  1
  C  C38  1  0.46070000  0.96870000  0.53290000  1
  C  C39  1  0.96070000  0.53130000  0.03290000  1
  C  C40  1  0.34400000  0.47760000  0.42390000  1
  C  C41  1  0.84400000  0.02240000  0.92390000  1
  C  C42  1  0.80660000  0.89490000  0.92340000  1
  C  C43  1  0.30660000  0.60510000  0.42340000  1
  C  C44  1  0.72300000  0.85020000  0.97660000  1
  C  C45  1  0.22300000  0.64980000  0.47660000  1
  C  C46  1  0.21050000  0.44020000  0.53150000  1
  C  C47  1  0.71050000  0.05980000  0.03150000  1
  C  C48  1  0.67350000  0.93270000  0.03150000  1
  C  C49  1  0.17350000  0.56730000  0.53150000  1
  C  C50  1  0.98990000  0.93820000  0.47270000  1
  C  C51  1  0.48990000  0.56180000  0.97270000  1
  C  C52  1  0.51010000  0.43820000  0.02730000  1
  C  C53  1  0.01010000  0.06180000  0.52730000  1
  C  C54  1  0.82650000  0.43270000  0.46850000  1
  C  C55  1  0.32650000  0.06730000  0.96850000  1
  C  C56  1  0.28950000  0.94020000  0.96850000  1
  C  C57  1  0.78950000  0.55980000  0.46850000  1
  C  C58  1  0.77700000  0.35020000  0.52340000  1
  C  C59  1  0.27700000  0.14980000  0.02340000  1
  C  C60  1  0.69340000  0.39490000  0.57660000  1
  C  C61  1  0.19340000  0.10510000  0.07660000  1
  C  C62  1  0.15600000  0.97760000  0.07610000  1
  C  C63  1  0.65600000  0.52240000  0.57610000  1
  C  C64  1  0.03930000  0.46870000  0.96710000  1
  C  C65  1  0.53930000  0.03130000  0.46710000  1
  C  C66  1  0.43800000  0.42330000  0.37020000  1
  C  C67  1  0.93800000  0.07670000  0.87020000  1
  N  N68  1  0.29290000  0.39800000  0.47860000  1
  N  N69  1  0.79290000  0.10200000  0.97860000  1
  N  N70  1  0.20710000  0.89800000  0.02140000  1
  N  N71  1  0.70710000  0.60200000  0.52140000  1
  O  O72  1  0.74950000  0.25190000  0.79000000  1
  O  O73  1  0.24950000  0.24810000  0.29000000  1
  O  O74  1  0.23160000  0.95240000  0.29190000  1
  O  O75  1  0.73160000  0.54760000  0.79190000  1
  O  O76  1  0.53430000  0.91360000  0.59760000  1
  O  O77  1  0.03430000  0.58640000  0.09760000  1
  O  O78  1  0.32870000  0.27510000  0.48230000  1
  O  O79  1  0.82870000  0.22490000  0.98230000  1
  O  O80  1  0.32930000  0.97940000  0.51530000  1
  O  O81  1  0.82930000  0.52060000  0.01530000  1
  O  O82  1  0.03590000  0.78890000  0.27090000  1
  O  O83  1  0.53590000  0.71110000  0.77090000  1
  O  O84  1  0.05000000  0.93520000  0.40890000  1
  O  O85  1  0.55000000  0.56480000  0.90890000  1
  O  O86  1  0.58180000  0.35120000  0.00440000  1
  O  O87  1  0.08180000  0.14880000  0.50440000  1
  O  O88  1  0.91820000  0.85120000  0.49560000  1
  O  O89  1  0.41820000  0.64880000  0.99560000  1
  O  O90  1  0.45000000  0.43520000  0.09110000  1
  O  O91  1  0.95000000  0.06480000  0.59110000  1
  O  O92  1  0.46410000  0.28890000  0.22910000  1
  O  O93  1  0.96410000  0.21110000  0.72910000  1
  O  O94  1  0.17070000  0.47940000  0.98470000  1
  O  O95  1  0.67070000  0.02060000  0.48470000  1
  O  O96  1  0.17130000  0.77510000  0.01770000  1
  O  O97  1  0.67130000  0.72490000  0.51770000  1
  O  O98  1  0.96570000  0.41360000  0.90240000  1
  O  O99  1  0.46570000  0.08640000  0.40240000  1
  O  O100  1  0.26840000  0.45240000  0.20810000  1
  O  O101  1  0.76840000  0.04760000  0.70810000  1
  O  O102  1  0.75050000  0.75190000  0.71000000  1
  O  O103  1  0.25050000  0.74810000  0.21000000  1
