# generated using pymatgen
data_NaGdC8(NO4)2
_symmetry_space_group_name_H-M   'P 1'
_cell_length_a   6.69900000
_cell_length_b   14.38200000
_cell_length_c   15.25100000
_cell_angle_alpha   90.00000000
_cell_angle_beta   90.00000000
_cell_angle_gamma   90.00000000
_symmetry_Int_Tables_number   1
_chemical_formula_structural   NaGdC8(NO4)2
_chemical_formula_sum   'Na4 Gd4 C32 N8 O32'
_cell_volume   1469.35786952
_cell_formula_units_Z   4
loop_
 _symmetry_equiv_pos_site_id
 _symmetry_equiv_pos_as_xyz
  1  'x, y, z'
loop_
 _atom_site_type_symbol
 _atom_site_label
 _atom_site_symmetry_multiplicity
 _atom_site_fract_x
 _atom_site_fract_y
 _atom_site_fract_z
 _atom_site_occupancy
  Na  Na0  1  0.75000000  0.18940000  0.23570000  1
  Na  Na1  1  0.25000000  0.68940000  0.26430000  1
  Na  Na2  1  0.75000000  0.31060000  0.73570000  1
  Na  Na3  1  0.25000000  0.81060000  0.76430000  1
  Gd  Gd4  1  0.25000000  0.37927000  0.19891000  1
  Gd  Gd5  1  0.75000000  0.87927000  0.30109000  1
  Gd  Gd6  1  0.25000000  0.12073000  0.69891000  1
  Gd  Gd7  1  0.75000000  0.62073000  0.80109000  1
  C  C8  1  0.25000000  0.49270000  0.00360000  1
  C  C9  1  0.75000000  0.66790000  0.01970000  1
  C  C10  1  0.25000000  0.23910000  0.02970000  1
  C  C11  1  0.25000000  0.56600000  0.07150000  1
  C  C12  1  0.75000000  0.49480000  0.08720000  1
  C  C13  1  0.75000000  0.65260000  0.10650000  1
  C  C14  1  0.75000000  0.39940000  0.12850000  1
  C  C15  1  0.75000000  0.73000000  0.17300000  1
  C  C16  1  0.25000000  0.23000000  0.32700000  1
  C  C17  1  0.25000000  0.89940000  0.37150000  1
  C  C18  1  0.25000000  0.15260000  0.39350000  1
  C  C19  1  0.25000000  0.99480000  0.41280000  1
  C  C20  1  0.75000000  0.06600000  0.42850000  1
  C  C21  1  0.75000000  0.73910000  0.47030000  1
  C  C22  1  0.25000000  0.16790000  0.48030000  1
  C  C23  1  0.75000000  0.99270000  0.49640000  1
  C  C24  1  0.25000000  0.00730000  0.50360000  1
  C  C25  1  0.75000000  0.83210000  0.51970000  1
  C  C26  1  0.25000000  0.26090000  0.52970000  1
  C  C27  1  0.25000000  0.93400000  0.57150000  1
  C  C28  1  0.75000000  0.00520000  0.58720000  1
  C  C29  1  0.75000000  0.84740000  0.60650000  1
  C  C30  1  0.75000000  0.10060000  0.62850000  1
  C  C31  1  0.75000000  0.77000000  0.67300000  1
  C  C32  1  0.25000000  0.27000000  0.82700000  1
  C  C33  1  0.25000000  0.60060000  0.87150000  1
  C  C34  1  0.25000000  0.34740000  0.89350000  1
  C  C35  1  0.25000000  0.50520000  0.91280000  1
  C  C36  1  0.75000000  0.43400000  0.92850000  1
  C  C37  1  0.75000000  0.76090000  0.97030000  1
  C  C38  1  0.25000000  0.33210000  0.98030000  1
  C  C39  1  0.75000000  0.50730000  0.99640000  1
  N  N40  1  0.25000000  0.40460000  0.03450000  1
  N  N41  1  0.75000000  0.56590000  0.14230000  1
  N  N42  1  0.25000000  0.06590000  0.35770000  1
  N  N43  1  0.75000000  0.90460000  0.46550000  1
  N  N44  1  0.25000000  0.09540000  0.53450000  1
  N  N45  1  0.75000000  0.93410000  0.64230000  1
  N  N46  1  0.25000000  0.43410000  0.85770000  1
  N  N47  1  0.75000000  0.59540000  0.96550000  1
  O  O48  1  0.75000000  0.82990000  0.01940000  1
  O  O49  1  0.25000000  0.64840000  0.05100000  1
  O  O50  1  0.25000000  0.24290000  0.10920000  1
  O  O51  1  0.58530000  0.36250000  0.14670000  1
  O  O52  1  0.91470000  0.36250000  0.14670000  1
  O  O53  1  0.25000000  0.53700000  0.15060000  1
  O  O54  1  0.58300000  0.75660000  0.20430000  1
  O  O55  1  0.91700000  0.75660000  0.20430000  1
  O  O56  1  0.08300000  0.25660000  0.29570000  1
  O  O57  1  0.41700000  0.25660000  0.29570000  1
  O  O58  1  0.75000000  0.03700000  0.34940000  1
  O  O59  1  0.08530000  0.86250000  0.35330000  1
  O  O60  1  0.41470000  0.86250000  0.35330000  1
  O  O61  1  0.75000000  0.74290000  0.39080000  1
  O  O62  1  0.75000000  0.14840000  0.44900000  1
  O  O63  1  0.25000000  0.32990000  0.48060000  1
  O  O64  1  0.75000000  0.67010000  0.51940000  1
  O  O65  1  0.25000000  0.85160000  0.55100000  1
  O  O66  1  0.25000000  0.25710000  0.60920000  1
  O  O67  1  0.58530000  0.13750000  0.64670000  1
  O  O68  1  0.91470000  0.13750000  0.64670000  1
  O  O69  1  0.25000000  0.96300000  0.65060000  1
  O  O70  1  0.58300000  0.74340000  0.70430000  1
  O  O71  1  0.91700000  0.74340000  0.70430000  1
  O  O72  1  0.08300000  0.24340000  0.79570000  1
  O  O73  1  0.41700000  0.24340000  0.79570000  1
  O  O74  1  0.75000000  0.46300000  0.84940000  1
  O  O75  1  0.08530000  0.63750000  0.85330000  1
  O  O76  1  0.41470000  0.63750000  0.85330000  1
  O  O77  1  0.75000000  0.75710000  0.89080000  1
  O  O78  1  0.75000000  0.35160000  0.94900000  1
  O  O79  1  0.25000000  0.17010000  0.98060000  1
