# generated using pymatgen
data_Cd2H24(C11O4)3
_symmetry_space_group_name_H-M   'P 1'
_cell_length_a   15.42000000
_cell_length_b   15.84200000
_cell_length_c   17.81900000
_cell_angle_alpha   112.76300000
_cell_angle_beta   112.20300000
_cell_angle_gamma   95.42500000
_symmetry_Int_Tables_number   1
_chemical_formula_structural   Cd2H24(C11O4)3
_chemical_formula_sum   'Cd6 H72 C99 O36'
_cell_volume   3565.40609966
_cell_formula_units_Z   3
loop_
 _symmetry_equiv_pos_site_id
 _symmetry_equiv_pos_as_xyz
  1  'x, y, z'
loop_
 _atom_site_type_symbol
 _atom_site_label
 _atom_site_symmetry_multiplicity
 _atom_site_fract_x
 _atom_site_fract_y
 _atom_site_fract_z
 _atom_site_occupancy
  Cd  Cd0  1  0.00319000  0.31406000  0.90686000  1
  Cd  Cd1  1  0.22823000  0.44949000  0.92367000  1
  Cd  Cd2  1  0.35304000  0.68624000  0.95877000  1
  Cd  Cd3  1  0.59262000  0.81935000  0.99859000  1
  Cd  Cd4  1  0.77394000  0.89512000  0.92181000  1
  Cd  Cd5  1  0.85277000  0.07800000  0.84865000  1
  H  H6  1  0.01640000  0.12320000  0.77500000  1
  H  H7  1  0.04380000  0.85710000  0.46050000  1
  H  H8  1  0.05670000  0.90020000  0.34590000  1
  H  H9  1  0.07920000  0.53820000  0.28580000  1
  H  H10  1  0.08060000  0.64960000  0.41610000  1
  H  H11  1  0.08700000  0.09060000  0.25580000  1
  H  H12  1  0.10530000  0.45450000  0.15740000  1
  H  H13  1  0.11260000  0.82270000  0.52980000  1
  H  H14  1  0.12110000  0.77580000  0.25570000  1
  H  H15  1  0.15140000  0.04960000  0.05630000  1
  H  H16  1  0.15320000  0.99350000  0.57800000  1
  H  H17  1  0.17740000  0.69870000  0.15090000  1
  H  H18  1  0.18960000  0.31400000  0.08600000  1
  H  H19  1  0.19230000  0.01560000  0.47560000  1
  H  H20  1  0.21320000  0.15610000  0.68480000  1
  H  H21  1  0.22310000  0.94560000  0.40290000  1
  H  H22  1  0.22640000  0.68280000  0.65920000  1
  H  H23  1  0.26320000  0.61680000  0.75910000  1
  H  H24  1  0.28880000  0.19890000  0.52130000  1
  H  H25  1  0.28920000  0.97750000  0.70610000  1
  H  H26  1  0.30610000  0.31570000  0.66340000  1
  H  H27  1  0.30650000  0.16850000  0.60080000  1
  H  H28  1  0.30980000  0.08660000  0.16390000  1
  H  H29  1  0.34360000  0.11280000  0.40180000  1
  H  H30  1  0.34510000  0.36020000  0.20160000  1
  H  H31  1  0.34540000  0.47540000  0.77630000  1
  H  H32  1  0.36100000  0.91420000  0.80550000  1
  H  H33  1  0.37880000  0.82540000  0.28330000  1
  H  H34  1  0.39220000  0.96600000  0.51200000  1
  H  H35  1  0.43230000  0.78030000  0.17060000  1
  H  H36  1  0.44360000  0.09820000  0.32760000  1
  H  H37  1  0.44730000  0.11470000  0.47240000  1
  H  H38  1  0.45870000  0.06910000  0.59470000  1
  H  H39  1  0.47240000  0.38420000  0.34010000  1
  H  H40  1  0.50090000  0.36400000  0.25820000  1
  H  H41  1  0.50420000  0.05490000  0.22280000  1
  H  H42  1  0.51250000  0.96720000  0.63860000  1
  H  H43  1  0.51640000  0.44480000  0.14080000  1
  H  H44  1  0.56410000  0.24010000  0.39700000  1
  H  H45  1  0.57110000  0.34450000  0.46740000  1
  H  H46  1  0.57450000  0.69470000  0.13920000  1
  H  H47  1  0.57970000  0.24620000  0.53590000  1
  H  H48  1  0.58000000  0.59440000  0.59770000  1
  H  H49  1  0.58330000  0.37060000  0.69690000  1
  H  H50  1  0.59060000  0.92150000  0.75210000  1
  H  H51  1  0.60600000  0.21580000  0.27320000  1
  H  H52  1  0.61390000  0.53180000  0.79340000  1
  H  H53  1  0.62290000  0.17660000  0.63480000  1
  H  H54  1  0.63880000  0.75120000  0.69730000  1
  H  H55  1  0.65820000  0.47620000  0.37290000  1
  H  H56  1  0.67630000  0.48480000  0.25430000  1
  H  H57  1  0.67660000  0.35930000  0.13170000  1
  H  H58  1  0.68730000  0.15000000  0.20540000  1
  H  H59  1  0.71300000  0.28700000  0.34580000  1
  H  H60  1  0.73130000  0.74300000  0.26140000  1
  H  H61  1  0.73170000  0.45580000  0.45190000  1
  H  H62  1  0.73220000  0.28360000  0.02640000  1
  H  H63  1  0.74530000  0.07260000  0.10310000  1
  H  H64  1  0.76190000  0.62580000  0.49150000  1
  H  H65  1  0.82310000  0.78670000  0.59450000  1
  H  H66  1  0.85700000  0.77210000  0.41440000  1
  H  H67  1  0.86260000  0.30970000  0.58360000  1
  H  H68  1  0.88370000  0.74490000  0.33080000  1
  H  H69  1  0.88980000  0.84160000  0.24570000  1
  H  H70  1  0.90330000  0.24970000  0.68700000  1
  H  H71  1  0.92920000  0.01280000  0.13450000  1
  H  H72  1  0.93270000  0.60200000  0.45180000  1
  H  H73  1  0.93330000  0.70090000  0.52620000  1
  H  H74  1  0.93630000  0.57390000  0.57010000  1
  H  H75  1  0.95020000  0.96480000  0.66630000  1
  H  H76  1  0.97370000  0.50200000  0.66400000  1
  H  H77  1  0.97480000  0.59890000  0.32980000  1
  C  C78  1  0.00250000  0.58200000  0.60810000  1
  C  C79  1  0.00500000  0.00300000  0.67080000  1
  C  C80  1  0.02280000  0.66140000  0.37690000  1
  C  C81  1  0.02530000  0.54120000  0.66510000  1
  C  C82  1  0.02880000  0.92740000  0.30660000  1
  C  C83  1  0.04210000  0.09760000  0.73290000  1
  C  C84  1  0.04460000  0.82280000  0.49680000  1
  C  C85  1  0.04740000  0.96280000  0.61420000  1
  C  C86  1  0.04790000  0.03680000  0.25090000  1
  C  C87  1  0.05480000  0.15220000  0.98310000  1
  C  C88  1  0.07740000  0.63520000  0.60680000  1
  C  C89  1  0.08550000  0.00280000  0.31240000  1
  C  C90  1  0.08630000  0.66280000  0.27430000  1
  C  C91  1  0.09010000  0.56870000  0.25230000  1
  C  C92  1  0.11060000  0.52070000  0.17880000  1
  C  C93  1  0.11730000  0.15710000  0.73550000  1
  C  C94  1  0.11870000  0.71040000  0.23730000  1
  C  C95  1  0.12130000  0.55450000  0.72530000  1
  C  C96  1  0.12460000  0.01970000  0.61740000  1
  C  C97  1  0.13860000  0.56870000  0.13740000  1
  C  C98  1  0.14450000  0.51620000  0.79180000  1
  C  C99  1  0.14860000  0.66300000  0.17210000  1
  C  C100  1  0.15380000  0.17560000  0.05920000  1
  C  C101  1  0.15430000  0.25900000  0.79850000  1
  C  C102  1  0.15910000  0.11700000  0.68040000  1
  C  C103  1  0.16310000  0.51630000  0.05960000  1
  C  C104  1  0.17550000  0.64760000  0.66230000  1
  C  C105  1  0.19200000  0.11290000  0.08490000  1
  C  C106  1  0.19690000  0.60820000  0.72090000  1
  C  C107  1  0.21400000  0.26810000  0.10340000  1
  C  C108  1  0.22580000  0.01290000  0.43740000  1
  C  C109  1  0.28560000  0.13400000  0.14940000  1
  C  C110  1  0.30700000  0.29550000  0.17090000  1
  C  C111  1  0.33220000  0.17350000  0.55900000  1
  C  C112  1  0.33380000  0.07580000  0.49810000  1
  C  C113  1  0.34530000  0.22990000  0.19410000  1
  C  C114  1  0.34950000  0.96350000  0.71330000  1
  C  C115  1  0.36950000  0.35830000  0.69180000  1
  C  C116  1  0.37690000  0.07970000  0.43630000  1
  C  C117  1  0.39060000  0.02840000  0.55380000  1
  C  C118  1  0.39300000  0.45410000  0.75800000  1
  C  C119  1  0.39310000  0.92840000  0.77390000  1
  C  C120  1  0.39430000  0.97850000  0.66270000  1
  C  C121  1  0.40240000  0.96520000  0.31560000  1
  C  C122  1  0.40270000  0.87240000  0.26980000  1
  C  C123  1  0.42720000  0.53860000  0.05590000  1
  C  C124  1  0.43680000  0.84530000  0.20410000  1
  C  C125  1  0.44190000  0.03340000  0.29690000  1
  C  C126  1  0.44270000  0.32950000  0.67010000  1
  C  C127  1  0.47770000  0.91560000  0.18850000  1
  C  C128  1  0.47800000  0.00730000  0.23450000  1
  C  C129  1  0.48270000  0.96000000  0.67450000  1
  C  C130  1  0.48340000  0.51680000  0.79620000  1
  C  C131  1  0.48550000  0.91410000  0.78810000  1
  C  C132  1  0.49900000  0.34180000  0.30250000  1
  C  C133  1  0.50290000  0.61910000  0.86270000  1
  C  C134  1  0.51770000  0.88730000  0.12230000  1
  C  C135  1  0.52770000  0.93030000  0.74080000  1
  C  C136  1  0.52970000  0.56640000  0.13090000  1
  C  C137  1  0.53320000  0.39250000  0.71040000  1
  C  C138  1  0.53380000  0.87580000  0.85400000  1
  C  C139  1  0.55310000  0.48760000  0.77050000  1
  C  C140  1  0.56040000  0.50510000  0.16420000  1
  C  C141  1  0.59430000  0.65280000  0.16460000  1
  C  C142  1  0.60190000  0.30820000  0.43070000  1
  C  C143  1  0.60230000  0.34560000  0.36380000  1
  C  C144  1  0.62990000  0.63370000  0.59710000  1
  C  C145  1  0.64510000  0.24480000  0.56480000  1
  C  C146  1  0.64580000  0.28320000  0.30600000  1
  C  C147  1  0.65520000  0.52860000  0.23200000  1
  C  C148  1  0.66230000  0.44950000  0.41560000  1
  C  C149  1  0.66520000  0.72570000  0.65580000  1
  C  C150  1  0.66630000  0.59450000  0.53400000  1
  C  C151  1  0.67230000  0.20580000  0.62590000  1
  C  C152  1  0.68040000  0.26350000  0.18130000  1
  C  C153  1  0.68900000  0.68110000  0.23570000  1
  C  C154  1  0.69190000  0.30120000  0.12610000  1
  C  C155  1  0.69830000  0.17800000  0.17010000  1
  C  C156  1  0.71790000  0.28150000  0.54810000  1
  C  C157  1  0.71850000  0.61830000  0.26640000  1
  C  C158  1  0.72490000  0.25620000  0.06330000  1
  C  C159  1  0.73200000  0.13160000  0.10890000  1
  C  C160  1  0.73700000  0.65170000  0.53420000  1
  C  C161  1  0.73950000  0.78630000  0.65910000  1
  C  C162  1  0.74720000  0.17160000  0.05400000  1
  C  C163  1  0.76580000  0.20790000  0.67280000  1
  C  C164  1  0.77380000  0.74730000  0.59570000  1
  C  C165  1  0.78290000  0.88720000  0.72900000  1
  C  C166  1  0.78620000  0.12400000  0.99220000  1
  C  C167  1  0.78810000  0.88070000  0.11350000  1
  C  C168  1  0.79130000  0.16340000  0.73330000  1
  C  C169  1  0.81330000  0.28340000  0.59440000  1
  C  C170  1  0.83720000  0.24770000  0.65550000  1
  C  C171  1  0.87920000  0.72490000  0.37570000  1
  C  C172  1  0.89090000  0.92070000  0.17830000  1
  C  C173  1  0.93020000  0.88910000  0.24390000  1
  C  C174  1  0.95230000  0.99300000  0.18070000  1
  C  C175  1  0.96860000  0.67050000  0.49170000  1
  C  C176  1  0.97800000  0.71990000  0.43410000  1
  O  O177  1  0.00010000  0.06550000  0.93830000  1
  O  O178  1  0.00830000  0.86690000  0.55850000  1
  O  O179  1  0.01940000  0.21390000  0.96950000  1
  O  O180  1  0.05100000  0.71070000  0.33410000  1
  O  O181  1  0.06610000  0.68150000  0.55260000  1
  O  O182  1  0.08290000  0.45900000  0.78970000  1
  O  O183  1  0.11420000  0.29820000  0.85130000  1
  O  O184  1  0.14390000  0.42610000  0.02750000  1
  O  O185  1  0.18080000  0.04980000  0.37710000  1
  O  O186  1  0.19570000  0.55810000  0.02900000  1
  O  O187  1  0.22510000  0.31120000  0.80500000  1
  O  O188  1  0.23440000  0.54390000  0.85410000  1
  O  O189  1  0.34640000  0.01500000  0.60550000  1
  O  O190  1  0.36350000  0.98210000  0.37430000  1
  O  O191  1  0.37550000  0.45790000  0.02490000  1
  O  O192  1  0.39920000  0.59950000  0.03310000  1
  O  O193  1  0.42970000  0.23690000  0.61090000  1
  O  O194  1  0.43470000  0.64780000  0.87470000  1
  O  O195  1  0.43740000  0.24480000  0.25460000  1
  O  O196  1  0.49510000  0.86780000  0.90420000  1
  O  O197  1  0.49870000  0.79890000  0.06770000  1
  O  O198  1  0.57240000  0.95070000  0.12090000  1
  O  O199  1  0.58960000  0.67330000  0.90590000  1
  O  O200  1  0.61070000  0.85480000  0.85950000  1
  O  O201  1  0.62150000  0.49830000  0.47410000  1
  O  O202  1  0.64710000  0.31570000  0.24220000  1
  O  O203  1  0.69960000  0.31900000  0.48830000  1
  O  O204  1  0.72580000  0.10900000  0.73370000  1
  O  O205  1  0.73190000  0.82780000  0.12280000  1
  O  O206  1  0.75410000  0.90050000  0.04660000  1
  O  O207  1  0.76320000  0.91850000  0.79770000  1
  O  O208  1  0.79410000  0.16130000  0.93880000  1
  O  O209  1  0.81190000  0.63260000  0.32970000  1
  O  O210  1  0.81490000  0.05380000  0.99070000  1
  O  O211  1  0.83740000  0.94410000  0.72140000  1
  O  O212  1  0.88170000  0.18050000  0.78980000  1
