# generated using pymatgen
data_GdP4H8Ru2(C2O7)2
_symmetry_space_group_name_H-M   'P 1'
_cell_length_a   9.61160000
_cell_length_b   9.61160000
_cell_length_c   15.54800000
_cell_angle_alpha   92.93020000
_cell_angle_beta   92.93020000
_cell_angle_gamma   99.07450000
_symmetry_Int_Tables_number   1
_chemical_formula_structural   GdP4H8Ru2(C2O7)2
_chemical_formula_sum   'Gd2 P8 H16 Ru4 C8 O28'
_cell_volume   1413.98375217
_cell_formula_units_Z   2
loop_
 _symmetry_equiv_pos_site_id
 _symmetry_equiv_pos_as_xyz
  1  'x, y, z'
loop_
 _atom_site_type_symbol
 _atom_site_label
 _atom_site_symmetry_multiplicity
 _atom_site_fract_x
 _atom_site_fract_y
 _atom_site_fract_z
 _atom_site_occupancy
  Gd  Gd0  1  0.01105000  0.98895000  0.25000000  1
  Gd  Gd1  1  0.98895000  0.01105000  0.75000000  1
  P  P2  1  0.65091000  0.97641000  0.15404000  1
  P  P3  1  0.64558000  0.95470000  0.85517000  1
  P  P4  1  0.97641000  0.65091000  0.65404000  1
  P  P5  1  0.95470000  0.64558000  0.35517000  1
  P  P6  1  0.04530000  0.35442000  0.64483000  1
  P  P7  1  0.02359000  0.34909000  0.34596000  1
  P  P8  1  0.35442000  0.04530000  0.14483000  1
  P  P9  1  0.34909000  0.02359000  0.84596000  1
  H  H10  1  0.36730000  0.87170000  0.68410000  1
  H  H11  1  0.52500000  0.83760000  0.68620000  1
  H  H12  1  0.42200000  0.82400000  0.23000000  1
  H  H13  1  0.41820000  0.77220000  0.75480000  1
  H  H14  1  0.12830000  0.63270000  0.81590000  1
  H  H15  1  0.22780000  0.58180000  0.74520000  1
  H  H16  1  0.17600000  0.57800000  0.27000000  1
  H  H17  1  0.83760000  0.52500000  0.18620000  1
  H  H18  1  0.16240000  0.47500000  0.81380000  1
  H  H19  1  0.82400000  0.42200000  0.73000000  1
  H  H20  1  0.77220000  0.41820000  0.25480000  1
  H  H21  1  0.87170000  0.36730000  0.18410000  1
  H  H22  1  0.58180000  0.22780000  0.24520000  1
  H  H23  1  0.57800000  0.17600000  0.77000000  1
  H  H24  1  0.47500000  0.16240000  0.31380000  1
  H  H25  1  0.63270000  0.12830000  0.31590000  1
  Ru  Ru26  1  0.45435000  0.87877000  0.99805000  1
  Ru  Ru27  1  0.12123000  0.54565000  0.50195000  1
  Ru  Ru28  1  0.87877000  0.45435000  0.49805000  1
  Ru  Ru29  1  0.54565000  0.12123000  0.00195000  1
  C  C30  1  0.49540000  0.98260000  0.78280000  1
  C  C31  1  0.44730000  0.85470000  0.72160000  1
  C  C32  1  0.14530000  0.55270000  0.77840000  1
  C  C33  1  0.01740000  0.50460000  0.71720000  1
  C  C34  1  0.98260000  0.49540000  0.28280000  1
  C  C35  1  0.85470000  0.44730000  0.22160000  1
  C  C36  1  0.55270000  0.14530000  0.27840000  1
  C  C37  1  0.50460000  0.01740000  0.21720000  1
  O  O38  1  0.77050000  0.95410000  0.21430000  1
  O  O39  1  0.76510000  0.92310000  0.80120000  1
  O  O40  1  0.30980000  0.90880000  0.08590000  1
  O  O41  1  0.44940000  0.89960000  0.26660000  1
  O  O42  1  0.30890000  0.89530000  0.90160000  1
  O  O43  1  0.59350000  0.84490000  0.09360000  1
  O  O44  1  0.59090000  0.83150000  0.91050000  1
  O  O45  1  0.95410000  0.77050000  0.71430000  1
  O  O46  1  0.92310000  0.76510000  0.30120000  1
  O  O47  1  0.10470000  0.69110000  0.59840000  1
  O  O48  1  0.09120000  0.69020000  0.41410000  1
  O  O49  1  0.84490000  0.59350000  0.59360000  1
  O  O50  1  0.83150000  0.59090000  0.41050000  1
  O  O51  1  0.10040000  0.55060000  0.23340000  1
  O  O52  1  0.89960000  0.44940000  0.76660000  1
  O  O53  1  0.16850000  0.40910000  0.58950000  1
  O  O54  1  0.15510000  0.40650000  0.40640000  1
  O  O55  1  0.90880000  0.30980000  0.58590000  1
  O  O56  1  0.89530000  0.30890000  0.40160000  1
  O  O57  1  0.07690000  0.23490000  0.69880000  1
  O  O58  1  0.04590000  0.22950000  0.28570000  1
  O  O59  1  0.40910000  0.16850000  0.08950000  1
  O  O60  1  0.40650000  0.15510000  0.90640000  1
  O  O61  1  0.69110000  0.10470000  0.09840000  1
  O  O62  1  0.55060000  0.10040000  0.73340000  1
  O  O63  1  0.69020000  0.09120000  0.91410000  1
  O  O64  1  0.23490000  0.07690000  0.19880000  1
  O  O65  1  0.22950000  0.04590000  0.78570000  1
