# generated using pymatgen
data_Zn2H36C41(N2O3)4
_symmetry_space_group_name_H-M   'P 1'
_cell_length_a   9.14220000
_cell_length_b   13.75099692
_cell_length_c   20.30100000
_cell_angle_alpha   86.07276474
_cell_angle_beta   78.11000000
_cell_angle_gamma   70.58430263
_symmetry_Int_Tables_number   1
_chemical_formula_structural   Zn2H36C41(N2O3)4
_chemical_formula_sum   'Zn4 H72 C82 N16 O24'
_cell_volume   2355.34984906
_cell_formula_units_Z   2
loop_
 _symmetry_equiv_pos_site_id
 _symmetry_equiv_pos_as_xyz
  1  'x, y, z'
loop_
 _atom_site_type_symbol
 _atom_site_label
 _atom_site_symmetry_multiplicity
 _atom_site_fract_x
 _atom_site_fract_y
 _atom_site_fract_z
 _atom_site_occupancy
  C  C0  1  0.14350000  0.71300000  0.25000000  1
  C  C1  1  0.85650000  0.28700000  0.75000000  1
  C  C2  1  0.29381000  0.39818000  0.36530000  1
  C  C3  1  0.69199000  0.60182000  0.86530000  1
  C  C4  1  0.02033000  0.91094000  0.91650000  1
  C  C5  1  0.93127000  0.08906000  0.41650000  1
  C  C6  1  0.34027000  0.26526000  0.78420000  1
  C  C7  1  0.60553000  0.73474000  0.28420000  1
  C  C8  1  0.43346000  0.07768000  0.78500000  1
  C  C9  1  0.51114000  0.92232000  0.28500000  1
  C  C10  1  0.97295000  0.99770000  0.61920000  1
  C  C11  1  0.97065000  0.00230000  0.11920000  1
  C  C12  1  0.28582000  0.32636000  0.09760000  1
  C  C13  1  0.61218000  0.67364000  0.59760000  1
  C  C14  1  0.35882000  0.17156000  0.81988000  1
  C  C15  1  0.53038000  0.82844000  0.31988000  1
  C  C16  1  0.19286000  0.49488000  0.14441000  1
  C  C17  1  0.68774000  0.50512000  0.64441000  1
  C  C18  1  0.08721000  0.68518000  0.49744000  1
  C  C19  1  0.77239000  0.31482000  0.99744000  1
  C  C20  1  0.95851000  0.93518000  0.36102000  1
  C  C21  1  0.89369000  0.06482000  0.86102000  1
  C  C22  1  0.08418000  0.64784000  0.21127000  1
  C  C23  1  0.73202000  0.35216000  0.71127000  1
  C  C24  1  0.00082000  0.78176000  0.29932000  1
  C  C25  1  0.78258000  0.21824000  0.79932000  1
  C  C26  1  0.29820000  0.17140000  0.89450000  1
  C  C27  1  0.46960000  0.82860000  0.39450000  1
  C  C28  1  0.11973000  0.50194000  0.53100000  1
  C  C29  1  0.62167000  0.49806000  0.03100000  1
  C  C30  1  0.03945000  0.59070000  0.49898000  1
  C  C31  1  0.63015000  0.40930000  0.99898000  1
  C  C32  1  0.06031000  0.51618000  0.11650000  1
  C  C33  1  0.57649000  0.48382000  0.61650000  1
  C  C34  1  0.08381000  0.41058000  0.53220000  1
  C  C35  1  0.49439000  0.58942000  0.03220000  1
  C  C36  1  0.79571000  0.95798000  0.37940000  1
  C  C37  1  0.75369000  0.04202000  0.87940000  1
  C  C38  1  0.04822000  0.43976000  0.07970000  1
  C  C39  1  0.48798000  0.56024000  0.57970000  1
  C  C40  1  0.24416000  0.04708000  0.08430000  1
  C  C41  1  0.29124000  0.95292000  0.58430000  1
  C  C42  1  0.75584000  0.95292000  0.91570000  1
  C  C43  1  0.70876000  0.04708000  0.41570000  1
  C  C44  1  0.95178000  0.56024000  0.92030000  1
  C  C45  1  0.51202000  0.43976000  0.42030000  1
  C  C46  1  0.20429000  0.04202000  0.62060000  1
  C  C47  1  0.24631000  0.95798000  0.12060000  1
  C  C48  1  0.91619000  0.58942000  0.46780000  1
  C  C49  1  0.50561000  0.41058000  0.96780000  1
  C  C50  1  0.93969000  0.48382000  0.88350000  1
  C  C51  1  0.42351000  0.51618000  0.38350000  1
  C  C52  1  0.96055000  0.40930000  0.50102000  1
  C  C53  1  0.36985000  0.59070000  0.00102000  1
  C  C54  1  0.88027000  0.49806000  0.46900000  1
  C  C55  1  0.37833000  0.50194000  0.96900000  1
  C  C56  1  0.70180000  0.82860000  0.10550000  1
  C  C57  1  0.53040000  0.17140000  0.60550000  1
  C  C58  1  0.99918000  0.21824000  0.70068000  1
  C  C59  1  0.21742000  0.78176000  0.20068000  1
  C  C60  1  0.91582000  0.35216000  0.78873000  1
  C  C61  1  0.26798000  0.64784000  0.28873000  1
  C  C62  1  0.04149000  0.06482000  0.63898000  1
  C  C63  1  0.10631000  0.93518000  0.13898000  1
  C  C64  1  0.91279000  0.31482000  0.50256000  1
  C  C65  1  0.22761000  0.68518000  0.00256000  1
  C  C66  1  0.80714000  0.50512000  0.85559000  1
  C  C67  1  0.31226000  0.49488000  0.35559000  1
  C  C68  1  0.64118000  0.82844000  0.18012000  1
  C  C69  1  0.46962000  0.17156000  0.68012000  1
  C  C70  1  0.71418000  0.67364000  0.90240000  1
  C  C71  1  0.38782000  0.32636000  0.40240000  1
  C  C72  1  0.02705000  0.00230000  0.38080000  1
  C  C73  1  0.02935000  0.99770000  0.88080000  1
  C  C74  1  0.56654000  0.92232000  0.21500000  1
  C  C75  1  0.48886000  0.07768000  0.71500000  1
  C  C76  1  0.65973000  0.73474000  0.21580000  1
  C  C77  1  0.39447000  0.26526000  0.71580000  1
  C  C78  1  0.97967000  0.08906000  0.08350000  1
  C  C79  1  0.06873000  0.91094000  0.58350000  1
  C  C80  1  0.70619000  0.60182000  0.63470000  1
  C  C81  1  0.30801000  0.39818000  0.13470000  1
  H  H82  1  0.36370000  0.26200000  0.09100000  1
  H  H83  1  0.62570000  0.73800000  0.59100000  1
  H  H84  1  0.45540000  0.04140000  0.17690000  1
  H  H85  1  0.49680000  0.95860000  0.67690000  1
  H  H86  1  0.02220000  0.86640000  0.57060000  1
  H  H87  1  0.88860000  0.13360000  0.07060000  1
  H  H88  1  0.29090000  0.32760000  0.80720000  1
  H  H89  1  0.61850000  0.67240000  0.30720000  1
  H  H90  1  0.19980000  0.50360000  0.55220000  1
  H  H91  1  0.70340000  0.49640000  0.05220000  1
  H  H92  1  0.21900000  0.38260000  0.34700000  1
  H  H93  1  0.60160000  0.61740000  0.84700000  1
  H  H94  1  0.03140000  0.68900000  0.17690000  1
  H  H95  1  0.72040000  0.31100000  0.67690000  1
  H  H96  1  0.36070000  0.01940000  0.34160000  1
  H  H97  1  0.38010000  0.98060000  0.84160000  1
  H  H98  1  0.87570000  0.98840000  0.13000000  1
  H  H99  1  0.86410000  0.01160000  0.63000000  1
  H  H100  1  0.33830000  0.06180000  0.07180000  1
  H  H101  1  0.40010000  0.93820000  0.57180000  1
  H  H102  1  0.18770000  0.34440000  0.60000000  1
  H  H103  1  0.53210000  0.65560000  0.10000000  1
  H  H104  1  0.96291667  0.74080000  0.33540000  1
  H  H105  1  0.70371667  0.25920000  0.83540000  1
  H  H106  1  0.91510000  0.81800000  0.27620000  1
  H  H107  1  0.73310000  0.18200000  0.77620000  1
  H  H108  1  0.00960000  0.62100000  0.24150000  1
  H  H109  1  0.63060000  0.37900000  0.74150000  1
  H  H110  1  0.04020000  0.54520000  0.94000000  1
  H  H111  1  0.58540000  0.45480000  0.44000000  1
  H  H112  1  0.25360000  0.08560000  0.63240000  1
  H  H113  1  0.33920000  0.91440000  0.13240000  1
  H  H114  1  0.98150000  0.58020000  0.12230000  1
  H  H115  1  0.56170000  0.41980000  0.62230000  1
  H  H116  1  0.13130000  0.27880000  0.56970000  1
  H  H117  1  0.41010000  0.72120000  0.06970000  1
  H  H118  1  0.86870000  0.72120000  0.43030000  1
  H  H119  1  0.58990000  0.27880000  0.93030000  1
  H  H120  1  0.01850000  0.41980000  0.87770000  1
  H  H121  1  0.43830000  0.58020000  0.37770000  1
  H  H122  1  0.74640000  0.91440000  0.36760000  1
  H  H123  1  0.66080000  0.08560000  0.86760000  1
  H  H124  1  0.95980000  0.45480000  0.06000000  1
  H  H125  1  0.41460000  0.54520000  0.56000000  1
  H  H126  1  0.99040000  0.37900000  0.75850000  1
  H  H127  1  0.36940000  0.62100000  0.25850000  1
  H  H128  1  0.08490000  0.18200000  0.72380000  1
  H  H129  1  0.26690000  0.81800000  0.22380000  1
  H  H130  1  0.03708333  0.25920000  0.66460000  1
  H  H131  1  0.29628333  0.74080000  0.16460000  1
  H  H132  1  0.81230000  0.65560000  0.40000000  1
  H  H133  1  0.46790000  0.34440000  0.90000000  1
  H  H134  1  0.66170000  0.93820000  0.92820000  1
  H  H135  1  0.59990000  0.06180000  0.42820000  1
  H  H136  1  0.12430000  0.01160000  0.87000000  1
  H  H137  1  0.13590000  0.98840000  0.37000000  1
  H  H138  1  0.63930000  0.98060000  0.65840000  1
  H  H139  1  0.61990000  0.01940000  0.15840000  1
  H  H140  1  0.96860000  0.31100000  0.82310000  1
  H  H141  1  0.27960000  0.68900000  0.32310000  1
  H  H142  1  0.78100000  0.61740000  0.65300000  1
  H  H143  1  0.39840000  0.38260000  0.15300000  1
  H  H144  1  0.80020000  0.49640000  0.44780000  1
  H  H145  1  0.29660000  0.50360000  0.94780000  1
  H  H146  1  0.70910000  0.67240000  0.19280000  1
  H  H147  1  0.38150000  0.32760000  0.69280000  1
  H  H148  1  0.97780000  0.13360000  0.42940000  1
  H  H149  1  0.11140000  0.86640000  0.92940000  1
  H  H150  1  0.54460000  0.95860000  0.82310000  1
  H  H151  1  0.50320000  0.04140000  0.32310000  1
  H  H152  1  0.63630000  0.73800000  0.90900000  1
  H  H153  1  0.37430000  0.26200000  0.40900000  1
  N  N154  1  0.43760000  0.01920000  0.30870000  1
  N  N155  1  0.45680000  0.98080000  0.80870000  1
  N  N156  1  0.17620000  0.32580000  0.56210000  1
  N  N157  1  0.50200000  0.67420000  0.06210000  1
  N  N158  1  0.88543000  0.88674000  0.93383000  1
  N  N159  1  0.77217000  0.11326000  0.43383000  1
  N  N160  1  0.15650000  0.34420000  0.07005000  1
  N  N161  1  0.50070000  0.65580000  0.57005000  1
  N  N162  1  0.84350000  0.65580000  0.92995000  1
  N  N163  1  0.49930000  0.34420000  0.42995000  1
  N  N164  1  0.11457000  0.11326000  0.06617000  1
  N  N165  1  0.22783000  0.88674000  0.56617000  1
  N  N166  1  0.82380000  0.67420000  0.43790000  1
  N  N167  1  0.49800000  0.32580000  0.93790000  1
  N  N168  1  0.56240000  0.98080000  0.69130000  1
  N  N169  1  0.54320000  0.01920000  0.19130000  1
  O  O170  1  0.21555000  0.56430000  0.31930000  1
  O  O171  1  0.77985000  0.43570000  0.81930000  1
  O  O172  1  0.05956000  0.85308000  0.32517000  1
  O  O173  1  0.91264000  0.14692000  0.82517000  1
  O  O174  1  0.11687000  0.67406000  0.97793000  1
  O  O175  1  0.79093000  0.32594000  0.47793000  1
  O  O176  1  0.00960000  0.76760000  0.47388000  1
  O  O177  1  0.77720000  0.23240000  0.97388000  1
  O  O178  1  0.33923000  0.09174000  0.92751000  1
  O  O179  1  0.43097000  0.90826000  0.42751000  1
  O  O180  1  0.20369000  0.25722000  0.92080000  1
  O  O181  1  0.46091000  0.74278000  0.42080000  1
  O  O182  1  0.79631000  0.74278000  0.07920000  1
  O  O183  1  0.53909000  0.25722000  0.57920000  1
  O  O184  1  0.66077000  0.90826000  0.07249000  1
  O  O185  1  0.56903000  0.09174000  0.57249000  1
  O  O186  1  0.99040000  0.23240000  0.52612000  1
  O  O187  1  0.22280000  0.76760000  0.02612000  1
  O  O188  1  0.88313000  0.32594000  0.02207000  1
  O  O189  1  0.20907000  0.67406000  0.52207000  1
  O  O190  1  0.94044000  0.14692000  0.67483000  1
  O  O191  1  0.08736000  0.85308000  0.17483000  1
  O  O192  1  0.78445000  0.43570000  0.68070000  1
  O  O193  1  0.22015000  0.56430000  0.18070000  1
  Zn  Zn194  1  0.89367000  0.75570000  0.98513000  1
  Zn  Zn195  1  0.64937000  0.24430000  0.48513000  1
  Zn  Zn196  1  0.10633000  0.24430000  0.01487000  1
  Zn  Zn197  1  0.35063000  0.75570000  0.51487000  1
