# generated using pymatgen
data_YH8C12(NO3)2
_symmetry_space_group_name_H-M   'P 1'
_cell_length_a   10.71751718
_cell_length_b   10.71751718
_cell_length_c   18.68350000
_cell_angle_alpha   74.24424758
_cell_angle_beta   74.24424758
_cell_angle_gamma   63.89136814
_symmetry_Int_Tables_number   1
_chemical_formula_structural   YH8C12(NO3)2
_chemical_formula_sum   'Y4 H32 C48 N8 O24'
_cell_volume   1825.76743490
_cell_formula_units_Z   4
loop_
 _symmetry_equiv_pos_site_id
 _symmetry_equiv_pos_as_xyz
  1  'x, y, z'
loop_
 _atom_site_type_symbol
 _atom_site_label
 _atom_site_symmetry_multiplicity
 _atom_site_fract_x
 _atom_site_fract_y
 _atom_site_fract_z
 _atom_site_occupancy
  C  C0  1  0.44370000  0.76090000  0.92900000  1
  C  C1  1  0.76090000  0.44370000  0.42900000  1
  C  C2  1  0.53960000  0.68960000  0.20920000  1
  C  C3  1  0.68960000  0.53960000  0.70920000  1
  C  C4  1  0.47100000  0.75840000  0.47840000  1
  C  C5  1  0.75840000  0.47100000  0.97840000  1
  C  C6  1  0.43050000  0.90510000  0.89030000  1
  C  C7  1  0.90510000  0.43050000  0.39030000  1
  C  C8  1  0.48170000  0.88510000  0.48980000  1
  C  C9  1  0.88510000  0.48170000  0.98980000  1
  C  C10  1  0.55540000  0.83200000  0.17550000  1
  C  C11  1  0.83200000  0.55540000  0.67550000  1
  C  C12  1  0.45010000  0.94590000  0.81080000  1
  C  C13  1  0.94590000  0.45010000  0.31080000  1
  C  C14  1  0.40870000  0.00390000  0.93600000  1
  C  C15  1  0.00390000  0.40870000  0.43600000  1
  C  C16  1  0.55080000  0.87240000  0.54480000  1
  C  C17  1  0.87240000  0.55080000  0.04480000  1
  C  C18  1  0.42740000  0.01720000  0.44350000  1
  C  C19  1  0.01720000  0.42740000  0.94350000  1
  C  C20  1  0.58510000  0.86730000  0.09600000  1
  C  C21  1  0.86730000  0.58510000  0.59600000  1
  C  C22  1  0.54740000  0.91540000  0.21960000  1
  C  C23  1  0.91540000  0.54740000  0.71960000  1
  C  C24  1  0.45260000  0.08460000  0.78040000  1
  C  C25  1  0.08460000  0.45260000  0.28040000  1
  C  C26  1  0.41490000  0.13270000  0.90400000  1
  C  C27  1  0.13270000  0.41490000  0.40400000  1
  C  C28  1  0.57260000  0.98280000  0.55650000  1
  C  C29  1  0.98280000  0.57260000  0.05650000  1
  C  C30  1  0.44920000  0.12760000  0.45520000  1
  C  C31  1  0.12760000  0.44920000  0.95520000  1
  C  C32  1  0.59130000  0.99610000  0.06400000  1
  C  C33  1  0.99610000  0.59130000  0.56400000  1
  C  C34  1  0.54990000  0.05410000  0.18920000  1
  C  C35  1  0.05410000  0.54990000  0.68920000  1
  C  C36  1  0.44460000  0.16800000  0.82450000  1
  C  C37  1  0.16800000  0.44460000  0.32450000  1
  C  C38  1  0.51830000  0.11490000  0.51020000  1
  C  C39  1  0.11490000  0.51830000  0.01020000  1
  C  C40  1  0.56950000  0.09490000  0.10970000  1
  C  C41  1  0.09490000  0.56950000  0.60970000  1
  C  C42  1  0.52900000  0.24160000  0.52160000  1
  C  C43  1  0.24160000  0.52900000  0.02160000  1
  C  C44  1  0.46040000  0.31040000  0.79080000  1
  C  C45  1  0.31040000  0.46040000  0.29080000  1
  C  C46  1  0.55630000  0.23910000  0.07100000  1
  C  C47  1  0.23910000  0.55630000  0.57100000  1
  H  H48  1  0.38270000  0.95150000  0.37080000  1
  H  H49  1  0.95150000  0.38270000  0.87080000  1
  H  H50  1  0.42720000  0.92000000  0.72220000  1
  H  H51  1  0.92000000  0.42720000  0.22220000  1
  H  H52  1  0.39010000  0.97990000  0.98830000  1
  H  H53  1  0.58480000  0.78520000  0.57590000  1
  H  H54  1  0.78520000  0.58480000  0.07590000  1
  H  H55  1  0.97990000  0.39010000  0.48830000  1
  H  H56  1  0.55280000  0.81880000  0.74690000  1
  H  H57  1  0.81880000  0.55280000  0.24690000  1
  H  H58  1  0.60020000  0.80400000  0.06580000  1
  H  H59  1  0.80400000  0.60020000  0.56580000  1
  H  H60  1  0.54010000  0.88350000  0.27140000  1
  H  H61  1  0.88350000  0.54010000  0.77140000  1
  H  H62  1  0.38000000  0.09080000  0.34600000  1
  H  H63  1  0.09080000  0.38000000  0.84600000  1
  H  H64  1  0.62000000  0.90920000  0.65400000  1
  H  H65  1  0.90920000  0.62000000  0.15400000  1
  H  H66  1  0.45990000  0.11650000  0.72860000  1
  H  H67  1  0.11650000  0.45990000  0.22860000  1
  H  H68  1  0.39980000  0.19600000  0.93420000  1
  H  H69  1  0.19600000  0.39980000  0.43420000  1
  H  H70  1  0.44720000  0.18120000  0.25310000  1
  H  H71  1  0.18120000  0.44720000  0.75310000  1
  H  H72  1  0.41520000  0.21480000  0.42410000  1
  H  H73  1  0.60990000  0.02010000  0.01170000  1
  H  H74  1  0.02010000  0.60990000  0.51170000  1
  H  H75  1  0.21480000  0.41520000  0.92410000  1
  H  H76  1  0.57280000  0.08000000  0.27780000  1
  H  H77  1  0.08000000  0.57280000  0.77780000  1
  H  H78  1  0.61730000  0.04850000  0.62920000  1
  H  H79  1  0.04850000  0.61730000  0.12920000  1
  N  N80  1  0.46350000  0.86750000  0.76160000  1
  N  N81  1  0.86750000  0.46350000  0.26160000  1
  N  N82  1  0.36200000  0.03200000  0.38700000  1
  N  N83  1  0.03200000  0.36200000  0.88700000  1
  N  N84  1  0.63800000  0.96800000  0.61300000  1
  N  N85  1  0.96800000  0.63800000  0.11300000  1
  N  N86  1  0.53650000  0.13250000  0.23840000  1
  N  N87  1  0.13250000  0.53650000  0.73840000  1
  O  O88  1  0.40890000  0.74070000  0.00040000  1
  O  O89  1  0.74070000  0.40890000  0.50040000  1
  O  O90  1  0.51060000  0.64540000  0.52670000  1
  O  O91  1  0.64540000  0.51060000  0.02670000  1
  O  O92  1  0.49400000  0.66420000  0.88770000  1
  O  O93  1  0.66420000  0.49400000  0.38770000  1
  O  O94  1  0.55560000  0.61520000  0.16530000  1
  O  O95  1  0.61520000  0.55560000  0.66530000  1
  O  O96  1  0.51430000  0.66290000  0.27850000  1
  O  O97  1  0.66290000  0.51430000  0.77850000  1
  O  O98  1  0.42260000  0.76580000  0.42150000  1
  O  O99  1  0.76580000  0.42260000  0.92150000  1
  O  O100  1  0.57740000  0.23420000  0.57850000  1
  O  O101  1  0.23420000  0.57740000  0.07850000  1
  O  O102  1  0.48570000  0.33710000  0.72150000  1
  O  O103  1  0.33710000  0.48570000  0.22150000  1
  O  O104  1  0.44440000  0.38480000  0.83470000  1
  O  O105  1  0.38480000  0.44440000  0.33470000  1
  O  O106  1  0.50600000  0.33580000  0.11230000  1
  O  O107  1  0.33580000  0.50600000  0.61230000  1
  O  O108  1  0.48940000  0.35460000  0.47330000  1
  O  O109  1  0.35460000  0.48940000  0.97330000  1
  O  O110  1  0.59110000  0.25930000  0.99960000  1
  O  O111  1  0.25930000  0.59110000  0.49960000  1
  Y  Y112  1  0.43417000  0.56831000  0.10389000  1
  Y  Y113  1  0.56831000  0.43417000  0.60389000  1
  Y  Y114  1  0.56583000  0.43169000  0.89611000  1
  Y  Y115  1  0.43169000  0.56583000  0.39611000  1
