# generated using pymatgen
data_AgH36C30(SN)4
_symmetry_space_group_name_H-M   'P 1'
_cell_length_a   13.68090000
_cell_length_b   18.46388809
_cell_length_c   18.46388809
_cell_angle_alpha   82.11105819
_cell_angle_beta   68.25494809
_cell_angle_gamma   68.25494809
_symmetry_Int_Tables_number   1
_chemical_formula_structural   AgH36C30(SN)4
_chemical_formula_sum   'Ag4 H144 C120 S16 N16'
_cell_volume   4023.87292184
_cell_formula_units_Z   4
loop_
 _symmetry_equiv_pos_site_id
 _symmetry_equiv_pos_as_xyz
  1  'x, y, z'
loop_
 _atom_site_type_symbol
 _atom_site_label
 _atom_site_symmetry_multiplicity
 _atom_site_fract_x
 _atom_site_fract_y
 _atom_site_fract_z
 _atom_site_occupancy
  Ag  Ag0  1  0.45266000  0.17234000  0.67234000  1
  Ag  Ag1  1  0.87500000  0.67234000  0.82766000  1
  Ag  Ag2  1  0.37500000  0.32766000  0.17234000  1
  Ag  Ag3  1  0.29734000  0.82766000  0.32766000  1
  C  C4  1  0.48210000  0.83780000  0.09200000  1
  C  C5  1  0.33810000  0.59200000  0.33780000  1
  C  C6  1  0.40590000  0.80260000  0.09540000  1
  C  C7  1  0.44610000  0.59540000  0.30260000  1
  C  C8  1  0.65460000  0.22590000  0.65170000  1
  C  C9  1  0.21780000  0.15170000  0.72590000  1
  C  C10  1  0.56560000  0.84310000  0.02130000  1
  C  C11  1  0.32000000  0.52130000  0.34310000  1
  C  C12  1  0.26730000  0.31790000  0.54590000  1
  C  C13  1  0.61890000  0.04590000  0.81790000  1
  C  C14  1  0.74710000  0.79790000  0.06570000  1
  C  C15  1  0.13930000  0.56570000  0.29790000  1
  C  C16  1  0.73760000  0.25120000  0.59720000  1
  C  C17  1  0.16400000  0.09720000  0.75120000  1
  C  C18  1  0.21010000  0.79520000  0.04820000  1
  C  C19  1  0.69650000  0.54820000  0.29520000  1
  C  C20  1  0.19480000  0.28220000  0.54160000  1
  C  C21  1  0.73140000  0.04160000  0.78220000  1
  C  C22  1  0.33690000  0.34310000  0.47870000  1
  C  C23  1  0.59130000  0.97870000  0.84310000  1
  C  C24  1  0.40980000  0.77170000  0.03010000  1
  C  C25  1  0.53840000  0.53010000  0.27170000  1
  C  C26  1  0.31670000  0.67850000  0.10870000  1
  C  C27  1  0.64610000  0.60870000  0.17850000  1
  C  C28  1  0.71900000  0.25450000  0.52890000  1
  C  C29  1  0.24760000  0.02890000  0.75450000  1
  C  C30  1  0.56320000  0.81790000  0.95410000  1
  C  C31  1  0.41480000  0.45410000  0.31790000  1
  C  C32  1  0.32680000  0.73140000  0.03720000  1
  C  C33  1  0.65460000  0.53720000  0.23140000  1
  C  C34  1  0.00830000  0.29520000  0.45180000  1
  C  C35  1  0.99470000  0.95180000  0.79520000  1
  C  C36  1  0.32410000  0.33780000  0.40800000  1
  C  C37  1  0.68010000  0.90800000  0.83780000  1
  C  C38  1  0.18990000  0.27170000  0.46990000  1
  C  C39  1  0.81850000  0.96990000  0.77170000  1
  C  C40  1  0.82030000  0.72550000  0.01550000  1
  C  C41  1  0.18870000  0.51550000  0.22550000  1
  C  C42  1  0.48640000  0.78220000  0.95840000  1
  C  C43  1  0.52300000  0.45840000  0.28220000  1
  C  C44  1  0.56280000  0.29790000  0.43430000  1
  C  C45  1  0.45500000  0.93430000  0.79790000  1
  C  C46  1  0.99790000  0.75450000  0.97110000  1
  C  C47  1  0.02650000  0.47110000  0.25450000  1
  C  C48  1  0.08010000  0.18150000  0.53430000  1
  C  C49  1  0.95410000  0.03430000  0.68150000  1
  C  C50  1  0.58580000  0.22550000  0.48450000  1
  C  C51  1  0.45420000  0.98450000  0.72550000  1
  C  C52  1  0.25130000  0.30260000  0.40460000  1
  C  C53  1  0.79150000  0.90460000  0.80260000  1
  C  C54  1  0.11400000  0.23140000  0.46280000  1
  C  C55  1  0.94180000  0.96280000  0.73140000  1
  C  C56  1  0.08480000  0.75120000  0.90280000  1
  C  C57  1  0.01120000  0.40280000  0.25120000  1
  C  C58  1  0.36440000  0.68150000  0.96570000  1
  C  C59  1  0.73840000  0.46570000  0.18150000  1
  C  C60  1  0.05630000  0.72590000  0.84830000  1
  C  C61  1  0.11950000  0.34830000  0.22590000  1
  C  C62  1  0.17540000  0.17850000  0.39130000  1
  C  C63  1  0.00480000  0.89130000  0.67850000  1
  C  C64  1  0.57460000  0.10870000  0.32150000  1
  C  C65  1  0.74520000  0.82150000  0.60870000  1
  C  C66  1  0.69370000  0.65170000  0.77410000  1
  C  C67  1  0.63050000  0.27410000  0.15170000  1
  C  C68  1  0.38560000  0.53430000  0.81850000  1
  C  C69  1  0.01160000  0.31850000  0.03430000  1
  C  C70  1  0.66520000  0.59720000  0.74880000  1
  C  C71  1  0.73880000  0.24880000  0.09720000  1
  C  C72  1  0.63600000  0.03720000  0.26860000  1
  C  C73  1  0.80820000  0.76860000  0.53720000  1
  C  C74  1  0.49870000  0.09540000  0.19740000  1
  C  C75  1  0.95850000  0.69740000  0.59540000  1
  C  C76  1  0.16420000  0.01550000  0.27450000  1
  C  C77  1  0.29580000  0.77450000  0.51550000  1
  C  C78  1  0.66990000  0.96570000  0.31850000  1
  C  C79  1  0.79590000  0.81850000  0.46570000  1
  C  C80  1  0.75210000  0.52890000  0.74550000  1
  C  C81  1  0.72350000  0.24550000  0.02890000  1
  C  C82  1  0.18720000  0.06570000  0.20210000  1
  C  C83  1  0.29500000  0.70210000  0.56570000  1
  C  C84  1  0.26360000  0.54160000  0.71780000  1
  C  C85  1  0.22700000  0.21780000  0.04160000  1
  C  C86  1  0.92970000  0.48450000  0.77450000  1
  C  C87  1  0.56130000  0.27450000  0.98450000  1
  C  C88  1  0.56010000  0.03010000  0.22830000  1
  C  C89  1  0.93150000  0.72830000  0.53010000  1
  C  C90  1  0.42590000  0.09200000  0.16220000  1
  C  C91  1  0.06990000  0.66220000  0.59200000  1
  C  C92  1  0.74170000  0.04820000  0.20480000  1
  C  C93  1  0.75530000  0.70480000  0.54820000  1
  C  C94  1  0.42320000  0.46280000  0.76860000  1
  C  C95  1  0.09540000  0.26860000  0.96280000  1
  C  C96  1  0.18680000  0.54590000  0.68210000  1
  C  C97  1  0.33520000  0.18210000  0.04590000  1
  C  C98  1  0.03100000  0.97110000  0.24550000  1
  C  C99  1  0.50240000  0.74550000  0.47110000  1
  C  C100  1  0.43330000  0.39130000  0.82150000  1
  C  C101  1  0.10390000  0.32150000  0.89130000  1
  C  C102  1  0.34020000  0.46990000  0.72830000  1
  C  C103  1  0.21160000  0.22830000  0.96990000  1
  C  C104  1  0.41310000  0.02130000  0.15690000  1
  C  C105  1  0.15870000  0.65690000  0.52130000  1
  C  C106  1  0.55520000  0.95840000  0.21780000  1
  C  C107  1  0.01860000  0.71780000  0.45840000  1
  C  C108  1  0.53990000  0.45180000  0.70480000  1
  C  C109  1  0.05350000  0.20480000  0.95180000  1
  C  C110  1  0.01240000  0.90280000  0.24880000  1
  C  C111  1  0.58600000  0.74880000  0.40280000  1
  C  C112  1  0.00290000  0.43430000  0.70210000  1
  C  C113  1  0.61070000  0.20210000  0.93430000  1
  C  C114  1  0.48270000  0.95410000  0.18210000  1
  C  C115  1  0.13110000  0.68210000  0.45410000  1
  C  C116  1  0.18440000  0.47870000  0.65690000  1
  C  C117  1  0.43000000  0.15690000  0.97870000  1
  C  C118  1  0.09540000  0.84830000  0.27410000  1
  C  C119  1  0.53220000  0.77410000  0.34830000  1
  C  C120  1  0.34410000  0.40460000  0.69740000  1
  C  C121  1  0.30390000  0.19740000  0.90460000  1
  C  C122  1  0.26790000  0.40800000  0.66220000  1
  C  C123  1  0.41190000  0.16220000  0.90800000  1
  H  H124  1  0.35000000  0.79970000  0.14410000  1
  H  H125  1  0.45620000  0.64410000  0.29970000  1
  H  H126  1  0.64570000  0.21730000  0.70530000  1
  H  H127  1  0.18170000  0.20530000  0.71730000  1
  H  H128  1  0.18980000  0.82920000  0.09160000  1
  H  H129  1  0.63940000  0.59160000  0.32920000  1
  H  H130  1  0.79500000  0.81530000  0.08330000  1
  H  H131  1  0.05640000  0.58330000  0.31530000  1
  H  H132  1  0.69220000  0.78400000  0.11260000  1
  H  H133  1  0.16120000  0.61260000  0.28400000  1
  H  H134  1  0.79430000  0.26340000  0.60560000  1
  H  H135  1  0.08670000  0.10560000  0.76340000  1
  H  H136  1  0.28980000  0.70970000  0.15550000  1
  H  H137  1  0.59500000  0.65550000  0.20970000  1
  H  H138  1  0.14900000  0.26500000  0.58800000  1
  H  H139  1  0.74800000  0.08800000  0.76500000  1
  H  H140  1  0.15390000  0.77040000  0.05940000  1
  H  H141  1  0.76630000  0.55940000  0.27040000  1
  H  H142  1  0.21330000  0.82610000  0.00030000  1
  H  H143  1  0.71030000  0.50030000  0.32610000  1
  H  H144  1  0.96360000  0.32610000  0.49970000  1
  H  H145  1  0.96060000  0.99970000  0.82610000  1
  H  H146  1  0.02900000  0.21550000  0.57930000  1
  H  H147  1  0.92620000  0.07930000  0.71550000  1
  H  H148  1  0.99210000  0.76870000  0.02050000  1
  H  H149  1  0.96870000  0.52050000  0.26870000  1
  H  H150  1  0.26360000  0.65290000  0.11290000  1
  H  H151  1  0.72060000  0.61290000  0.15290000  1
  H  H152  1  0.76260000  0.26870000  0.47950000  1
  H  H153  1  0.23920000  0.97950000  0.76870000  1
  H  H154  1  0.39040000  0.63900000  0.10340000  1
  H  H155  1  0.61720000  0.60340000  0.13900000  1
  H  H156  1  0.03140000  0.32920000  0.40840000  1
  H  H157  1  0.98100000  0.90840000  0.82920000  1
  H  H158  1  0.62830000  0.31530000  0.41670000  1
  H  H159  1  0.38970000  0.91670000  0.81530000  1
  H  H160  1  0.84120000  0.68040000  0.04940000  1
  H  H161  1  0.17900000  0.54940000  0.18040000  1
  H  H162  1  0.51530000  0.21460000  0.51140000  1
  H  H163  1  0.50870000  0.01140000  0.71460000  1
  H  H164  1  0.96330000  0.27040000  0.44060000  1
  H  H165  1  0.07570000  0.94060000  0.77040000  1
  H  H166  1  0.77670000  0.71460000  0.98860000  1
  H  H167  1  0.27010000  0.48860000  0.21460000  1
  H  H168  1  0.14730000  0.14680000  0.54520000  1
  H  H169  1  0.91070000  0.04520000  0.64680000  1
  H  H170  1  0.48700000  0.76500000  0.91200000  1
  H  H171  1  0.58600000  0.41200000  0.26500000  1
  H  H172  1  0.04220000  0.15030000  0.52410000  1
  H  H173  1  0.03340000  0.02410000  0.65030000  1
  H  H174  1  0.55480000  0.28400000  0.38740000  1
  H  H175  1  0.52380000  0.88740000  0.78400000  1
  H  H176  1  0.14990000  0.76340000  0.89440000  1
  H  H177  1  0.94230000  0.39440000  0.26340000  1
  H  H178  1  0.24410000  0.29970000  0.35590000  1
  H  H179  1  0.85030000  0.85590000  0.79970000  1
  H  H180  1  0.35830000  0.71550000  0.92070000  1
  H  H181  1  0.75550000  0.42070000  0.21550000  1
  H  H182  1  0.64060000  0.18040000  0.45060000  1
  H  H183  1  0.47840000  0.95060000  0.68040000  1
  H  H184  1  0.31630000  0.65030000  0.97590000  1
  H  H185  1  0.80750000  0.47590000  0.15030000  1
  H  H186  1  0.44250000  0.64680000  0.95480000  1
  H  H187  1  0.70590000  0.45480000  0.14680000  1
  H  H188  1  0.19530000  0.20970000  0.34450000  1
  H  H189  1  0.00050000  0.84450000  0.70970000  1
  H  H190  1  0.12650000  0.15290000  0.38710000  1
  H  H191  1  0.08350000  0.88710000  0.65290000  1
  H  H192  1  0.24380000  0.13900000  0.39660000  1
  H  H193  1  0.97060000  0.89660000  0.63900000  1
  H  H194  1  0.10100000  0.71730000  0.79470000  1
  H  H195  1  0.13700000  0.29470000  0.21730000  1
  H  H196  1  0.64900000  0.70530000  0.78270000  1
  H  H197  1  0.61300000  0.28270000  0.20530000  1
  H  H198  1  0.50620000  0.10340000  0.36100000  1
  H  H199  1  0.77940000  0.86100000  0.60340000  1
  H  H200  1  0.62350000  0.11290000  0.34710000  1
  H  H201  1  0.66650000  0.84710000  0.61290000  1
  H  H202  1  0.55470000  0.15550000  0.29030000  1
  H  H203  1  0.74950000  0.79030000  0.65550000  1
  H  H204  1  0.30750000  0.54520000  0.85320000  1
  H  H205  1  0.04410000  0.35320000  0.04520000  1
  H  H206  1  0.43370000  0.52410000  0.84970000  1
  H  H207  1  0.94250000  0.34970000  0.02410000  1
  H  H208  1  0.10940000  0.04940000  0.31960000  1
  H  H209  1  0.27160000  0.81960000  0.54940000  1
  H  H210  1  0.39170000  0.57930000  0.78450000  1
  H  H211  1  0.99450000  0.28450000  0.07930000  1
  H  H212  1  0.50590000  0.14410000  0.20030000  1
  H  H213  1  0.89970000  0.70030000  0.64410000  1
  H  H214  1  0.60010000  0.60560000  0.73660000  1
  H  H215  1  0.80770000  0.23660000  0.10560000  1
  H  H216  1  0.19520000  0.11260000  0.21600000  1
  H  H217  1  0.22620000  0.71600000  0.61260000  1
  H  H218  1  0.70780000  0.97590000  0.34970000  1
  H  H219  1  0.71660000  0.84970000  0.47590000  1
  H  H220  1  0.26300000  0.58800000  0.73500000  1
  H  H221  1  0.16400000  0.23500000  0.08800000  1
  H  H222  1  0.60270000  0.95480000  0.35320000  1
  H  H223  1  0.83930000  0.85320000  0.45480000  1
  H  H224  1  0.97330000  0.51140000  0.78540000  1
  H  H225  1  0.47990000  0.28540000  0.01140000  1
  H  H226  1  0.78670000  0.05940000  0.22960000  1
  H  H227  1  0.67430000  0.72960000  0.55940000  1
  H  H228  1  0.23470000  0.98860000  0.28540000  1
  H  H229  1  0.24130000  0.78540000  0.48860000  1
  H  H230  1  0.90880000  0.45060000  0.81960000  1
  H  H231  1  0.57100000  0.31960000  0.95060000  1
  H  H232  1  0.12170000  0.08330000  0.18470000  1
  H  H233  1  0.36030000  0.68470000  0.58330000  1
  H  H234  1  0.71860000  0.09160000  0.17080000  1
  H  H235  1  0.76900000  0.67080000  0.59160000  1
  H  H236  1  0.35960000  0.39660000  0.86100000  1
  H  H237  1  0.13280000  0.36100000  0.89660000  1
  H  H238  1  0.98740000  0.02050000  0.23130000  1
  H  H239  1  0.51080000  0.73130000  0.52050000  1
  H  H240  1  0.48640000  0.38710000  0.84710000  1
  H  H241  1  0.02940000  0.34710000  0.88710000  1
  H  H242  1  0.75790000  0.47950000  0.73130000  1
  H  H243  1  0.78130000  0.23130000  0.97950000  1
  H  H244  1  0.72100000  0.92070000  0.28450000  1
  H  H245  1  0.82380000  0.78450000  0.42070000  1
  H  H246  1  0.78640000  0.00030000  0.17390000  1
  H  H247  1  0.78940000  0.67390000  0.50030000  1
  H  H248  1  0.53670000  0.49970000  0.67390000  1
  H  H249  1  0.03970000  0.17390000  0.99970000  1
  H  H250  1  0.59610000  0.44060000  0.72960000  1
  H  H251  1  0.98370000  0.22960000  0.94060000  1
  H  H252  1  0.60100000  0.91200000  0.23500000  1
  H  H253  1  0.00200000  0.73500000  0.41200000  1
  H  H254  1  0.46020000  0.34450000  0.79030000  1
  H  H255  1  0.15500000  0.29030000  0.84450000  1
  H  H256  1  0.95570000  0.89440000  0.23660000  1
  H  H257  1  0.66330000  0.73660000  0.39440000  1
  H  H258  1  0.05780000  0.38740000  0.71600000  1
  H  H259  1  0.58880000  0.21600000  0.88740000  1
  H  H260  1  0.95500000  0.41670000  0.68470000  1
  H  H261  1  0.69360000  0.18470000  0.91670000  1
  H  H262  1  0.56020000  0.40840000  0.67080000  1
  H  H263  1  0.11060000  0.17080000  0.90840000  1
  H  H264  1  0.10430000  0.79470000  0.28270000  1
  H  H265  1  0.56830000  0.78270000  0.29470000  1
  H  H266  1  0.40000000  0.35590000  0.70030000  1
  H  H267  1  0.29380000  0.20030000  0.85590000  1
  N  N268  1  0.58980000  0.21530000  0.61890000  1
  N  N269  1  0.32600000  0.11890000  0.71530000  1
  N  N270  1  0.63010000  0.23440000  0.54300000  1
  N  N271  1  0.34250000  0.04300000  0.73440000  1
  N  N272  1  0.92310000  0.73440000  0.95700000  1
  N  N273  1  0.13550000  0.45700000  0.23440000  1
  N  N274  1  0.95870000  0.71530000  0.88110000  1
  N  N275  1  0.19490000  0.38110000  0.21530000  1
  N  N276  1  0.79130000  0.61890000  0.78470000  1
  N  N277  1  0.55510000  0.28470000  0.11890000  1
  N  N278  1  0.82690000  0.54300000  0.76560000  1
  N  N279  1  0.61450000  0.26560000  0.04300000  1
  N  N280  1  0.11990000  0.95700000  0.26560000  1
  N  N281  1  0.40750000  0.76560000  0.45700000  1
  N  N282  1  0.16020000  0.88110000  0.28470000  1
  N  N283  1  0.42400000  0.78470000  0.38110000  1
  S  S284  1  0.27515000  0.31579000  0.63973000  1
  S  S285  1  0.51933000  0.13973000  0.81579000  1
  S  S286  1  0.67169000  0.87816000  0.01604000  1
  S  S287  1  0.18411000  0.51604000  0.37816000  1
  S  S288  1  0.43773000  0.37816000  0.48396000  1
  S  S289  1  0.45015000  0.98396000  0.87816000  1
  S  S290  1  0.66488000  0.81579000  0.86027000  1
  S  S291  1  0.40906000  0.36027000  0.31579000  1
  S  S292  1  0.08512000  0.63973000  0.68421000  1
  S  S293  1  0.34094000  0.18421000  0.13973000  1
  S  S294  1  0.31227000  0.01604000  0.12184000  1
  S  S295  1  0.29985000  0.62184000  0.51604000  1
  S  S296  1  0.07831000  0.48396000  0.62184000  1
  S  S297  1  0.56589000  0.12184000  0.98396000  1
  S  S298  1  0.47485000  0.86027000  0.18421000  1
  S  S299  1  0.23067000  0.68421000  0.36027000  1
