# generated using pymatgen
data_Cu2H13C27NO8
_symmetry_space_group_name_H-M   'P 1'
_cell_length_a   17.48589048
_cell_length_b   17.48589048
_cell_length_c   17.48589048
_cell_angle_alpha   97.49812619
_cell_angle_beta   97.49812619
_cell_angle_gamma   97.49812619
_symmetry_Int_Tables_number   1
_chemical_formula_structural   Cu2H13C27NO8
_chemical_formula_sum   'Cu6 H39 C81 N3 O24'
_cell_volume   5195.85850402
_cell_formula_units_Z   3
loop_
 _symmetry_equiv_pos_site_id
 _symmetry_equiv_pos_as_xyz
  1  'x, y, z'
loop_
 _atom_site_type_symbol
 _atom_site_label
 _atom_site_symmetry_multiplicity
 _atom_site_fract_x
 _atom_site_fract_y
 _atom_site_fract_z
 _atom_site_occupancy
  C  C0  1  0.07780000  0.52590000  0.61240000  1
  C  C1  1  0.07780000  0.61240000  0.52590000  1
  C  C2  1  0.42640000  0.69780000  0.10090000  1
  C  C3  1  0.42640000  0.10090000  0.69780000  1
  C  C4  1  0.94230000  0.07650000  0.75110000  1
  C  C5  1  0.94230000  0.75110000  0.07650000  1
  C  C6  1  0.67750000  0.07520000  0.20990000  1
  C  C7  1  0.67750000  0.20990000  0.07520000  1
  C  C8  1  0.10090000  0.42640000  0.69780000  1
  C  C9  1  0.10090000  0.69780000  0.42640000  1
  C  C10  1  0.07580000  0.44440000  0.62660000  1
  C  C11  1  0.07580000  0.62660000  0.44440000  1
  C  C12  1  0.10120000  0.35340000  0.71620000  1
  C  C13  1  0.10120000  0.71620000  0.35340000  1
  C  C14  1  0.38160000  0.56990000  0.05340000  1
  C  C15  1  0.38160000  0.05340000  0.56990000  1
  C  C16  1  0.05340000  0.38160000  0.56990000  1
  C  C17  1  0.05340000  0.56990000  0.38160000  1
  C  C18  1  0.44440000  0.62660000  0.07580000  1
  C  C19  1  0.44440000  0.07580000  0.62660000  1
  C  C20  1  0.07790000  0.29220000  0.65880000  1
  C  C21  1  0.07790000  0.65880000  0.29220000  1
  C  C22  1  0.05460000  0.30690000  0.58430000  1
  C  C23  1  0.05460000  0.58430000  0.30690000  1
  C  C24  1  0.07520000  0.20990000  0.67750000  1
  C  C25  1  0.07520000  0.67750000  0.20990000  1
  C  C26  1  0.52590000  0.61240000  0.07780000  1
  C  C27  1  0.52590000  0.07780000  0.61240000  1
  C  C28  1  0.58080000  0.67170000  0.06950000  1
  C  C29  1  0.58080000  0.06950000  0.67170000  1
  C  C30  1  0.07650000  0.94230000  0.75110000  1
  C  C31  1  0.07650000  0.75110000  0.94230000  1
  C  C32  1  0.08020000  0.84650000  0.84650000  1
  C  C33  1  0.75110000  0.94230000  0.07650000  1
  C  C34  1  0.75110000  0.07650000  0.94230000  1
  C  C35  1  0.07600000  0.76990000  0.86070000  1
  C  C36  1  0.07600000  0.86070000  0.76990000  1
  C  C37  1  0.71120000  0.80120000  0.06850000  1
  C  C38  1  0.71120000  0.06850000  0.80120000  1
  C  C39  1  0.66180000  0.66180000  0.07040000  1
  C  C40  1  0.66180000  0.07040000  0.66180000  1
  C  C41  1  0.76990000  0.86070000  0.07600000  1
  C  C42  1  0.76990000  0.07600000  0.86070000  1
  C  C43  1  0.61240000  0.52590000  0.07780000  1
  C  C44  1  0.61240000  0.07780000  0.52590000  1
  C  C45  1  0.06850000  0.71120000  0.80120000  1
  C  C46  1  0.06850000  0.80120000  0.71120000  1
  C  C47  1  0.72140000  0.72140000  0.06670000  1
  C  C48  1  0.72140000  0.06670000  0.72140000  1
  C  C49  1  0.20990000  0.07520000  0.67750000  1
  C  C50  1  0.20990000  0.67750000  0.07520000  1
  C  C51  1  0.06670000  0.72140000  0.72140000  1
  C  C52  1  0.67170000  0.58080000  0.06950000  1
  C  C53  1  0.67170000  0.06950000  0.58080000  1
  C  C54  1  0.56990000  0.38160000  0.05340000  1
  C  C55  1  0.56990000  0.05340000  0.38160000  1
  C  C56  1  0.62660000  0.44440000  0.07580000  1
  C  C57  1  0.62660000  0.07580000  0.44440000  1
  C  C58  1  0.84650000  0.84650000  0.08020000  1
  C  C59  1  0.84650000  0.08020000  0.84650000  1
  C  C60  1  0.58430000  0.05460000  0.30690000  1
  C  C61  1  0.58430000  0.30690000  0.05460000  1
  C  C62  1  0.07040000  0.66180000  0.66180000  1
  C  C63  1  0.80120000  0.71120000  0.06850000  1
  C  C64  1  0.80120000  0.06850000  0.71120000  1
  C  C65  1  0.29220000  0.07790000  0.65880000  1
  C  C66  1  0.29220000  0.65880000  0.07790000  1
  C  C67  1  0.69780000  0.42640000  0.10090000  1
  C  C68  1  0.69780000  0.10090000  0.42640000  1
  C  C69  1  0.86070000  0.76990000  0.07600000  1
  C  C70  1  0.86070000  0.07600000  0.76990000  1
  C  C71  1  0.06950000  0.58080000  0.67170000  1
  C  C72  1  0.06950000  0.67170000  0.58080000  1
  C  C73  1  0.35340000  0.10120000  0.71620000  1
  C  C74  1  0.35340000  0.71620000  0.10120000  1
  C  C75  1  0.65880000  0.07790000  0.29220000  1
  C  C76  1  0.65880000  0.29220000  0.07790000  1
  C  C77  1  0.30690000  0.05460000  0.58430000  1
  C  C78  1  0.30690000  0.58430000  0.05460000  1
  C  C79  1  0.71620000  0.10120000  0.35340000  1
  C  C80  1  0.71620000  0.35340000  0.10120000  1
  Cu  Cu81  1  0.64149667  0.04746667  0.04746667  1
  Cu  Cu82  1  0.10605667  0.10605667  0.78813667  1
  Cu  Cu83  1  0.10605667  0.78813667  0.10605667  1
  Cu  Cu84  1  0.78813667  0.10605667  0.10605667  1
  Cu  Cu85  1  0.04746667  0.04746667  0.64149667  1
  Cu  Cu86  1  0.04746667  0.64149667  0.04746667  1
  H  H87  1  0.12020000  0.46880000  0.73840000  1
  H  H88  1  0.12020000  0.73840000  0.46880000  1
  H  H89  1  0.76840000  0.11730000  0.34570000  1
  H  H90  1  0.76840000  0.34570000  0.11730000  1
  H  H91  1  0.46880000  0.73840000  0.12020000  1
  H  H92  1  0.46880000  0.12020000  0.73840000  1
  H  H93  1  0.11730000  0.34570000  0.76840000  1
  H  H94  1  0.11730000  0.76840000  0.34570000  1
  H  H95  1  0.03630000  0.39010000  0.51820000  1
  H  H96  1  0.03630000  0.51820000  0.39010000  1
  H  H97  1  0.39010000  0.51820000  0.03630000  1
  H  H98  1  0.39010000  0.03630000  0.51820000  1
  H  H99  1  0.03930000  0.26460000  0.54290000  1
  H  H100  1  0.03930000  0.54290000  0.26460000  1
  H  H101  1  0.56580000  0.72100000  0.06280000  1
  H  H102  1  0.56580000  0.06280000  0.72100000  1
  H  H103  1  0.08570000  0.88830000  0.88830000  1
  H  H104  1  0.65950000  0.81300000  0.06400000  1
  H  H105  1  0.65950000  0.06400000  0.81300000  1
  H  H106  1  0.51820000  0.39010000  0.03630000  1
  H  H107  1  0.51820000  0.03630000  0.39010000  1
  H  H108  1  0.06400000  0.65950000  0.81300000  1
  H  H109  1  0.06400000  0.81300000  0.65950000  1
  H  H110  1  0.54290000  0.03930000  0.26460000  1
  H  H111  1  0.54290000  0.26460000  0.03930000  1
  H  H112  1  0.88830000  0.88830000  0.08570000  1
  H  H113  1  0.88830000  0.08570000  0.88830000  1
  H  H114  1  0.34570000  0.11730000  0.76840000  1
  H  H115  1  0.34570000  0.76840000  0.11730000  1
  H  H116  1  0.72100000  0.56580000  0.06280000  1
  H  H117  1  0.72100000  0.06280000  0.56580000  1
  H  H118  1  0.06280000  0.56580000  0.72100000  1
  H  H119  1  0.06280000  0.72100000  0.56580000  1
  H  H120  1  0.73840000  0.46880000  0.12020000  1
  H  H121  1  0.73840000  0.12020000  0.46880000  1
  H  H122  1  0.81300000  0.65950000  0.06400000  1
  H  H123  1  0.81300000  0.06400000  0.65950000  1
  H  H124  1  0.26460000  0.03930000  0.54290000  1
  H  H125  1  0.26460000  0.54290000  0.03930000  1
  N  N126  1  0.07930000  0.53960000  0.53960000  1
  N  N127  1  0.53960000  0.53960000  0.07930000  1
  N  N128  1  0.53960000  0.07930000  0.53960000  1
  O  O129  1  0.62333000  0.05154000  0.15585000  1
  O  O130  1  0.62333000  0.15585000  0.05154000  1
  O  O131  1  0.99661000  0.10011000  0.80671000  1
  O  O132  1  0.99661000  0.80671000  0.10011000  1
  O  O133  1  0.94934000  0.05388000  0.68202000  1
  O  O134  1  0.94934000  0.68202000  0.05388000  1
  O  O135  1  0.74667000  0.09916000  0.20365000  1
  O  O136  1  0.74667000  0.20365000  0.09916000  1
  O  O137  1  0.09916000  0.20365000  0.74667000  1
  O  O138  1  0.09916000  0.74667000  0.20365000  1
  O  O139  1  0.05154000  0.15585000  0.62333000  1
  O  O140  1  0.05154000  0.62333000  0.15585000  1
  O  O141  1  0.68202000  0.94934000  0.05388000  1
  O  O142  1  0.68202000  0.05388000  0.94934000  1
  O  O143  1  0.10011000  0.99661000  0.80671000  1
  O  O144  1  0.10011000  0.80671000  0.99661000  1
  O  O145  1  0.05388000  0.94934000  0.68202000  1
  O  O146  1  0.05388000  0.68202000  0.94934000  1
  O  O147  1  0.80671000  0.99661000  0.10011000  1
  O  O148  1  0.80671000  0.10011000  0.99661000  1
  O  O149  1  0.20365000  0.09916000  0.74667000  1
  O  O150  1  0.20365000  0.74667000  0.09916000  1
  O  O151  1  0.15585000  0.05154000  0.62333000  1
  O  O152  1  0.15585000  0.62333000  0.05154000  1
