# generated using pymatgen
data_KCd4C16(N3O4)4
_symmetry_space_group_name_H-M   'P 1'
_cell_length_a   16.05500000
_cell_length_b   17.93690000
_cell_length_c   17.93690000
_cell_angle_alpha   72.88270000
_cell_angle_beta   63.41390000
_cell_angle_gamma   63.41380000
_symmetry_Int_Tables_number   1
_chemical_formula_structural   KCd4C16(N3O4)4
_chemical_formula_sum   'K4 Cd16 C64 N48 O64'
_cell_volume   4102.15189021
_cell_formula_units_Z   4
loop_
 _symmetry_equiv_pos_site_id
 _symmetry_equiv_pos_as_xyz
  1  'x, y, z'
loop_
 _atom_site_type_symbol
 _atom_site_label
 _atom_site_symmetry_multiplicity
 _atom_site_fract_x
 _atom_site_fract_y
 _atom_site_fract_z
 _atom_site_occupancy
  K  K0  1  0.25890000  0.58838000  0.91162000  1
  K  K1  1  0.25890000  0.91162000  0.58838000  1
  K  K2  1  0.74110000  0.08838000  0.41162000  1
  K  K3  1  0.74110000  0.41162000  0.08838000  1
  Cd  Cd4  1  0.07833000  0.12933000  0.67995000  1
  Cd  Cd5  1  0.07833000  0.67995000  0.12933000  1
  Cd  Cd6  1  0.12341000  0.26738000  0.95502000  1
  Cd  Cd7  1  0.12341000  0.95502000  0.26738000  1
  Cd  Cd8  1  0.15419000  0.45502000  0.76738000  1
  Cd  Cd9  1  0.15419000  0.76738000  0.45502000  1
  Cd  Cd10  1  0.38761000  0.37067000  0.82005000  1
  Cd  Cd11  1  0.38761000  0.82005000  0.37067000  1
  Cd  Cd12  1  0.61239000  0.17995000  0.62933000  1
  Cd  Cd13  1  0.61239000  0.62933000  0.17995000  1
  Cd  Cd14  1  0.84581000  0.23262000  0.54498000  1
  Cd  Cd15  1  0.84581000  0.54498000  0.23262000  1
  Cd  Cd16  1  0.87659000  0.04498000  0.73262000  1
  Cd  Cd17  1  0.87659000  0.73262000  0.04498000  1
  Cd  Cd18  1  0.92167000  0.32005000  0.87067000  1
  Cd  Cd19  1  0.92167000  0.87067000  0.32005000  1
  C  C20  1  0.00130000  0.09260000  0.15780000  1
  C  C21  1  0.00130000  0.15780000  0.09260000  1
  C  C22  1  0.04480000  0.08430000  0.47330000  1
  C  C23  1  0.04480000  0.47330000  0.08430000  1
  C  C24  1  0.05440000  0.10100000  0.54480000  1
  C  C25  1  0.05440000  0.54480000  0.10100000  1
  C  C26  1  0.07360000  0.78300000  0.94680000  1
  C  C27  1  0.07360000  0.94680000  0.78300000  1
  C  C28  1  0.10240000  0.02670000  0.41570000  1
  C  C29  1  0.10240000  0.41570000  0.02670000  1
  C  C30  1  0.20020000  0.39900000  0.95520000  1
  C  C31  1  0.20020000  0.95520000  0.39900000  1
  C  C32  1  0.20530000  0.34010000  0.63210000  1
  C  C33  1  0.20530000  0.63210000  0.34010000  1
  C  C34  1  0.22700000  0.12120000  0.75500000  1
  C  C35  1  0.22700000  0.75500000  0.12120000  1
  C  C36  1  0.24030000  0.15100000  0.81080000  1
  C  C37  1  0.24030000  0.81080000  0.15100000  1
  C  C38  1  0.24830000  0.59260000  0.65780000  1
  C  C39  1  0.24830000  0.65780000  0.59260000  1
  C  C40  1  0.28900000  0.05400000  0.69740000  1
  C  C41  1  0.28900000  0.69740000  0.05400000  1
  C  C42  1  0.29790000  0.31080000  0.65100000  1
  C  C43  1  0.29790000  0.65100000  0.31080000  1
  C  C44  1  0.30340000  0.55320000  0.71700000  1
  C  C45  1  0.30340000  0.71700000  0.55320000  1
  C  C46  1  0.32250000  0.13210000  0.84010000  1
  C  C47  1  0.32250000  0.84010000  0.13210000  1
  C  C48  1  0.39680000  0.25500000  0.62120000  1
  C  C49  1  0.39680000  0.62120000  0.25500000  1
  C  C50  1  0.45960000  0.19740000  0.55400000  1
  C  C51  1  0.45960000  0.55400000  0.19740000  1
  C  C52  1  0.54040000  0.44600000  0.80260000  1
  C  C53  1  0.54040000  0.80260000  0.44600000  1
  C  C54  1  0.60320000  0.37880000  0.74500000  1
  C  C55  1  0.60320000  0.74500000  0.37880000  1
  C  C56  1  0.67750000  0.15990000  0.86790000  1
  C  C57  1  0.67750000  0.86790000  0.15990000  1
  C  C58  1  0.69660000  0.28300000  0.44680000  1
  C  C59  1  0.69660000  0.44680000  0.28300000  1
  C  C60  1  0.70210000  0.34900000  0.68920000  1
  C  C61  1  0.70210000  0.68920000  0.34900000  1
  C  C62  1  0.71100000  0.30260000  0.94600000  1
  C  C63  1  0.71100000  0.94600000  0.30260000  1
  C  C64  1  0.75170000  0.34220000  0.40740000  1
  C  C65  1  0.75170000  0.40740000  0.34220000  1
  C  C66  1  0.75970000  0.18920000  0.84900000  1
  C  C67  1  0.75970000  0.84900000  0.18920000  1
  C  C68  1  0.77300000  0.24500000  0.87880000  1
  C  C69  1  0.77300000  0.87880000  0.24500000  1
  C  C70  1  0.79470000  0.36790000  0.65990000  1
  C  C71  1  0.79470000  0.65990000  0.36790000  1
  C  C72  1  0.79980000  0.04480000  0.60100000  1
  C  C73  1  0.79980000  0.60100000  0.04480000  1
  C  C74  1  0.89760000  0.58430000  0.97330000  1
  C  C75  1  0.89760000  0.97330000  0.58430000  1
  C  C76  1  0.92640000  0.05320000  0.21700000  1
  C  C77  1  0.92640000  0.21700000  0.05320000  1
  C  C78  1  0.94560000  0.45520000  0.89900000  1
  C  C79  1  0.94560000  0.89900000  0.45520000  1
  C  C80  1  0.95520000  0.52670000  0.91570000  1
  C  C81  1  0.95520000  0.91570000  0.52670000  1
  C  C82  1  0.99870000  0.84220000  0.90740000  1
  C  C83  1  0.99870000  0.90740000  0.84220000  1
  N  N84  1  0.03910000  0.60500000  0.89500000  1
  N  N85  1  0.03910000  0.89500000  0.60500000  1
  N  N86  1  0.04120000  0.54090000  0.86890000  1
  N  N87  1  0.04120000  0.86890000  0.54090000  1
  N  N88  1  0.04900000  0.04090000  0.36890000  1
  N  N89  1  0.04900000  0.36890000  0.04090000  1
  N  N90  1  0.08630000  0.22180000  0.81400000  1
  N  N91  1  0.08630000  0.81400000  0.22180000  1
  N  N92  1  0.09150000  0.06290000  0.16450000  1
  N  N93  1  0.09150000  0.16450000  0.06290000  1
  N  N94  1  0.13130000  0.16560000  0.75940000  1
  N  N95  1  0.13130000  0.75940000  0.16560000  1
  N  N96  1  0.14140000  0.60670000  0.60670000  1
  N  N97  1  0.14520000  0.10670000  0.10670000  1
  N  N98  1  0.15240000  0.21300000  0.84440000  1
  N  N99  1  0.15240000  0.84440000  0.21300000  1
  N  N100  1  0.18110000  0.56290000  0.66450000  1
  N  N101  1  0.18110000  0.66450000  0.56290000  1
  N  N102  1  0.29020000  0.34440000  0.71300000  1
  N  N103  1  0.29020000  0.71300000  0.34440000  1
  N  N104  1  0.37790000  0.31400000  0.72180000  1
  N  N105  1  0.37790000  0.72180000  0.31400000  1
  N  N106  1  0.44370000  0.25940000  0.66560000  1
  N  N107  1  0.44370000  0.66560000  0.25940000  1
  N  N108  1  0.55630000  0.33440000  0.74060000  1
  N  N109  1  0.55630000  0.74060000  0.33440000  1
  N  N110  1  0.62210000  0.27820000  0.68600000  1
  N  N111  1  0.62210000  0.68600000  0.27820000  1
  N  N112  1  0.70980000  0.28700000  0.65560000  1
  N  N113  1  0.70980000  0.65560000  0.28700000  1
  N  N114  1  0.81890000  0.33550000  0.43710000  1
  N  N115  1  0.81890000  0.43710000  0.33550000  1
  N  N116  1  0.84760000  0.15560000  0.78700000  1
  N  N117  1  0.84760000  0.78700000  0.15560000  1
  N  N118  1  0.85480000  0.89330000  0.89330000  1
  N  N119  1  0.85860000  0.39330000  0.39330000  1
  N  N120  1  0.86870000  0.24060000  0.83440000  1
  N  N121  1  0.86870000  0.83440000  0.24060000  1
  N  N122  1  0.90850000  0.83550000  0.93710000  1
  N  N123  1  0.90850000  0.93710000  0.83550000  1
  N  N124  1  0.91370000  0.18600000  0.77820000  1
  N  N125  1  0.91370000  0.77820000  0.18600000  1
  N  N126  1  0.95100000  0.63110000  0.95910000  1
  N  N127  1  0.95100000  0.95910000  0.63110000  1
  N  N128  1  0.95880000  0.13110000  0.45910000  1
  N  N129  1  0.95880000  0.45910000  0.13110000  1
  N  N130  1  0.96090000  0.10500000  0.39500000  1
  N  N131  1  0.96090000  0.39500000  0.10500000  1
  O  O132  1  0.02637000  0.40043000  0.85743000  1
  O  O133  1  0.02637000  0.85743000  0.40043000  1
  O  O134  1  0.04400000  0.00880000  0.73220000  1
  O  O135  1  0.04400000  0.73220000  0.00880000  1
  O  O136  1  0.13230000  0.40060000  0.66940000  1
  O  O137  1  0.13230000  0.66940000  0.40060000  1
  O  O138  1  0.13795000  0.07455000  0.55095000  1
  O  O139  1  0.13795000  0.55095000  0.07455000  1
  O  O140  1  0.14050000  0.80600000  0.94120000  1
  O  O141  1  0.14050000  0.94120000  0.80600000  1
  O  O142  1  0.20570000  0.30330000  0.58330000  1
  O  O143  1  0.20570000  0.58330000  0.30330000  1
  O  O144  1  0.21577000  0.35743000  0.90043000  1
  O  O145  1  0.21577000  0.90043000  0.35743000  1
  O  O146  1  0.25400000  0.05530000  0.64730000  1
  O  O147  1  0.25400000  0.64730000  0.05530000  1
  O  O148  1  0.26345000  0.42545000  0.94905000  1
  O  O149  1  0.26345000  0.94905000  0.42545000  1
  O  O150  1  0.28500000  0.49120000  0.76780000  1
  O  O151  1  0.28500000  0.76780000  0.49120000  1
  O  O152  1  0.29770000  0.16940000  0.90060000  1
  O  O153  1  0.29770000  0.90060000  0.16940000  1
  O  O154  1  0.36850000  0.00120000  0.70420000  1
  O  O155  1  0.36850000  0.70420000  0.00120000  1
  O  O156  1  0.38770000  0.55880000  0.69400000  1
  O  O157  1  0.38770000  0.69400000  0.55880000  1
  O  O158  1  0.40770000  0.08330000  0.80330000  1
  O  O159  1  0.40770000  0.80330000  0.08330000  1
  O  O160  1  0.42610000  0.20420000  0.50120000  1
  O  O161  1  0.42610000  0.50120000  0.20420000  1
  O  O162  1  0.45660000  0.44470000  0.85270000  1
  O  O163  1  0.45660000  0.85270000  0.44470000  1
  O  O164  1  0.54340000  0.14730000  0.55530000  1
  O  O165  1  0.54340000  0.55530000  0.14730000  1
  O  O166  1  0.57390000  0.49880000  0.79580000  1
  O  O167  1  0.57390000  0.79580000  0.49880000  1
  O  O168  1  0.59230000  0.19670000  0.91670000  1
  O  O169  1  0.59230000  0.91670000  0.19670000  1
  O  O170  1  0.61230000  0.30600000  0.44120000  1
  O  O171  1  0.61230000  0.44120000  0.30600000  1
  O  O172  1  0.63150000  0.29580000  0.99880000  1
  O  O173  1  0.63150000  0.99880000  0.29580000  1
  O  O174  1  0.70230000  0.09940000  0.83060000  1
  O  O175  1  0.70230000  0.83060000  0.09940000  1
  O  O176  1  0.71500000  0.23220000  0.50880000  1
  O  O177  1  0.71500000  0.50880000  0.23220000  1
  O  O178  1  0.73655000  0.05095000  0.57455000  1
  O  O179  1  0.73655000  0.57455000  0.05095000  1
  O  O180  1  0.74600000  0.35270000  0.94470000  1
  O  O181  1  0.74600000  0.94470000  0.35270000  1
  O  O182  1  0.78423000  0.09957000  0.64257000  1
  O  O183  1  0.78423000  0.64257000  0.09957000  1
  O  O184  1  0.79430000  0.41670000  0.69670000  1
  O  O185  1  0.79430000  0.69670000  0.41670000  1
  O  O186  1  0.85950000  0.05880000  0.19400000  1
  O  O187  1  0.85950000  0.19400000  0.05880000  1
  O  O188  1  0.86205000  0.44905000  0.92545000  1
  O  O189  1  0.86205000  0.92545000  0.44905000  1
  O  O190  1  0.86770000  0.33060000  0.59940000  1
  O  O191  1  0.86770000  0.59940000  0.33060000  1
  O  O192  1  0.95600000  0.26780000  0.99120000  1
  O  O193  1  0.95600000  0.99120000  0.26780000  1
  O  O194  1  0.97363000  0.14257000  0.59957000  1
  O  O195  1  0.97363000  0.59957000  0.14257000  1
