# generated using pymatgen
data_VH3C8O5
_symmetry_space_group_name_H-M   'P 1'
_cell_length_a   11.95870000
_cell_length_b   15.03930000
_cell_length_c   15.03930000
_cell_angle_alpha   90.00000000
_cell_angle_beta   90.00000000
_cell_angle_gamma   90.00000000
_symmetry_Int_Tables_number   1
_chemical_formula_structural   VH3C8O5
_chemical_formula_sum   'V8 H24 C64 O40'
_cell_volume   2704.82527739
_cell_formula_units_Z   8
loop_
 _symmetry_equiv_pos_site_id
 _symmetry_equiv_pos_as_xyz
  1  'x, y, z'
loop_
 _atom_site_type_symbol
 _atom_site_label
 _atom_site_symmetry_multiplicity
 _atom_site_fract_x
 _atom_site_fract_y
 _atom_site_fract_z
 _atom_site_occupancy
  V  V0  1  0.87500000  0.06300000  0.06300000  1
  V  V1  1  0.62500000  0.06300000  0.93700000  1
  V  V2  1  0.87500000  0.44300000  0.44300000  1
  V  V3  1  0.62500000  0.44300000  0.55700000  1
  V  V4  1  0.12500000  0.55700000  0.44300000  1
  V  V5  1  0.37500000  0.55700000  0.55700000  1
  V  V6  1  0.12500000  0.93700000  0.06300000  1
  V  V7  1  0.37500000  0.93700000  0.93700000  1
  H  H8  1  0.29480000  0.14400000  0.17520000  1
  H  H9  1  0.20520000  0.14400000  0.82480000  1
  H  H10  1  0.45520000  0.17520000  0.14400000  1
  H  H11  1  0.04480000  0.17520000  0.85600000  1
  H  H12  1  0.74680000  0.24520000  0.25470000  1
  H  H13  1  0.75320000  0.24520000  0.74530000  1
  H  H14  1  0.00320000  0.25470000  0.24520000  1
  H  H15  1  0.49680000  0.25470000  0.75480000  1
  H  H16  1  0.45850000  0.32220000  0.36600000  1
  H  H17  1  0.04150000  0.32220000  0.63400000  1
  H  H18  1  0.29150000  0.36600000  0.32220000  1
  H  H19  1  0.20850000  0.36600000  0.67780000  1
  H  H20  1  0.70850000  0.63400000  0.32220000  1
  H  H21  1  0.79150000  0.63400000  0.67780000  1
  H  H22  1  0.54150000  0.67780000  0.36600000  1
  H  H23  1  0.95850000  0.67780000  0.63400000  1
  H  H24  1  0.99680000  0.74530000  0.24520000  1
  H  H25  1  0.50320000  0.74530000  0.75480000  1
  H  H26  1  0.25320000  0.75480000  0.25470000  1
  H  H27  1  0.24680000  0.75480000  0.74530000  1
  H  H28  1  0.54480000  0.82480000  0.14400000  1
  H  H29  1  0.95520000  0.82480000  0.85600000  1
  H  H30  1  0.70520000  0.85600000  0.17520000  1
  H  H31  1  0.79480000  0.85600000  0.82480000  1
  C  C32  1  0.08210000  0.12110000  0.15770000  1
  C  C33  1  0.41790000  0.12110000  0.84230000  1
  C  C34  1  0.66790000  0.15770000  0.12110000  1
  C  C35  1  0.83210000  0.15770000  0.87890000  1
  C  C36  1  0.13970000  0.18850000  0.20290000  1
  C  C37  1  0.36030000  0.18850000  0.79710000  1
  C  C38  1  0.25520000  0.18870000  0.20430000  1
  C  C39  1  0.24480000  0.18870000  0.79570000  1
  C  C40  1  0.61030000  0.20290000  0.18850000  1
  C  C41  1  0.88970000  0.20290000  0.81150000  1
  C  C42  1  0.49480000  0.20430000  0.18870000  1
  C  C43  1  0.00520000  0.20430000  0.81130000  1
  C  C44  1  0.66900000  0.24610000  0.25480000  1
  C  C45  1  0.83100000  0.24610000  0.74520000  1
  C  C46  1  0.43799000  0.24890000  0.25510000  1
  C  C47  1  0.06201000  0.24890000  0.74490000  1
  C  C48  1  0.08100000  0.25480000  0.24610000  1
  C  C49  1  0.41900000  0.25480000  0.75390000  1
  C  C50  1  0.31201000  0.25510000  0.24890000  1
  C  C51  1  0.18799000  0.25510000  0.75110000  1
  C  C52  1  0.61220000  0.29070000  0.32120000  1
  C  C53  1  0.88780000  0.29070000  0.67880000  1
  C  C54  1  0.49670000  0.29210000  0.32130000  1
  C  C55  1  0.00330000  0.29210000  0.67870000  1
  C  C56  1  0.13780000  0.32120000  0.29070000  1
  C  C57  1  0.36220000  0.32120000  0.70930000  1
  C  C58  1  0.25330000  0.32130000  0.29210000  1
  C  C59  1  0.24670000  0.32130000  0.70790000  1
  C  C60  1  0.67180000  0.33460000  0.38840000  1
  C  C61  1  0.82820000  0.33460000  0.61160000  1
  C  C62  1  0.07820000  0.38840000  0.33460000  1
  C  C63  1  0.42180000  0.38840000  0.66540000  1
  C  C64  1  0.92180000  0.61160000  0.33460000  1
  C  C65  1  0.57820000  0.61160000  0.66540000  1
  C  C66  1  0.32820000  0.66540000  0.38840000  1
  C  C67  1  0.17180000  0.66540000  0.61160000  1
  C  C68  1  0.74670000  0.67870000  0.29210000  1
  C  C69  1  0.75330000  0.67870000  0.70790000  1
  C  C70  1  0.86220000  0.67880000  0.29070000  1
  C  C71  1  0.63780000  0.67880000  0.70930000  1
  C  C72  1  0.50330000  0.70790000  0.32130000  1
  C  C73  1  0.99670000  0.70790000  0.67870000  1
  C  C74  1  0.38780000  0.70930000  0.32120000  1
  C  C75  1  0.11220000  0.70930000  0.67880000  1
  C  C76  1  0.68799000  0.74490000  0.24890000  1
  C  C77  1  0.81201000  0.74490000  0.75110000  1
  C  C78  1  0.91900000  0.74520000  0.24610000  1
  C  C79  1  0.58100000  0.74520000  0.75390000  1
  C  C80  1  0.56201000  0.75110000  0.25510000  1
  C  C81  1  0.93799000  0.75110000  0.74490000  1
  C  C82  1  0.33100000  0.75390000  0.25480000  1
  C  C83  1  0.16900000  0.75390000  0.74520000  1
  C  C84  1  0.50520000  0.79570000  0.18870000  1
  C  C85  1  0.99480000  0.79570000  0.81130000  1
  C  C86  1  0.38970000  0.79710000  0.18850000  1
  C  C87  1  0.11030000  0.79710000  0.81150000  1
  C  C88  1  0.74480000  0.81130000  0.20430000  1
  C  C89  1  0.75520000  0.81130000  0.79570000  1
  C  C90  1  0.86030000  0.81150000  0.20290000  1
  C  C91  1  0.63970000  0.81150000  0.79710000  1
  C  C92  1  0.33210000  0.84230000  0.12110000  1
  C  C93  1  0.16790000  0.84230000  0.87890000  1
  C  C94  1  0.91790000  0.87890000  0.15770000  1
  C  C95  1  0.58210000  0.87890000  0.84230000  1
  O  O96  1  0.00000000  1.00000000  0.01820000  1
  O  O97  1  0.50000000  0.00000000  0.98180000  1
  O  O98  1  0.75000000  0.01820000  0.00000000  1
  O  O99  1  0.12360000  0.04180000  0.14770000  1
  O  O100  1  0.37640000  0.04180000  0.85230000  1
  O  O101  1  0.76620000  0.12300000  0.13400000  1
  O  O102  1  0.73380000  0.12300000  0.86600000  1
  O  O103  1  0.98380000  0.13400000  0.12300000  1
  O  O104  1  0.51620000  0.13400000  0.87700000  1
  O  O105  1  0.62640000  0.14770000  0.04180000  1
  O  O106  1  0.87360000  0.14770000  0.95820000  1
  O  O107  1  0.62840000  0.35000000  0.46620000  1
  O  O108  1  0.87160000  0.35000000  0.53380000  1
  O  O109  1  0.77390000  0.36210000  0.37700000  1
  O  O110  1  0.72610000  0.36210000  0.62300000  1
  O  O111  1  0.97610000  0.37700000  0.36210000  1
  O  O112  1  0.52390000  0.37700000  0.63790000  1
  O  O113  1  0.12160000  0.46620000  0.35000000  1
  O  O114  1  0.37840000  0.46620000  0.65000000  1
  O  O115  1  0.25000000  0.49010000  0.50000000  1
  O  O116  1  0.50000000  0.50000000  0.49010000  1
  O  O117  1  0.00000000  0.50000000  0.50990000  1
  O  O118  1  0.75000000  0.50990000  0.50000000  1
  O  O119  1  0.87840000  0.53380000  0.35000000  1
  O  O120  1  0.62160000  0.53380000  0.65000000  1
  O  O121  1  0.02390000  0.62300000  0.36210000  1
  O  O122  1  0.47610000  0.62300000  0.63790000  1
  O  O123  1  0.22610000  0.63790000  0.37700000  1
  O  O124  1  0.27390000  0.63790000  0.62300000  1
  O  O125  1  0.37160000  0.65000000  0.46620000  1
  O  O126  1  0.12840000  0.65000000  0.53380000  1
  O  O127  1  0.37360000  0.85230000  0.04180000  1
  O  O128  1  0.12640000  0.85230000  0.95820000  1
  O  O129  1  0.01620000  0.86600000  0.12300000  1
  O  O130  1  0.48380000  0.86600000  0.87700000  1
  O  O131  1  0.23380000  0.87700000  0.13400000  1
  O  O132  1  0.26620000  0.87700000  0.86600000  1
  O  O133  1  0.87640000  0.95820000  0.14770000  1
  O  O134  1  0.62360000  0.95820000  0.85230000  1
  O  O135  1  0.25000000  0.98180000  0.00000000  1
