# generated using pymatgen
data_Zn3P4(HO3)4
_symmetry_space_group_name_H-M   'P 1'
_cell_length_a   8.43060000
_cell_length_b   8.94945103
_cell_length_c   15.60603441
_cell_angle_alpha   76.90711124
_cell_angle_beta   74.32936264
_cell_angle_gamma   61.89998379
_symmetry_Int_Tables_number   1
_chemical_formula_structural   Zn3P4(HO3)4
_chemical_formula_sum   'Zn6 P8 H8 O24'
_cell_volume   993.20547119
_cell_formula_units_Z   2
loop_
 _symmetry_equiv_pos_site_id
 _symmetry_equiv_pos_as_xyz
  1  'x, y, z'
loop_
 _atom_site_type_symbol
 _atom_site_label
 _atom_site_symmetry_multiplicity
 _atom_site_fract_x
 _atom_site_fract_y
 _atom_site_fract_z
 _atom_site_occupancy
  H  H0  1  0.81000000  0.75700000  0.14700000  1
  H  H1  1  0.28600000  0.25700000  0.64700000  1
  H  H2  1  0.61500000  0.61600000  0.15600000  1
  H  H3  1  0.61300000  0.11600000  0.65600000  1
  H  H4  1  0.38500000  0.38400000  0.84400000  1
  H  H5  1  0.38700000  0.88400000  0.34400000  1
  H  H6  1  0.19000000  0.24300000  0.85300000  1
  H  H7  1  0.71400000  0.74300000  0.35300000  1
  O  O8  1  0.01420000  0.10900000  0.84060000  1
  O  O9  1  0.03620000  0.60900000  0.34060000  1
  O  O10  1  0.83090000  0.47890000  0.43250000  1
  O  O11  1  0.25770000  0.97890000  0.93250000  1
  O  O12  1  0.02970000  0.76080000  0.02380000  1
  O  O13  1  0.18570000  0.26080000  0.52380000  1
  O  O14  1  0.85730000  0.06590000  0.71370000  1
  O  O15  1  0.36310000  0.56590000  0.21370000  1
  O  O16  1  0.83090000  0.16870000  0.55190000  1
  O  O17  1  0.44850000  0.66870000  0.05190000  1
  O  O18  1  0.84910000  0.87750000  0.62390000  1
  O  O19  1  0.64950000  0.37750000  0.12390000  1
  O  O20  1  0.15090000  0.12250000  0.37610000  1
  O  O21  1  0.35050000  0.62250000  0.87610000  1
  O  O22  1  0.16910000  0.83130000  0.44810000  1
  O  O23  1  0.55150000  0.33130000  0.94810000  1
  O  O24  1  0.14270000  0.93410000  0.28630000  1
  O  O25  1  0.63690000  0.43410000  0.78630000  1
  O  O26  1  0.97030000  0.23920000  0.97620000  1
  O  O27  1  0.81430000  0.73920000  0.47620000  1
  O  O28  1  0.16910000  0.52110000  0.56750000  1
  O  O29  1  0.74230000  0.02110000  0.06750000  1
  O  O30  1  0.98580000  0.89100000  0.15940000  1
  O  O31  1  0.96380000  0.39100000  0.65940000  1
  P  P32  1  0.89301000  0.85968000  0.09952000  1
  P  P33  1  0.14779000  0.35968000  0.59952000  1
  P  P34  1  0.78992000  0.05988000  0.63508000  1
  P  P35  1  0.51512000  0.55988000  0.13508000  1
  P  P36  1  0.21008000  0.94012000  0.36492000  1
  P  P37  1  0.48488000  0.44012000  0.86492000  1
  P  P38  1  0.10699000  0.14032000  0.90048000  1
  P  P39  1  0.85221000  0.64032000  0.40048000  1
  Zn  Zn40  1  0.87278000  0.25000000  0.75000000  1
  Zn  Zn41  1  0.12722000  0.75000000  0.25000000  1
  Zn  Zn42  1  0.99890000  0.25159000  0.47553000  1
  Zn  Zn43  1  0.27398000  0.75159000  0.97553000  1
  Zn  Zn44  1  0.00110000  0.74841000  0.52447000  1
  Zn  Zn45  1  0.72602000  0.24841000  0.02447000  1
