# generated using pymatgen
data_NdH5C7NO5
_symmetry_space_group_name_H-M   'P 1'
_cell_length_a   15.67150000
_cell_length_b   17.15153133
_cell_length_c   17.89411749
_cell_angle_alpha   77.74972144
_cell_angle_beta   64.03032988
_cell_angle_gamma   62.81569639
_symmetry_Int_Tables_number   1
_chemical_formula_structural   NdH5C7NO5
_chemical_formula_sum   'Nd8 H40 C56 N8 O40'
_cell_volume   3846.02665667
_cell_formula_units_Z   8
loop_
 _symmetry_equiv_pos_site_id
 _symmetry_equiv_pos_as_xyz
  1  'x, y, z'
loop_
 _atom_site_type_symbol
 _atom_site_label
 _atom_site_symmetry_multiplicity
 _atom_site_fract_x
 _atom_site_fract_y
 _atom_site_fract_z
 _atom_site_occupancy
  C  C0  1  0.74320000  0.85770000  0.07090000  1
  C  C1  1  0.32820000  0.35770000  0.57090000  1
  C  C2  1  0.90530000  0.88880000  0.00560000  1
  C  C3  1  0.20030000  0.38880000  0.50560000  1
  C  C4  1  0.85540000  0.83560000  0.01140000  1
  C  C5  1  0.29760000  0.33560000  0.51140000  1
  C  C6  1  0.00740000  0.86440000  0.94680000  1
  C  C7  1  0.18140000  0.36440000  0.44680000  1
  C  C8  1  0.70420000  0.54540000  0.15340000  1
  C  C9  1  0.59700000  0.04540000  0.65340000  1
  C  C10  1  0.05440000  0.79440000  0.89440000  1
  C  C11  1  0.25680000  0.29440000  0.39440000  1
  C  C12  1  0.70150000  0.82890000  0.84710000  1
  C  C13  1  0.62250000  0.32890000  0.34710000  1
  C  C14  1  0.99570000  0.74560000  0.90680000  1
  C  C15  1  0.35190000  0.24560000  0.40680000  1
  C  C16  1  0.68580000  0.97920000  0.67260000  1
  C  C17  1  0.66240000  0.47920000  0.17260000  1
  C  C18  1  0.74090000  0.86770000  0.76170000  1
  C  C19  1  0.62970000  0.36770000  0.26170000  1
  C  C20  1  0.78800000  0.95730000  0.61710000  1
  C  C21  1  0.63760000  0.45730000  0.11710000  1
  C  C22  1  0.84350000  0.84120000  0.70820000  1
  C  C23  1  0.60710000  0.34120000  0.20820000  1
  C  C24  1  0.03860000  0.67140000  0.85320000  1
  C  C25  1  0.43680000  0.17140000  0.35320000  1
  C  C26  1  0.87020000  0.88200000  0.63240000  1
  C  C27  1  0.61540000  0.38200000  0.13240000  1
  C  C28  1  0.12980000  0.11800000  0.36760000  1
  C  C29  1  0.38460000  0.61800000  0.86760000  1
  C  C30  1  0.96140000  0.32860000  0.14680000  1
  C  C31  1  0.56320000  0.82860000  0.64680000  1
  C  C32  1  0.15650000  0.15880000  0.29180000  1
  C  C33  1  0.39290000  0.65880000  0.79180000  1
  C  C34  1  0.21200000  0.04270000  0.38290000  1
  C  C35  1  0.36240000  0.54270000  0.88290000  1
  C  C36  1  0.25910000  0.13230000  0.23830000  1
  C  C37  1  0.37030000  0.63230000  0.73830000  1
  C  C38  1  0.31420000  0.02080000  0.32740000  1
  C  C39  1  0.33760000  0.52080000  0.82740000  1
  C  C40  1  0.00430000  0.25440000  0.09320000  1
  C  C41  1  0.64810000  0.75440000  0.59320000  1
  C  C42  1  0.29850000  0.17110000  0.15290000  1
  C  C43  1  0.37750000  0.67110000  0.65290000  1
  C  C44  1  0.94560000  0.20560000  0.10560000  1
  C  C45  1  0.74320000  0.70560000  0.60560000  1
  C  C46  1  0.29580000  0.45460000  0.84660000  1
  C  C47  1  0.40300000  0.95460000  0.34660000  1
  C  C48  1  0.99260000  0.13560000  0.05320000  1
  C  C49  1  0.81860000  0.63560000  0.55320000  1
  C  C50  1  0.14460000  0.16440000  0.98860000  1
  C  C51  1  0.70240000  0.66440000  0.48860000  1
  C  C52  1  0.09470000  0.11120000  0.99440000  1
  C  C53  1  0.79970000  0.61120000  0.49440000  1
  C  C54  1  0.25680000  0.14230000  0.92910000  1
  C  C55  1  0.67180000  0.64230000  0.42910000  1
  H  H56  1  0.87210000  0.93720000  0.03920000  1
  H  H57  1  0.15150000  0.43720000  0.53920000  1
  H  H58  1  0.04470000  0.89570000  0.94250000  1
  H  H59  1  0.11710000  0.39570000  0.44250000  1
  H  H60  1  0.91610000  0.46110000  0.31130000  1
  H  H61  1  0.31150000  0.96110000  0.81130000  1
  H  H62  1  0.89370000  0.34250000  0.37130000  1
  H  H63  1  0.39250000  0.84250000  0.87130000  1
  H  H64  1  0.96420000  0.42910000  0.23250000  1
  H  H65  1  0.37420000  0.92910000  0.73250000  1
  H  H66  1  0.12100000  0.78000000  0.85300000  1
  H  H67  1  0.24600000  0.28000000  0.35300000  1
  H  H68  1  0.90800000  0.27346667  0.33333333  1
  H  H69  1  0.48520000  0.77340000  0.83340000  1
  H  H70  1  0.80340000  0.99160000  0.56960000  1
  H  H71  1  0.63540000  0.49160000  0.06960000  1
  H  H72  1  0.06170000  0.13810000  0.40710000  1
  H  H73  1  0.39310000  0.63810000  0.90710000  1
  H  H74  1  0.89510000  0.79540000  0.72340000  1
  H  H75  1  0.58610000  0.29540000  0.22340000  1
  H  H76  1  0.10490000  0.20460000  0.27660000  1
  H  H77  1  0.41390000  0.70460000  0.77660000  1
  H  H78  1  0.93830000  0.86190000  0.59290000  1
  H  H79  1  0.60690000  0.36190000  0.09290000  1
  H  H80  1  0.19660000  0.00840000  0.43040000  1
  H  H81  1  0.36460000  0.50840000  0.93040000  1
  H  H82  1  0.09200000  0.72660000  0.66660000  1
  H  H83  1  0.51480000  0.22660000  0.16660000  1
  H  H84  1  0.87900000  0.22000000  0.14700000  1
  H  H85  1  0.75400000  0.72000000  0.64700000  1
  H  H86  1  0.03580000  0.57090000  0.76750000  1
  H  H87  1  0.62580000  0.07090000  0.26750000  1
  H  H88  1  0.10630000  0.65750000  0.62870000  1
  H  H89  1  0.60750000  0.15750000  0.12870000  1
  H  H90  1  0.08390000  0.53890000  0.68870000  1
  H  H91  1  0.68850000  0.03890000  0.18870000  1
  H  H92  1  0.95530000  0.10430000  0.05750000  1
  H  H93  1  0.88290000  0.60430000  0.55750000  1
  H  H94  1  0.12790000  0.06280000  0.96080000  1
  H  H95  1  0.84850000  0.56280000  0.46080000  1
  N  N96  1  0.89980000  0.76780000  0.96420000  1
  N  N97  1  0.36820000  0.26780000  0.46420000  1
  N  N98  1  0.66450000  0.93440000  0.74180000  1
  N  N99  1  0.65930000  0.43440000  0.24180000  1
  N  N100  1  0.33550000  0.06560000  0.25820000  1
  N  N101  1  0.34070000  0.56560000  0.75820000  1
  N  N102  1  0.10020000  0.23220000  0.03580000  1
  N  N103  1  0.63180000  0.73220000  0.53580000  1
  Nd  Nd104  1  0.74618000  0.45411000  0.32591000  1
  Nd  Nd105  1  0.47380000  0.95411000  0.82591000  1
  Nd  Nd106  1  0.79717000  0.67608000  0.98548000  1
  Nd  Nd107  1  0.54127000  0.17608000  0.48548000  1
  Nd  Nd108  1  0.20283000  0.32392000  0.01452000  1
  Nd  Nd109  1  0.45873000  0.82392000  0.51452000  1
  Nd  Nd110  1  0.25382000  0.54589000  0.67409000  1
  Nd  Nd111  1  0.52620000  0.04589000  0.17409000  1
  O  O112  1  0.73420000  0.57400000  0.38800000  1
  O  O113  1  0.30380000  0.07400000  0.88800000  1
  O  O114  1  0.70420000  0.81030000  0.06970000  1
  O  O115  1  0.41580000  0.31030000  0.56970000  1
  O  O116  1  0.73920000  0.54900000  0.20340000  1
  O  O117  1  0.50840000  0.04900000  0.70340000  1
  O  O118  1  0.91350000  0.47140000  0.26360000  1
  O  O119  1  0.35150000  0.97140000  0.76360000  1
  O  O120  1  0.66340000  0.35100000  0.38280000  1
  O  O121  1  0.60280000  0.85100000  0.88280000  1
  O  O122  1  0.86300000  0.31390000  0.36850000  1
  O  O123  1  0.45460000  0.81390000  0.86850000  1
  O  O124  1  0.70710000  0.59200000  0.08880000  1
  O  O125  1  0.61210000  0.09200000  0.58880000  1
  O  O126  1  0.76780000  0.78070000  0.87550000  1
  O  O127  1  0.57600000  0.28070000  0.37550000  1
  O  O128  1  0.87590000  0.35030000  0.20410000  1
  O  O129  1  0.56970000  0.85030000  0.70410000  1
  O  O130  1  0.98030000  0.63110000  0.87090000  1
  O  O131  1  0.51770000  0.13110000  0.37090000  1
  O  O132  1  0.01970000  0.36890000  0.12910000  1
  O  O133  1  0.48230000  0.86890000  0.62910000  1
  O  O134  1  0.12410000  0.64970000  0.79590000  1
  O  O135  1  0.43030000  0.14970000  0.29590000  1
  O  O136  1  0.23220000  0.21930000  0.12450000  1
  O  O137  1  0.42400000  0.71930000  0.62450000  1
  O  O138  1  0.29290000  0.40800000  0.91120000  1
  O  O139  1  0.38790000  0.90800000  0.41120000  1
  O  O140  1  0.13700000  0.68610000  0.63150000  1
  O  O141  1  0.54540000  0.18610000  0.13150000  1
  O  O142  1  0.33660000  0.64900000  0.61720000  1
  O  O143  1  0.39720000  0.14900000  0.11720000  1
  O  O144  1  0.08650000  0.52860000  0.73640000  1
  O  O145  1  0.64850000  0.02860000  0.23640000  1
  O  O146  1  0.26080000  0.45100000  0.79660000  1
  O  O147  1  0.49160000  0.95100000  0.29660000  1
  O  O148  1  0.29580000  0.18970000  0.93030000  1
  O  O149  1  0.58420000  0.68970000  0.43030000  1
  O  O150  1  0.26580000  0.42600000  0.61200000  1
  O  O151  1  0.69620000  0.92600000  0.11200000  1
