# generated using pymatgen
data_K3Co14H60(C8O5)12
_symmetry_space_group_name_H-M   'P 1'
_cell_length_a   17.19466758
_cell_length_b   17.19466758
_cell_length_c   29.91550000
_cell_angle_alpha   73.29840000
_cell_angle_beta   73.29840000
_cell_angle_gamma   60.00000000
_symmetry_Int_Tables_number   1
_chemical_formula_structural   K3Co14H60(C8O5)12
_chemical_formula_sum   'K6 Co28 H120 C192 O120'
_cell_volume   7225.69656938
_cell_formula_units_Z   2
loop_
 _symmetry_equiv_pos_site_id
 _symmetry_equiv_pos_as_xyz
  1  'x, y, z'
loop_
 _atom_site_type_symbol
 _atom_site_label
 _atom_site_symmetry_multiplicity
 _atom_site_fract_x
 _atom_site_fract_y
 _atom_site_fract_z
 _atom_site_occupancy
  K  K0  1  0.75000000  0.13815000  0.75000000  1
  K  K1  1  0.63815000  0.25000000  0.25000000  1
  K  K2  1  0.13815000  0.36185000  0.75000000  1
  K  K3  1  0.86185000  0.63815000  0.25000000  1
  K  K4  1  0.36185000  0.75000000  0.75000000  1
  K  K5  1  0.25000000  0.86185000  0.25000000  1
  Co  Co6  1  0.77919000  0.04249000  0.32363000  1
  Co  Co7  1  0.74219000  0.06150000  0.43688000  1
  Co  Co8  1  0.14110000  0.14110000  0.57670000  1
  Co  Co9  1  0.95751000  0.14531000  0.67637000  1
  Co  Co10  1  0.14531000  0.22081000  0.67637000  1
  Co  Co11  1  0.93850000  0.24057000  0.56312000  1
  Co  Co12  1  0.56150000  0.24219000  0.93688000  1
  Co  Co13  1  0.24057000  0.25781000  0.56312000  1
  Co  Co14  1  0.24219000  0.25943000  0.93688000  1
  Co  Co15  1  0.54249000  0.27919000  0.82363000  1
  Co  Co16  1  0.27919000  0.35469000  0.82363000  1
  Co  Co17  1  0.35890000  0.35890000  0.92330000  1
  Co  Co18  1  0.74057000  0.43850000  0.06312000  1
  Co  Co19  1  0.64531000  0.45751000  0.17637000  1
  Co  Co20  1  0.35469000  0.54249000  0.82363000  1
  Co  Co21  1  0.25943000  0.56150000  0.93688000  1
  Co  Co22  1  0.64110000  0.64110000  0.07670000  1
  Co  Co23  1  0.72081000  0.64531000  0.17637000  1
  Co  Co24  1  0.45751000  0.72081000  0.17637000  1
  Co  Co25  1  0.75781000  0.74057000  0.06312000  1
  Co  Co26  1  0.75943000  0.74219000  0.43688000  1
  Co  Co27  1  0.43850000  0.75781000  0.06312000  1
  Co  Co28  1  0.06150000  0.75943000  0.43688000  1
  Co  Co29  1  0.85469000  0.77919000  0.32363000  1
  Co  Co30  1  0.04249000  0.85469000  0.32363000  1
  Co  Co31  1  0.85890000  0.85890000  0.42330000  1
  Co  Co32  1  0.25781000  0.93850000  0.56312000  1
  Co  Co33  1  0.22081000  0.95751000  0.67637000  1
  H  H34  1  0.53430000  0.00140000  0.35120000  1
  H  H35  1  0.59910000  0.01400000  0.62420000  1
  H  H36  1  0.39550000  0.02430000  0.03210000  1
  H  H37  1  0.30490000  0.02990000  0.44600000  1
  H  H38  1  0.04410000  0.03390000  0.09690000  1
  H  H39  1  0.50140000  0.03430000  0.85120000  1
  H  H40  1  0.82510000  0.04410000  0.09690000  1
  H  H41  1  0.93080000  0.04560000  0.82810000  1
  H  H42  1  0.89550000  0.04810000  0.53210000  1
  H  H43  1  0.80450000  0.06920000  0.17190000  1
  H  H44  1  0.20020000  0.06940000  0.91300000  1
  H  H45  1  0.51400000  0.09910000  0.12420000  1
  H  H46  1  0.47570000  0.10450000  0.46790000  1
  H  H47  1  0.67920000  0.10620000  0.99340000  1
  H  H48  1  0.00140000  0.11310000  0.35120000  1
  H  H49  1  0.19290000  0.13590000  0.00630000  1
  H  H50  1  0.25390000  0.14120000  0.77140000  1
  H  H51  1  0.69290000  0.16490000  0.50630000  1
  H  H52  1  0.85880000  0.16650000  0.22860000  1
  H  H53  1  0.96610000  0.17490000  0.90310000  1
  H  H54  1  0.60620000  0.17920000  0.49340000  1
  H  H55  1  0.93060000  0.18260000  0.08700000  1
  H  H56  1  0.66490000  0.19290000  0.00630000  1
  H  H57  1  0.47010000  0.19510000  0.05400000  1
  H  H58  1  0.04560000  0.19550000  0.82810000  1
  H  H59  1  0.81740000  0.20020000  0.91300000  1
  H  H60  1  0.02990000  0.21920000  0.44600000  1
  H  H61  1  0.10620000  0.22120000  0.99340000  1
  H  H62  1  0.98600000  0.23730000  0.37580000  1
  H  H63  1  0.35880000  0.24610000  0.72860000  1
  H  H64  1  0.83350000  0.25390000  0.77140000  1
  H  H65  1  0.09910000  0.26270000  0.12420000  1
  H  H66  1  0.82080000  0.27880000  0.50660000  1
  H  H67  1  0.19510000  0.28080000  0.05400000  1
  H  H68  1  0.43060000  0.29980000  0.58700000  1
  H  H69  1  0.56920000  0.30450000  0.67190000  1
  H  H70  1  0.21920000  0.30490000  0.44600000  1
  H  H71  1  0.36410000  0.30710000  0.49370000  1
  H  H72  1  0.70020000  0.31740000  0.41300000  1
  H  H73  1  0.77880000  0.32080000  0.00660000  1
  H  H74  1  0.54410000  0.32510000  0.59690000  1
  H  H75  1  0.75390000  0.33350000  0.27140000  1
  H  H76  1  0.86410000  0.33510000  0.99370000  1
  H  H77  1  0.66650000  0.35880000  0.72860000  1
  H  H78  1  0.83510000  0.36410000  0.49370000  1
  H  H79  1  0.96570000  0.38690000  0.14880000  1
  H  H80  1  0.27880000  0.39380000  0.50660000  1
  H  H81  1  0.54810000  0.39550000  0.03210000  1
  H  H82  1  0.23730000  0.40090000  0.37580000  1
  H  H83  1  0.68260000  0.43060000  0.58700000  1
  H  H84  1  0.54560000  0.43080000  0.32810000  1
  H  H85  1  0.97570000  0.45190000  0.96790000  1
  H  H86  1  0.30450000  0.45440000  0.67190000  1
  H  H87  1  0.46610000  0.45590000  0.40310000  1
  H  H88  1  0.88690000  0.46570000  0.64880000  1
  H  H89  1  0.67490000  0.46610000  0.40310000  1
  H  H90  1  0.28080000  0.47010000  0.05400000  1
  H  H91  1  0.95190000  0.47570000  0.46790000  1
  H  H92  1  0.73730000  0.48600000  0.87580000  1
  H  H93  1  0.38690000  0.49860000  0.14880000  1
  H  H94  1  0.61310000  0.50140000  0.85120000  1
  H  H95  1  0.26270000  0.51400000  0.12420000  1
  H  H96  1  0.04810000  0.52430000  0.53210000  1
  H  H97  1  0.71920000  0.52990000  0.94600000  1
  H  H98  1  0.32510000  0.53390000  0.59690000  1
  H  H99  1  0.11310000  0.53430000  0.35120000  1
  H  H100  1  0.53390000  0.54410000  0.59690000  1
  H  H101  1  0.69550000  0.54560000  0.32810000  1
  H  H102  1  0.02430000  0.54810000  0.03210000  1
  H  H103  1  0.45440000  0.56920000  0.67190000  1
  H  H104  1  0.31740000  0.56940000  0.41300000  1
  H  H105  1  0.76270000  0.59910000  0.62420000  1
  H  H106  1  0.45190000  0.60450000  0.96790000  1
  H  H107  1  0.72120000  0.60620000  0.49340000  1
  H  H108  1  0.03430000  0.61310000  0.85120000  1
  H  H109  1  0.16490000  0.63590000  0.50630000  1
  H  H110  1  0.33350000  0.64120000  0.27140000  1
  H  H111  1  0.13590000  0.66490000  0.00630000  1
  H  H112  1  0.24610000  0.66650000  0.72860000  1
  H  H113  1  0.45590000  0.67490000  0.40310000  1
  H  H114  1  0.22120000  0.67920000  0.99340000  1
  H  H115  1  0.29980000  0.68260000  0.58700000  1
  H  H116  1  0.63590000  0.69290000  0.50630000  1
  H  H117  1  0.78080000  0.69510000  0.55400000  1
  H  H118  1  0.43080000  0.69550000  0.32810000  1
  H  H119  1  0.56940000  0.70020000  0.41300000  1
  H  H120  1  0.80490000  0.71920000  0.94600000  1
  H  H121  1  0.17920000  0.72120000  0.49340000  1
  H  H122  1  0.90090000  0.73730000  0.87580000  1
  H  H123  1  0.16650000  0.74610000  0.22860000  1
  H  H124  1  0.64120000  0.75390000  0.27140000  1
  H  H125  1  0.01400000  0.76270000  0.62420000  1
  H  H126  1  0.89380000  0.77880000  0.00660000  1
  H  H127  1  0.97010000  0.78080000  0.55400000  1
  H  H128  1  0.18260000  0.79980000  0.08700000  1
  H  H129  1  0.95440000  0.80450000  0.17190000  1
  H  H130  1  0.52990000  0.80490000  0.94600000  1
  H  H131  1  0.33510000  0.80710000  0.99370000  1
  H  H132  1  0.06940000  0.81740000  0.91300000  1
  H  H133  1  0.39380000  0.82080000  0.50660000  1
  H  H134  1  0.03390000  0.82510000  0.09690000  1
  H  H135  1  0.14120000  0.83350000  0.77140000  1
  H  H136  1  0.30710000  0.83510000  0.49370000  1
  H  H137  1  0.74610000  0.85880000  0.22860000  1
  H  H138  1  0.80710000  0.86410000  0.99370000  1
  H  H139  1  0.99860000  0.88690000  0.64880000  1
  H  H140  1  0.32080000  0.89380000  0.00660000  1
  H  H141  1  0.52430000  0.89550000  0.53210000  1
  H  H142  1  0.48600000  0.90090000  0.87580000  1
  H  H143  1  0.79980000  0.93060000  0.08700000  1
  H  H144  1  0.19550000  0.93080000  0.82810000  1
  H  H145  1  0.10450000  0.95190000  0.46790000  1
  H  H146  1  0.06920000  0.95440000  0.17190000  1
  H  H147  1  0.17490000  0.95590000  0.90310000  1
  H  H148  1  0.49860000  0.96570000  0.14880000  1
  H  H149  1  0.95590000  0.96610000  0.90310000  1
  H  H150  1  0.69510000  0.97010000  0.55400000  1
  H  H151  1  0.60450000  0.97570000  0.96790000  1
  H  H152  1  0.40090000  0.98600000  0.37580000  1
  H  H153  1  0.46570000  0.99860000  0.64880000  1
  C  C154  1  0.48082000  0.00402000  0.12054000  1
  C  C155  1  0.01588000  0.00748000  0.74476000  1
  C  C156  1  0.80757000  0.00807000  0.12309000  1
  C  C157  1  0.08044000  0.00944000  0.44948000  1
  C  C158  1  0.41605000  0.00985000  0.39425000  1
  C  C159  1  0.02225000  0.01355000  0.16815000  1
  C  C160  1  0.23188000  0.01588000  0.74476000  1
  C  C161  1  0.55554000  0.01794000  0.90718000  1
  C  C162  1  0.49598000  0.01918000  0.37946000  1
  C  C163  1  0.05554000  0.01934000  0.40718000  1
  C  C164  1  0.79605000  0.02225000  0.16815000  1
  C  C165  1  0.22775000  0.03245000  0.79225000  1
  C  C166  1  0.35844000  0.03574000  0.43658000  1
  C  C167  1  0.41956000  0.03936000  0.05052000  1
  C  C168  1  0.96755000  0.05245000  0.20775000  1
  C  C169  1  0.51794000  0.05554000  0.40718000  1
  C  C170  1  0.20733000  0.06003000  0.88261000  1
  C  C171  1  0.00807000  0.06127000  0.12309000  1
  C  C172  1  0.93456000  0.06286000  0.60722000  1
  C  C173  1  0.60464000  0.06544000  0.39278000  1
  C  C174  1  0.09826000  0.06866000  0.51062000  1
  C  C175  1  0.38148000  0.07038000  0.46466000  1
  C  C176  1  0.46064000  0.08044000  0.44948000  1
  C  C177  1  0.07038000  0.08348000  0.46466000  1
  C  C178  1  0.49015000  0.08395000  0.10575000  1
  C  C179  1  0.32246000  0.09826000  0.51062000  1
  C  C180  1  0.24046000  0.10246000  0.79792000  1
  C  C181  1  0.56544000  0.10464000  0.89278000  1
  C  C182  1  0.01918000  0.10538000  0.37946000  1
  C  C183  1  0.23297000  0.11457000  0.84349000  1
  C  C184  1  0.42962000  0.11852000  0.03534000  1
  C  C185  1  0.89754000  0.14084000  0.20208000  1
  C  C186  1  0.46426000  0.14156000  0.06342000  1
  C  C187  1  0.93997000  0.14997000  0.11739000  1
  C  C188  1  0.03574000  0.16924000  0.43658000  1
  C  C189  1  0.40174000  0.17754000  0.98938000  1
  C  C190  1  0.00985000  0.17985000  0.39425000  1
  C  C191  1  0.24902000  0.18652000  0.85294000  1
  C  C192  1  0.88543000  0.19103000  0.15651000  1
  C  C193  1  0.93873000  0.19243000  0.87691000  1
  C  C194  1  0.98645000  0.20395000  0.83185000  1
  C  C195  1  0.85003000  0.20733000  0.88261000  1
  C  C196  1  0.74902000  0.21152000  0.35294000  1
  C  C197  1  0.94755000  0.22775000  0.79225000  1
  C  C198  1  0.00748000  0.23188000  0.74476000  1
  C  C199  1  0.80897000  0.23297000  0.84349000  1
  C  C200  1  0.85916000  0.24046000  0.79792000  1
  C  C201  1  0.71152000  0.24902000  0.85294000  1
  C  C202  1  0.31348000  0.25098000  0.64706000  1
  C  C203  1  0.39754000  0.25954000  0.70208000  1
  C  C204  1  0.38543000  0.26703000  0.65651000  1
  C  C205  1  0.48412000  0.26812000  0.75524000  1
  C  C206  1  0.46755000  0.27225000  0.70775000  1
  C  C207  1  0.81348000  0.28848000  0.14706000  1
  C  C208  1  0.43997000  0.29267000  0.61739000  1
  C  C209  1  0.52225000  0.29605000  0.66815000  1
  C  C210  1  0.50807000  0.30757000  0.62309000  1
  C  C211  1  0.73297000  0.30897000  0.34349000  1
  C  C212  1  0.78848000  0.31348000  0.64706000  1
  C  C213  1  0.08395000  0.32015000  0.10575000  1
  C  C214  1  0.06866000  0.32246000  0.51062000  1
  C  C215  1  0.14156000  0.33076000  0.06342000  1
  C  C216  1  0.70733000  0.35003000  0.38261000  1
  C  C217  1  0.16924000  0.35844000  0.43658000  1
  C  C218  1  0.74046000  0.35916000  0.29792000  1
  C  C219  1  0.08348000  0.38148000  0.46466000  1
  C  C220  1  0.69103000  0.38543000  0.65651000  1
  C  C221  1  0.00402000  0.39462000  0.12054000  1
  C  C222  1  0.06286000  0.39536000  0.60722000  1
  C  C223  1  0.64084000  0.39754000  0.70208000  1
  C  C224  1  0.43134000  0.40174000  0.98938000  1
  C  C225  1  0.17985000  0.41605000  0.39425000  1
  C  C226  1  0.11852000  0.41652000  0.03534000  1
  C  C227  1  0.49056000  0.41956000  0.05052000  1
  C  C228  1  0.41652000  0.42962000  0.03534000  1
  C  C229  1  0.17754000  0.43134000  0.98938000  1
  C  C230  1  0.56286000  0.43456000  0.10722000  1
  C  C231  1  0.10464000  0.43714000  0.89278000  1
  C  C232  1  0.69243000  0.43873000  0.37691000  1
  C  C233  1  0.64997000  0.43997000  0.61739000  1
  C  C234  1  0.48066000  0.44446000  0.09282000  1
  C  C235  1  0.72775000  0.44755000  0.29225000  1
  C  C236  1  0.00944000  0.46064000  0.44948000  1
  C  C237  1  0.33076000  0.46426000  0.06342000  1
  C  C238  1  0.55245000  0.46755000  0.70775000  1
  C  C239  1  0.48645000  0.47775000  0.33185000  1
  C  C240  1  0.98206000  0.48066000  0.09282000  1
  C  C241  1  0.39462000  0.48082000  0.12054000  1
  C  C242  1  0.98066000  0.48206000  0.59282000  1
  C  C243  1  0.49252000  0.48412000  0.75524000  1
  C  C244  1  0.70395000  0.48645000  0.33185000  1
  C  C245  1  0.32015000  0.49015000  0.10575000  1
  C  C246  1  0.03936000  0.49056000  0.05052000  1
  C  C247  1  0.43873000  0.49193000  0.37691000  1
  C  C248  1  0.26812000  0.49252000  0.75524000  1
  C  C249  1  0.10538000  0.49598000  0.37946000  1
  C  C250  1  0.89462000  0.50402000  0.62054000  1
  C  C251  1  0.73188000  0.50748000  0.24476000  1
  C  C252  1  0.56127000  0.50807000  0.62309000  1
  C  C253  1  0.96064000  0.50944000  0.94948000  1
  C  C254  1  0.67985000  0.50985000  0.89425000  1
  C  C255  1  0.29605000  0.51355000  0.66815000  1
  C  C256  1  0.50748000  0.51588000  0.24476000  1
  C  C257  1  0.01934000  0.51794000  0.40718000  1
  C  C258  1  0.60538000  0.51918000  0.87946000  1
  C  C259  1  0.01794000  0.51934000  0.90718000  1
  C  C260  1  0.51355000  0.52225000  0.66815000  1
  C  C261  1  0.44755000  0.53245000  0.29225000  1
  C  C262  1  0.66924000  0.53574000  0.93658000  1
  C  C263  1  0.99056000  0.53936000  0.55052000  1
  C  C264  1  0.27225000  0.55245000  0.70775000  1
  C  C265  1  0.51934000  0.55554000  0.90718000  1
  C  C266  1  0.35003000  0.56003000  0.38261000  1
  C  C267  1  0.30757000  0.56127000  0.62309000  1
  C  C268  1  0.89536000  0.56286000  0.10722000  1
  C  C269  1  0.43714000  0.56544000  0.89278000  1
  C  C270  1  0.82246000  0.56866000  0.01062000  1
  C  C271  1  0.58348000  0.57038000  0.96466000  1
  C  C272  1  0.50944000  0.58044000  0.94948000  1
  C  C273  1  0.88148000  0.58348000  0.96466000  1
  C  C274  1  0.82015000  0.58395000  0.60575000  1
  C  C275  1  0.56866000  0.59826000  0.01062000  1
  C  C276  1  0.35916000  0.60246000  0.29792000  1
  C  C277  1  0.93714000  0.60464000  0.39278000  1
  C  C278  1  0.99598000  0.60538000  0.87946000  1
  C  C279  1  0.30897000  0.61457000  0.34349000  1
  C  C280  1  0.91652000  0.61852000  0.53534000  1
  C  C281  1  0.25954000  0.64084000  0.70208000  1
  C  C282  1  0.83076000  0.64156000  0.56342000  1
  C  C283  1  0.29267000  0.64997000  0.61739000  1
  C  C284  1  0.85844000  0.66924000  0.93658000  1
  C  C285  1  0.93134000  0.67754000  0.48938000  1
  C  C286  1  0.91605000  0.67985000  0.89425000  1
  C  C287  1  0.21152000  0.68652000  0.35294000  1
  C  C288  1  0.26703000  0.69103000  0.65651000  1
  C  C289  1  0.49193000  0.69243000  0.37691000  1
  C  C290  1  0.47775000  0.70395000  0.33185000  1
  C  C291  1  0.56003000  0.70733000  0.38261000  1
  C  C292  1  0.18652000  0.71152000  0.85294000  1
  C  C293  1  0.53245000  0.72775000  0.29225000  1
  C  C294  1  0.51588000  0.73188000  0.24476000  1
  C  C295  1  0.61457000  0.73297000  0.34349000  1
  C  C296  1  0.60246000  0.74046000  0.29792000  1
  C  C297  1  0.68652000  0.74902000  0.35294000  1
  C  C298  1  0.28848000  0.75098000  0.14706000  1
  C  C299  1  0.14084000  0.75954000  0.20208000  1
  C  C300  1  0.19103000  0.76703000  0.15651000  1
  C  C301  1  0.99252000  0.76812000  0.25524000  1
  C  C302  1  0.05245000  0.77225000  0.20775000  1
  C  C303  1  0.25098000  0.78848000  0.64706000  1
  C  C304  1  0.14997000  0.79267000  0.11739000  1
  C  C305  1  0.01355000  0.79605000  0.16815000  1
  C  C306  1  0.06127000  0.80757000  0.12309000  1
  C  C307  1  0.11457000  0.80897000  0.84349000  1
  C  C308  1  0.75098000  0.81348000  0.14706000  1
  C  C309  1  0.99015000  0.82015000  0.60575000  1
  C  C310  1  0.59826000  0.82246000  0.01062000  1
  C  C311  1  0.96426000  0.83076000  0.56342000  1
  C  C312  1  0.06003000  0.85003000  0.88261000  1
  C  C313  1  0.53574000  0.85844000  0.93658000  1
  C  C314  1  0.10246000  0.85916000  0.79792000  1
  C  C315  1  0.57038000  0.88148000  0.96466000  1
  C  C316  1  0.76703000  0.88543000  0.15651000  1
  C  C317  1  0.98082000  0.89462000  0.62054000  1
  C  C318  1  0.43456000  0.89536000  0.10722000  1
  C  C319  1  0.75954000  0.89754000  0.20208000  1
  C  C320  1  0.67754000  0.90174000  0.48938000  1
  C  C321  1  0.50985000  0.91605000  0.89425000  1
  C  C322  1  0.92962000  0.91652000  0.53534000  1
  C  C323  1  0.53936000  0.91956000  0.55052000  1
  C  C324  1  0.61852000  0.92962000  0.53534000  1
  C  C325  1  0.90174000  0.93134000  0.48938000  1
  C  C326  1  0.39536000  0.93456000  0.60722000  1
  C  C327  1  0.06544000  0.93714000  0.39278000  1
  C  C328  1  0.99193000  0.93873000  0.87691000  1
  C  C329  1  0.79267000  0.93997000  0.11739000  1
  C  C330  1  0.48206000  0.94446000  0.59282000  1
  C  C331  1  0.03245000  0.94755000  0.79225000  1
  C  C332  1  0.58044000  0.96064000  0.94948000  1
  C  C333  1  0.64156000  0.96426000  0.56342000  1
  C  C334  1  0.77225000  0.96755000  0.20775000  1
  C  C335  1  0.20395000  0.97775000  0.83185000  1
  C  C336  1  0.94446000  0.98066000  0.59282000  1
  C  C337  1  0.50402000  0.98082000  0.62054000  1
  C  C338  1  0.44446000  0.98206000  0.09282000  1
  C  C339  1  0.76812000  0.98412000  0.25524000  1
  C  C340  1  0.97775000  0.98645000  0.83185000  1
  C  C341  1  0.58395000  0.99015000  0.60575000  1
  C  C342  1  0.91956000  0.99056000  0.55052000  1
  C  C343  1  0.19243000  0.99193000  0.87691000  1
  C  C344  1  0.98412000  0.99252000  0.25524000  1
  C  C345  1  0.51918000  0.99598000  0.87946000  1
  O  O346  1  0.92062000  0.00032000  0.28974000  1
  O  O347  1  0.84974000  0.01134000  0.47318000  1
  O  O348  1  0.16885000  0.01335000  0.61595000  1
  O  O349  1  0.65880000  0.03530000  0.35630000  1
  O  O350  1  0.96470000  0.05040000  0.64370000  1
  O  O351  1  0.74682000  0.06522000  0.25854000  1
  O  O352  1  0.26250000  0.07030000  0.53000000  1
  O  O353  1  0.93478000  0.07058000  0.74146000  1
  O  O354  1  0.21068000  0.07938000  0.71026000  1
  O  O355  1  0.61768000  0.10248000  0.41906000  1
  O  O356  1  0.60248000  0.11768000  0.91906000  1
  O  O357  1  0.07030000  0.13720000  0.53000000  1
  O  O358  1  0.66476000  0.13786000  0.49202000  1
  O  O359  1  0.89752000  0.13922000  0.58094000  1
  O  O360  1  0.33426000  0.15026000  0.52682000  1
  O  O361  1  0.53530000  0.15880000  0.85630000  1
  O  O362  1  0.63786000  0.16476000  0.99202000  1
  O  O363  1  0.34974000  0.16574000  0.97318000  1
  O  O364  1  0.20185000  0.16885000  0.61595000  1
  O  O365  1  0.75945000  0.17125000  0.39485000  1
  O  O366  1  0.25945000  0.17445000  0.89485000  1
  O  O367  1  0.74798000  0.17848000  0.32036000  1
  O  O368  1  0.01335000  0.20185000  0.61595000  1
  O  O369  1  0.16476000  0.20536000  0.99202000  1
  O  O370  1  0.99968000  0.21068000  0.71026000  1
  O  O371  1  0.42970000  0.23750000  0.97000000  1
  O  O372  1  0.32555000  0.24055000  0.60515000  1
  O  O373  1  0.56522000  0.24682000  0.75854000  1
  O  O374  1  0.82152000  0.24682000  0.67964000  1
  O  O375  1  0.67848000  0.24798000  0.82036000  1
  O  O376  1  0.24682000  0.25202000  0.67964000  1
  O  O377  1  0.07058000  0.25318000  0.74146000  1
  O  O378  1  0.24798000  0.25318000  0.82036000  1
  O  O379  1  0.67125000  0.25945000  0.89485000  1
  O  O380  1  0.13720000  0.26250000  0.53000000  1
  O  O381  1  0.42062000  0.28932000  0.78974000  1
  O  O382  1  0.86214000  0.29464000  0.50798000  1
  O  O383  1  0.33115000  0.29815000  0.88405000  1
  O  O384  1  0.74682000  0.32152000  0.17964000  1
  O  O385  1  0.82875000  0.32555000  0.60515000  1
  O  O386  1  0.82555000  0.32875000  0.10515000  1
  O  O387  1  0.48665000  0.33115000  0.88405000  1
  O  O388  1  0.98866000  0.33426000  0.52682000  1
  O  O389  1  0.29464000  0.33524000  0.50798000  1
  O  O390  1  0.05040000  0.34120000  0.64370000  1
  O  O391  1  0.51134000  0.34974000  0.97318000  1
  O  O392  1  0.11768000  0.36078000  0.91906000  1
  O  O393  1  0.79464000  0.36214000  0.00798000  1
  O  O394  1  0.23750000  0.36280000  0.97000000  1
  O  O395  1  0.13922000  0.38232000  0.58094000  1
  O  O396  1  0.63922000  0.39752000  0.08094000  1
  O  O397  1  0.50032000  0.42062000  0.78974000  1
  O  O398  1  0.24682000  0.42942000  0.75854000  1
  O  O399  1  0.36280000  0.42970000  0.97000000  1
  O  O400  1  0.57058000  0.43478000  0.24146000  1
  O  O401  1  0.15880000  0.44960000  0.85630000  1
  O  O402  1  0.55040000  0.46470000  0.14370000  1
  O  O403  1  0.29815000  0.48665000  0.88405000  1
  O  O404  1  0.83426000  0.48866000  0.02682000  1
  O  O405  1  0.71068000  0.49968000  0.21026000  1
  O  O406  1  0.28932000  0.50032000  0.78974000  1
  O  O407  1  0.16574000  0.51134000  0.97318000  1
  O  O408  1  0.70185000  0.51335000  0.11595000  1
  O  O409  1  0.44960000  0.53530000  0.85630000  1
  O  O410  1  0.84120000  0.55040000  0.14370000  1
  O  O411  1  0.42942000  0.56522000  0.75854000  1
  O  O412  1  0.63720000  0.57030000  0.03000000  1
  O  O413  1  0.75318000  0.57058000  0.24146000  1
  O  O414  1  0.49968000  0.57938000  0.21026000  1
  O  O415  1  0.36078000  0.60248000  0.91906000  1
  O  O416  1  0.86078000  0.61768000  0.41906000  1
  O  O417  1  0.76250000  0.63720000  0.03000000  1
  O  O418  1  0.20536000  0.63786000  0.99202000  1
  O  O419  1  0.88232000  0.63922000  0.08094000  1
  O  O420  1  0.48866000  0.65026000  0.02682000  1
  O  O421  1  0.94960000  0.65880000  0.35630000  1
  O  O422  1  0.70536000  0.66476000  0.49202000  1
  O  O423  1  0.01134000  0.66574000  0.47318000  1
  O  O424  1  0.51335000  0.66885000  0.11595000  1
  O  O425  1  0.17445000  0.67125000  0.89485000  1
  O  O426  1  0.17125000  0.67445000  0.39485000  1
  O  O427  1  0.25318000  0.67848000  0.82036000  1
  O  O428  1  0.66885000  0.70185000  0.11595000  1
  O  O429  1  0.13786000  0.70536000  0.49202000  1
  O  O430  1  0.57938000  0.71068000  0.21026000  1
  O  O431  1  0.86280000  0.73750000  0.47000000  1
  O  O432  1  0.32875000  0.74055000  0.10515000  1
  O  O433  1  0.75202000  0.74682000  0.17964000  1
  O  O434  1  0.92942000  0.74682000  0.25854000  1
  O  O435  1  0.75318000  0.74798000  0.32036000  1
  O  O436  1  0.32152000  0.75202000  0.17964000  1
  O  O437  1  0.17848000  0.75318000  0.32036000  1
  O  O438  1  0.43478000  0.75318000  0.24146000  1
  O  O439  1  0.67445000  0.75945000  0.39485000  1
  O  O440  1  0.57030000  0.76250000  0.03000000  1
  O  O441  1  0.00032000  0.78932000  0.28974000  1
  O  O442  1  0.83524000  0.79464000  0.00798000  1
  O  O443  1  0.98665000  0.79815000  0.38405000  1
  O  O444  1  0.25202000  0.82152000  0.67964000  1
  O  O445  1  0.74055000  0.82555000  0.10515000  1
  O  O446  1  0.24055000  0.82875000  0.60515000  1
  O  O447  1  0.79815000  0.83115000  0.38405000  1
  O  O448  1  0.65026000  0.83426000  0.02682000  1
  O  O449  1  0.36214000  0.83524000  0.00798000  1
  O  O450  1  0.46470000  0.84120000  0.14370000  1
  O  O451  1  0.66574000  0.84974000  0.47318000  1
  O  O452  1  0.10248000  0.86078000  0.41906000  1
  O  O453  1  0.33524000  0.86214000  0.50798000  1
  O  O454  1  0.92970000  0.86280000  0.47000000  1
  O  O455  1  0.39752000  0.88232000  0.08094000  1
  O  O456  1  0.38232000  0.89752000  0.58094000  1
  O  O457  1  0.78932000  0.92062000  0.28974000  1
  O  O458  1  0.06522000  0.92942000  0.25854000  1
  O  O459  1  0.73750000  0.92970000  0.47000000  1
  O  O460  1  0.25318000  0.93478000  0.74146000  1
  O  O461  1  0.03530000  0.94960000  0.35630000  1
  O  O462  1  0.34120000  0.96470000  0.64370000  1
  O  O463  1  0.83115000  0.98665000  0.38405000  1
  O  O464  1  0.15026000  0.98866000  0.52682000  1
  O  O465  1  0.07938000  0.99968000  0.71026000  1
