# generated using pymatgen
data_Zn3P2H6(C8O7)2
_symmetry_space_group_name_H-M   'P 1'
_cell_length_a   17.39078362
_cell_length_b   17.39090000
_cell_length_c   17.39090000
_cell_angle_alpha   96.22840000
_cell_angle_beta   116.47136259
_cell_angle_gamma   116.47176259
_symmetry_Int_Tables_number   1
_chemical_formula_structural   Zn3P2H6(C8O7)2
_chemical_formula_sum   'Zn12 P8 H24 C64 O56'
_cell_volume   3892.63565733
_cell_formula_units_Z   4
loop_
 _symmetry_equiv_pos_site_id
 _symmetry_equiv_pos_as_xyz
  1  'x, y, z'
loop_
 _atom_site_type_symbol
 _atom_site_label
 _atom_site_symmetry_multiplicity
 _atom_site_fract_x
 _atom_site_fract_y
 _atom_site_fract_z
 _atom_site_occupancy
  Zn  Zn0  1  0.05563000  0.55279000  0.05818000  1
  Zn  Zn1  1  0.88207000  0.62500000  0.00707000  1
  Zn  Zn2  1  0.00539000  0.69721000  0.25284000  1
  Zn  Zn3  1  0.61793000  0.99293000  0.87500000  1
  Zn  Zn4  1  0.44437000  0.74716000  0.75255000  1
  Zn  Zn5  1  0.49461000  0.94182000  0.99745000  1
  Zn  Zn6  1  0.94437000  0.00255000  0.49716000  1
  Zn  Zn7  1  0.11793000  0.12500000  0.74293000  1
  Zn  Zn8  1  0.99461000  0.24745000  0.69182000  1
  Zn  Zn9  1  0.55563000  0.30818000  0.30279000  1
  Zn  Zn10  1  0.50539000  0.50284000  0.44721000  1
  Zn  Zn11  1  0.38207000  0.25707000  0.37500000  1
  P  P12  1  0.12036000  0.75376000  0.15862000  1
  P  P13  1  0.90486000  0.49624000  0.11660000  1
  P  P14  1  0.59514000  0.84138000  0.96174000  1
  P  P15  1  0.37964000  0.88340000  0.78826000  1
  P  P16  1  0.09514000  0.21174000  0.59138000  1
  P  P17  1  0.87964000  0.03826000  0.63340000  1
  P  P18  1  0.40486000  0.36660000  0.24624000  1
  P  P19  1  0.62036000  0.40862000  0.50376000  1
  H  H20  1  0.23450000  0.95210000  0.25640000  1
  H  H21  1  0.55040000  0.74680000  0.61240000  1
  H  H22  1  0.36560000  0.50320000  0.55360000  1
  H  H23  1  0.80430000  0.29790000  0.03240000  1
  H  H24  1  0.69570000  0.74360000  0.97810000  1
  H  H25  1  0.19570000  0.22810000  0.49360000  1
  H  H26  1  0.25160000  0.78680000  0.59440000  1
  H  H27  1  0.86560000  0.80360000  0.25320000  1
  H  H28  1  0.80760000  0.46480000  0.21320000  1
  H  H29  1  0.05040000  0.86240000  0.49680000  1
  H  H30  1  0.69240000  0.90720000  0.15560000  1
  H  H31  1  0.19240000  0.40560000  0.65720000  1
  H  H32  1  0.63440000  0.18800000  0.13760000  1
  H  H33  1  0.26550000  0.96760000  0.77190000  1
  H  H34  1  0.30430000  0.28240000  0.04790000  1
  H  H35  1  0.44960000  0.06200000  0.19640000  1
  H  H36  1  0.75160000  0.84440000  0.53680000  1
  H  H37  1  0.74840000  0.34280000  0.53520000  1
  H  H38  1  0.13440000  0.38760000  0.93800000  1
  H  H39  1  0.24840000  0.78520000  0.09280000  1
  H  H40  1  0.94960000  0.44640000  0.81200000  1
  H  H41  1  0.30760000  0.46320000  0.21480000  1
  H  H42  1  0.76550000  0.02190000  0.71760000  1
  H  H43  1  0.73450000  0.50640000  0.70210000  1
  C  C44  1  0.60610000  0.79610000  0.61660000  1
  C  C45  1  0.65220000  0.88590000  0.67410000  1
  C  C46  1  0.61510000  0.90160000  0.73430000  1
  C  C47  1  0.33270000  0.34840000  0.46350000  1
  C  C48  1  0.28820000  0.36410000  0.51630000  1
  C  C49  1  0.32050000  0.45390000  0.56000000  1
  C  C50  1  0.83270000  0.71350000  0.09840000  1
  C  C51  1  0.78240000  0.30650000  0.07070000  1
  C  C52  1  0.81880000  0.39520000  0.12180000  1
  C  C53  1  0.21760000  0.28830000  0.52410000  1
  C  C54  1  0.71760000  0.77410000  0.03830000  1
  C  C55  1  0.78820000  0.76630000  0.11410000  1
  C  C56  1  0.28570000  0.47010000  0.61280000  1
  C  C57  1  0.09950000  0.75660000  0.43290000  1
  C  C58  1  0.32370000  0.56710000  0.66660000  1
  C  C59  1  0.66730000  0.13080000  0.01570000  1
  C  C60  1  0.71180000  0.22810000  0.07590000  1
  C  C61  1  0.68120000  0.82640000  0.05300000  1
  C  C62  1  0.22690000  0.82130000  0.60560000  1
  C  C63  1  0.82050000  0.81000000  0.20390000  1
  C  C64  1  0.14270000  0.81560000  0.52990000  1
  C  C65  1  0.78430000  0.40560000  0.17870000  1
  C  C66  1  0.18120000  0.30300000  0.57640000  1
  C  C67  1  0.21570000  0.39440000  0.62130000  1
  C  C68  1  0.27340000  0.87820000  0.69700000  1
  C  C69  1  0.71570000  0.87130000  0.14440000  1
  C  C70  1  0.78570000  0.86280000  0.22010000  1
  C  C71  1  0.10610000  0.86660000  0.54610000  1
  C  C72  1  0.67950000  0.23950000  0.13340000  1
  C  C73  1  0.71430000  0.32710000  0.18440000  1
  C  C74  1  0.23580000  0.92930000  0.71170000  1
  C  C75  1  0.15220000  0.92410000  0.63590000  1
  C  C76  1  0.82370000  0.91660000  0.31710000  1
  C  C77  1  0.11510000  0.98430000  0.65160000  1
  C  C78  1  0.67630000  0.34290000  0.24340000  1
  C  C79  1  0.40050000  0.90710000  0.08340000  1
  C  C80  1  0.16730000  0.26570000  0.88080000  1
  C  C81  1  0.90050000  0.33340000  0.65710000  1
  C  C82  1  0.21180000  0.32590000  0.97810000  1
  C  C83  1  0.28240000  0.32070000  0.05650000  1
  C  C84  1  0.35730000  0.92290000  0.13720000  1
  C  C85  1  0.39390000  0.01050000  0.19000000  1
  C  C86  1  0.17950000  0.38340000  0.98950000  1
  C  C87  1  0.85730000  0.38720000  0.67290000  1
  C  C88  1  0.77310000  0.37870000  0.59440000  1
  C  C89  1  0.31880000  0.37180000  0.14520000  1
  C  C90  1  0.72690000  0.85560000  0.57130000  1
  C  C91  1  0.77340000  0.94700000  0.62820000  1
  C  C92  1  0.27310000  0.84440000  0.12870000  1
  C  C93  1  0.21430000  0.43440000  0.07710000  1
  C  C94  1  0.89390000  0.44000000  0.76050000  1
  C  C95  1  0.28430000  0.42870000  0.15560000  1
  C  C96  1  0.72660000  0.42360000  0.60480000  1
  C  C97  1  0.34780000  0.02190000  0.23370000  1
  C  C98  1  0.38490000  0.11920000  0.28650000  1
  C  C99  1  0.59950000  0.68290000  0.50660000  1
  C  C100  1  0.17630000  0.49340000  0.09290000  1
  C  C101  1  0.64270000  0.77990000  0.56560000  1
  C  C102  1  0.84780000  0.48370000  0.77190000  1
  C  C103  1  0.76420000  0.47590000  0.69350000  1
  C  C104  1  0.73580000  0.96170000  0.67930000  1
  C  C105  1  0.22660000  0.85480000  0.17360000  1
  C  C106  1  0.26420000  0.94350000  0.22590000  1
  C  C107  1  0.88490000  0.53650000  0.86920000  1
  O  O108  1  0.13880000  0.67680000  0.14840000  1
  O  O109  1  0.83610000  0.57037000  0.87727000  1
  O  O110  1  0.02390000  0.73170000  0.07160000  1
  O  O111  1  0.38690000  0.41620000  0.45270000  1
  O  O112  1  0.30690000  0.26573000  0.42963000  1
  O  O113  1  0.12120000  0.77790000  0.24530000  1
  O  O114  1  0.96740000  0.47210000  0.09330000  1
  O  O115  1  0.66390000  0.98427000  0.79117000  1
  O  O116  1  0.53650000  0.83380000  0.72070000  1
  O  O117  1  0.83990000  0.51830000  0.04220000  1
  O  O118  1  0.80690000  0.67963000  0.01573000  1
  O  O119  1  0.97160000  0.57320000  0.21200000  1
  O  O120  1  0.69310000  0.12273000  0.95883000  1
  O  O121  1  0.38570000  0.63150000  0.65800000  1
  O  O122  1  0.88690000  0.70270000  0.16620000  1
  O  O123  1  0.14060000  0.71870000  0.42130000  1
  O  O124  1  0.66010000  0.92840000  0.95230000  1
  O  O125  1  0.47610000  0.95780000  0.79770000  1
  O  O126  1  0.02650000  0.75420000  0.36850000  1
  O  O127  1  0.53260000  0.75470000  0.87590000  1
  O  O128  1  0.36120000  0.78800000  0.75960000  1
  O  O129  1  0.61310000  0.06580000  0.02930000  1
  O  O130  1  0.29740000  0.57870000  0.71930000  1
  O  O131  1  0.52840000  0.85160000  0.99040000  1
  O  O132  1  0.03260000  0.12590000  0.50470000  1
  O  O133  1  0.37880000  0.90670000  0.87410000  1
  O  O134  1  0.88570000  0.90800000  0.38150000  1
  O  O135  1  0.16010000  0.20230000  0.67840000  1
  O  O136  1  0.79740000  0.96930000  0.32870000  1
  O  O137  1  0.03650000  0.97070000  0.58380000  1
  O  O138  1  0.16390000  0.04117000  0.73427000  1
  O  O139  1  0.02840000  0.24040000  0.60160000  1
  O  O140  1  0.70260000  0.42190000  0.28130000  1
  O  O141  1  0.47350000  0.97770000  0.09200000  1
  O  O142  1  0.61430000  0.27230000  0.24580000  1
  O  O143  1  0.35940000  0.82810000  0.03070000  1
  O  O144  1  0.86120000  0.00960000  0.53800000  1
  O  O145  1  0.19310000  0.20883000  0.87273000  1
  O  O146  1  0.11310000  0.27930000  0.81580000  1
  O  O147  1  0.85940000  0.28070000  0.57810000  1
  O  O148  1  0.97610000  0.04770000  0.70780000  1
  O  O149  1  0.97350000  0.34200000  0.72770000  1
  O  O150  1  0.46740000  0.34330000  0.22210000  1
  O  O151  1  0.87880000  0.12410000  0.65670000  1
  O  O152  1  0.63880000  0.39840000  0.42680000  1
  O  O153  1  0.64060000  0.67130000  0.46870000  1
  O  O154  1  0.46350000  0.18420000  0.29730000  1
  O  O155  1  0.47160000  0.46200000  0.32320000  1
  O  O156  1  0.62120000  0.49530000  0.52790000  1
  O  O157  1  0.11430000  0.49580000  0.02230000  1
  O  O158  1  0.33990000  0.29220000  0.26830000  1
  O  O159  1  0.52390000  0.32160000  0.48170000  1
  O  O160  1  0.20260000  0.53130000  0.17190000  1
  O  O161  1  0.96350000  0.54730000  0.93420000  1
  O  O162  1  0.52650000  0.61850000  0.50420000  1
  O  O163  1  0.33610000  0.12727000  0.32037000  1
