# generated using pymatgen
data_Cd3H14C32(NO6)2
_symmetry_space_group_name_H-M   'P 1'
_cell_length_a   18.46660000
_cell_length_b   19.69760000
_cell_length_c   23.03100000
_cell_angle_alpha   115.17400000
_cell_angle_beta   90.00000000
_cell_angle_gamma   117.95300000
_symmetry_Int_Tables_number   1
_chemical_formula_structural   Cd3H14C32(NO6)2
_chemical_formula_sum   'Cd12 H56 C128 N8 O48'
_cell_volume   6485.58016458
_cell_formula_units_Z   4
loop_
 _symmetry_equiv_pos_site_id
 _symmetry_equiv_pos_as_xyz
  1  'x, y, z'
loop_
 _atom_site_type_symbol
 _atom_site_label
 _atom_site_symmetry_multiplicity
 _atom_site_fract_x
 _atom_site_fract_y
 _atom_site_fract_z
 _atom_site_occupancy
  Cd  Cd0  1  0.09959000  0.42034000  0.80573000  1
  Cd  Cd1  1  0.19886000  0.64164000  0.82219000  1
  Cd  Cd2  1  0.26896000  0.64718000  0.96453000  1
  Cd  Cd3  1  0.32075000  0.42034000  0.30573000  1
  Cd  Cd4  1  0.37822000  0.64718000  0.46453000  1
  Cd  Cd5  1  0.44278000  0.64164000  0.32219000  1
  Cd  Cd6  1  0.55722000  0.35836000  0.67781000  1
  Cd  Cd7  1  0.62178000  0.35282000  0.53547000  1
  Cd  Cd8  1  0.67925000  0.57966000  0.69427000  1
  Cd  Cd9  1  0.73104000  0.35282000  0.03547000  1
  Cd  Cd10  1  0.80114000  0.35836000  0.17781000  1
  Cd  Cd11  1  0.90041000  0.57966000  0.19427000  1
  H  H12  1  0.05480000  0.87900000  0.24670000  1
  H  H13  1  0.05700000  0.30440000  0.90130000  1
  H  H14  1  0.05980000  0.51080000  0.04990000  1
  H  H15  1  0.06080000  0.65620000  0.31730000  1
  H  H16  1  0.07550000  0.85420000  0.40840000  1
  H  H17  1  0.07710000  0.44060000  0.26290000  1
  H  H18  1  0.10900000  0.97080000  0.19090000  1
  H  H19  1  0.11260000  0.73460000  0.98930000  1
  H  H20  1  0.13820000  0.02920000  0.30910000  1
  H  H21  1  0.15630000  0.99380000  0.02710000  1
  H  H22  1  0.16250000  0.00620000  0.47290000  1
  H  H23  1  0.17580000  0.12100000  0.25330000  1
  H  H24  1  0.22130000  0.14580000  0.09160000  1
  H  H25  1  0.24740000  0.30440000  0.40130000  1
  H  H26  1  0.25890000  0.93060000  0.47220000  1
  H  H27  1  0.26840000  0.92420000  0.95370000  1
  H  H28  1  0.28510000  0.68040000  0.36510000  1
  H  H29  1  0.32830000  0.06940000  0.02780000  1
  H  H30  1  0.34420000  0.07580000  0.54630000  1
  H  H31  1  0.36350000  0.44060000  0.76290000  1
  H  H32  1  0.37800000  0.26540000  0.51070000  1
  H  H33  1  0.39530000  0.68040000  0.86510000  1
  H  H34  1  0.40460000  0.34380000  0.18270000  1
  H  H35  1  0.44430000  0.91280000  0.04110000  1
  H  H36  1  0.44540000  0.93980000  0.38310000  1
  H  H37  1  0.45100000  0.51080000  0.54990000  1
  H  H38  1  0.46850000  0.91280000  0.54110000  1
  H  H39  1  0.49440000  0.93980000  0.88310000  1
  H  H40  1  0.50560000  0.06020000  0.11690000  1
  H  H41  1  0.53150000  0.08720000  0.45890000  1
  H  H42  1  0.54900000  0.48920000  0.45010000  1
  H  H43  1  0.55460000  0.06020000  0.61690000  1
  H  H44  1  0.55570000  0.08720000  0.95890000  1
  H  H45  1  0.59540000  0.65620000  0.81730000  1
  H  H46  1  0.60470000  0.31960000  0.13490000  1
  H  H47  1  0.62200000  0.73460000  0.48930000  1
  H  H48  1  0.63650000  0.55940000  0.23710000  1
  H  H49  1  0.65580000  0.92420000  0.45370000  1
  H  H50  1  0.67170000  0.93060000  0.97220000  1
  H  H51  1  0.71490000  0.31960000  0.63490000  1
  H  H52  1  0.73160000  0.07580000  0.04630000  1
  H  H53  1  0.74110000  0.06940000  0.52780000  1
  H  H54  1  0.75260000  0.69560000  0.59870000  1
  H  H55  1  0.77870000  0.85420000  0.90840000  1
  H  H56  1  0.82420000  0.87900000  0.74670000  1
  H  H57  1  0.83750000  0.99380000  0.52710000  1
  H  H58  1  0.84370000  0.00620000  0.97290000  1
  H  H59  1  0.86180000  0.97080000  0.69090000  1
  H  H60  1  0.88740000  0.26540000  0.01070000  1
  H  H61  1  0.89100000  0.02920000  0.80910000  1
  H  H62  1  0.92290000  0.55940000  0.73710000  1
  H  H63  1  0.92450000  0.14580000  0.59160000  1
  H  H64  1  0.93920000  0.34380000  0.68270000  1
  H  H65  1  0.94020000  0.48920000  0.95010000  1
  H  H66  1  0.94300000  0.69560000  0.09870000  1
  H  H67  1  0.94520000  0.12100000  0.75330000  1
  C  C68  1  0.00020000  0.75360000  0.27860000  1
  C  C69  1  0.03150000  0.72940000  0.04790000  1
  C  C70  1  0.03251000  0.60602000  0.96170000  1
  C  C71  1  0.03583000  0.32706000  0.93660000  1
  C  C72  1  0.03670000  0.45060000  0.02490000  1
  C  C73  1  0.03783000  0.51966000  0.74860000  1
  C  C74  1  0.05515000  0.53990000  0.28460000  1
  C  C75  1  0.05730000  0.85200000  0.32180000  1
  C  C76  1  0.06651000  0.69662000  0.99830000  1
  C  C77  1  0.07151000  0.41802000  0.97430000  1
  C  C78  1  0.07391000  0.57062000  0.91030000  1
  C  C79  1  0.07670000  0.90460000  0.29210000  1
  C  C80  1  0.08920000  0.88960000  0.38850000  1
  C  C81  1  0.09250000  0.87160000  0.06300000  1
  C  C82  1  0.09278000  0.63076000  0.31610000  1
  C  C83  1  0.10282000  0.50124000  0.28360000  1
  C  C84  1  0.12790000  0.99420000  0.32900000  1
  C  C85  1  0.13170000  0.96720000  0.10380000  1
  C  C86  1  0.13370000  0.00580000  0.17100000  1
  C  C87  1  0.14240000  0.98080000  0.42730000  1
  C  C88  1  0.14474000  0.47848000  0.95880000  1
  C  C89  1  0.16160000  0.01920000  0.07270000  1
  C  C90  1  0.16450000  0.03280000  0.39620000  1
  C  C91  1  0.17210000  0.09540000  0.20790000  1
  C  C92  1  0.18050000  0.68360000  0.34610000  1
  C  C93  1  0.18985000  0.55510000  0.31420000  1
  C  C94  1  0.19960000  0.11040000  0.11150000  1
  C  C95  1  0.20530000  0.14800000  0.17820000  1
  C  C96  1  0.22090000  0.12840000  0.43700000  1
  C  C97  1  0.22741000  0.64502000  0.34490000  1
  C  C98  1  0.23988000  0.51356000  0.31380000  1
  C  C99  1  0.24660000  0.24640000  0.22140000  1
  C  C100  1  0.27368000  0.51356000  0.81380000  1
  C  C101  1  0.29123000  0.32706000  0.43660000  1
  C  C102  1  0.29320000  0.82300000  0.37630000  1
  C  C103  1  0.30210000  0.27060000  0.45210000  1
  C  C104  1  0.31400000  0.96120000  0.46940000  1
  C  C105  1  0.31420000  0.81080000  0.93690000  1
  C  C106  1  0.31710000  0.95180000  0.98640000  1
  C  C107  1  0.33374000  0.47848000  0.45880000  1
  C  C108  1  0.34380000  0.91920000  0.42090000  1
  C  C109  1  0.34651000  0.41802000  0.47430000  1
  C  C110  1  0.35140000  0.90400000  0.98900000  1
  C  C111  1  0.35280000  0.03880000  0.03060000  1
  C  C112  1  0.36525000  0.55510000  0.81420000  1
  C  C113  1  0.36530000  0.04820000  0.51360000  1
  C  C114  1  0.36989000  0.30338000  0.50170000  1
  C  C115  1  0.39842000  0.50124000  0.78360000  1
  C  C116  1  0.41390000  0.45060000  0.52490000  1
  C  C117  1  0.41761000  0.64502000  0.84490000  1
  C  C118  1  0.42100000  0.94440000  0.03790000  1
  C  C119  1  0.42460000  0.08080000  0.07910000  1
  C  C120  1  0.42490000  0.96700000  0.41670000  1
  C  C121  1  0.42649000  0.39398000  0.53830000  1
  C  C122  1  0.44740000  0.09600000  0.51100000  1
  C  C123  1  0.45790000  0.03300000  0.08330000  1
  C  C124  1  0.46202000  0.36924000  0.18390000  1
  C  C125  1  0.47020000  0.17700000  0.12370000  1
  C  C126  1  0.47660000  0.05560000  0.46210000  1
  C  C127  1  0.48183000  0.51966000  0.24860000  1
  C  C128  1  0.48475000  0.53990000  0.78460000  1
  C  C129  1  0.49660000  0.81080000  0.43690000  1
  C  C130  1  0.49671000  0.57062000  0.41030000  1
  C  C131  1  0.49690000  0.31640000  0.15390000  1
  C  C132  1  0.50310000  0.68360000  0.84610000  1
  C  C133  1  0.50329000  0.42938000  0.58970000  1
  C  C134  1  0.50340000  0.18920000  0.56310000  1
  C  C135  1  0.51525000  0.46010000  0.21540000  1
  C  C136  1  0.51817000  0.48034000  0.75140000  1
  C  C137  1  0.52340000  0.94440000  0.53790000  1
  C  C138  1  0.52980000  0.82300000  0.87630000  1
  C  C139  1  0.53798000  0.63076000  0.81610000  1
  C  C140  1  0.54210000  0.96700000  0.91670000  1
  C  C141  1  0.55260000  0.90400000  0.48900000  1
  C  C142  1  0.57351000  0.60602000  0.46170000  1
  C  C143  1  0.57510000  0.03300000  0.58330000  1
  C  C144  1  0.57540000  0.91920000  0.92090000  1
  C  C145  1  0.57900000  0.05560000  0.96210000  1
  C  C146  1  0.58239000  0.35498000  0.15510000  1
  C  C147  1  0.58610000  0.54940000  0.47510000  1
  C  C148  1  0.60158000  0.49876000  0.21640000  1
  C  C149  1  0.63011000  0.69662000  0.49830000  1
  C  C150  1  0.63470000  0.95180000  0.48640000  1
  C  C151  1  0.63475000  0.44490000  0.18580000  1
  C  C152  1  0.64720000  0.96120000  0.96940000  1
  C  C153  1  0.64860000  0.09600000  0.01100000  1
  C  C154  1  0.65349000  0.58198000  0.52570000  1
  C  C155  1  0.65620000  0.08080000  0.57910000  1
  C  C156  1  0.66626000  0.52152000  0.54120000  1
  C  C157  1  0.68290000  0.04820000  0.01360000  1
  C  C158  1  0.68580000  0.18920000  0.06310000  1
  C  C159  1  0.68600000  0.03880000  0.53060000  1
  C  C160  1  0.69790000  0.72940000  0.54790000  1
  C  C161  1  0.70680000  0.17700000  0.62370000  1
  C  C162  1  0.70877000  0.67294000  0.56340000  1
  C  C163  1  0.72632000  0.48644000  0.18620000  1
  C  C164  1  0.75340000  0.75360000  0.77860000  1
  C  C165  1  0.76012000  0.48644000  0.68620000  1
  C  C166  1  0.77259000  0.35498000  0.65510000  1
  C  C167  1  0.77910000  0.87160000  0.56300000  1
  C  C168  1  0.79470000  0.85200000  0.82180000  1
  C  C169  1  0.80040000  0.88960000  0.88850000  1
  C  C170  1  0.81015000  0.44490000  0.68580000  1
  C  C171  1  0.81950000  0.31640000  0.65390000  1
  C  C172  1  0.82790000  0.90460000  0.79210000  1
  C  C173  1  0.83550000  0.96720000  0.60380000  1
  C  C174  1  0.83840000  0.98080000  0.92730000  1
  C  C175  1  0.85526000  0.52152000  0.04120000  1
  C  C176  1  0.85760000  0.01920000  0.57270000  1
  C  C177  1  0.86630000  0.99420000  0.82900000  1
  C  C178  1  0.86830000  0.03280000  0.89620000  1
  C  C179  1  0.87210000  0.00580000  0.67100000  1
  C  C180  1  0.89718000  0.49876000  0.71640000  1
  C  C181  1  0.90722000  0.36924000  0.68390000  1
  C  C182  1  0.90750000  0.12840000  0.93700000  1
  C  C183  1  0.91080000  0.11040000  0.61150000  1
  C  C184  1  0.92330000  0.09540000  0.70790000  1
  C  C185  1  0.92609000  0.42938000  0.08970000  1
  C  C186  1  0.92849000  0.58198000  0.02570000  1
  C  C187  1  0.93349000  0.30338000  0.00170000  1
  C  C188  1  0.94270000  0.14800000  0.67820000  1
  C  C189  1  0.94485000  0.46010000  0.71540000  1
  C  C190  1  0.96217000  0.48034000  0.25140000  1
  C  C191  1  0.96330000  0.54940000  0.97510000  1
  C  C192  1  0.96417000  0.67294000  0.06340000  1
  C  C193  1  0.96749000  0.39398000  0.03830000  1
  C  C194  1  0.96850000  0.27060000  0.95210000  1
  C  C195  1  0.99980000  0.24640000  0.72140000  1
  N  N196  1  0.06403000  0.82046000  0.08920000  1
  N  N197  1  0.21773000  0.77546000  0.38040000  1
  N  N198  1  0.24357000  0.17954000  0.41080000  1
  N  N199  1  0.44227000  0.22454000  0.11960000  1
  N  N200  1  0.55773000  0.77546000  0.88040000  1
  N  N201  1  0.75643000  0.82046000  0.58920000  1
  N  N202  1  0.78227000  0.22454000  0.61960000  1
  N  N203  1  0.93597000  0.17954000  0.91080000  1
  O  O204  1  0.01158000  0.27916000  0.78100000  1
  O  O205  1  0.02945000  0.29190000  0.69180000  1
  O  O206  1  0.03602000  0.48964000  0.87190000  1
  O  O207  1  0.06741000  0.60082000  0.77580000  1
  O  O208  1  0.08263000  0.48666000  0.74760000  1
  O  O209  1  0.14683000  0.62706000  0.91060000  1
  O  O210  1  0.16567000  0.44954000  0.90570000  1
  O  O211  1  0.18289000  0.56018000  0.00220000  1
  O  O212  1  0.20955000  0.43410000  0.27890000  1
  O  O213  1  0.22455000  0.43410000  0.77890000  1
  O  O214  1  0.24767000  0.56554000  0.84830000  1
  O  O215  1  0.26063000  0.78226000  0.88630000  1
  O  O216  1  0.26245000  0.29190000  0.19180000  1
  O  O217  1  0.26758000  0.27916000  0.28100000  1
  O  O218  1  0.28387000  0.44954000  0.40570000  1
  O  O219  1  0.31787000  0.56554000  0.34830000  1
  O  O220  1  0.33785000  0.76350000  0.94350000  1
  O  O221  1  0.37729000  0.56018000  0.50220000  1
  O  O222  1  0.40403000  0.48666000  0.24760000  1
  O  O223  1  0.42565000  0.76350000  0.44350000  1
  O  O224  1  0.45362000  0.48964000  0.37190000  1
  O  O225  1  0.46659000  0.39918000  0.72420000  1
  O  O226  1  0.47837000  0.21774000  0.61370000  1
  O  O227  1  0.48023000  0.62706000  0.41060000  1
  O  O228  1  0.51977000  0.37294000  0.58940000  1
  O  O229  1  0.52163000  0.78226000  0.38630000  1
  O  O230  1  0.53341000  0.60082000  0.27580000  1
  O  O231  1  0.54638000  0.51036000  0.62810000  1
  O  O232  1  0.57435000  0.23650000  0.55650000  1
  O  O233  1  0.59597000  0.51334000  0.75240000  1
  O  O234  1  0.62271000  0.43982000  0.49780000  1
  O  O235  1  0.66215000  0.23650000  0.05650000  1
  O  O236  1  0.68213000  0.43446000  0.65170000  1
  O  O237  1  0.71613000  0.55046000  0.59430000  1
  O  O238  1  0.73242000  0.72084000  0.71900000  1
  O  O239  1  0.73755000  0.70810000  0.80820000  1
  O  O240  1  0.73937000  0.21774000  0.11370000  1
  O  O241  1  0.75233000  0.43446000  0.15170000  1
  O  O242  1  0.77545000  0.56590000  0.22110000  1
  O  O243  1  0.79045000  0.56590000  0.72110000  1
  O  O244  1  0.81711000  0.43982000  0.99780000  1
  O  O245  1  0.83433000  0.55046000  0.09430000  1
  O  O246  1  0.85317000  0.37294000  0.08940000  1
  O  O247  1  0.91737000  0.51334000  0.25240000  1
  O  O248  1  0.93259000  0.39918000  0.22420000  1
  O  O249  1  0.96398000  0.51036000  0.12810000  1
  O  O250  1  0.97055000  0.70810000  0.30820000  1
  O  O251  1  0.98842000  0.72084000  0.21900000  1
