# generated using pymatgen
data_NiH10C10(NO2)2
_symmetry_space_group_name_H-M   'P 1'
_cell_length_a   6.42900000
_cell_length_b   7.87400000
_cell_length_c   25.18000000
_cell_angle_alpha   90.00000000
_cell_angle_beta   90.00000000
_cell_angle_gamma   90.10100000
_symmetry_Int_Tables_number   1
_chemical_formula_structural   NiH10C10(NO2)2
_chemical_formula_sum   'Ni4 H40 C40 N8 O16'
_cell_volume   1274.65861984
_cell_formula_units_Z   4
loop_
 _symmetry_equiv_pos_site_id
 _symmetry_equiv_pos_as_xyz
  1  'x, y, z'
loop_
 _atom_site_type_symbol
 _atom_site_label
 _atom_site_symmetry_multiplicity
 _atom_site_fract_x
 _atom_site_fract_y
 _atom_site_fract_z
 _atom_site_occupancy
  Ni  Ni0  1  0.88090000  0.81600000  0.26470000  1
  Ni  Ni1  1  0.61920000  0.68810000  0.69450000  1
  Ni  Ni2  1  0.38080000  0.31190000  0.19450000  1
  Ni  Ni3  1  0.11910000  0.18400000  0.76470000  1
  H  H4  1  0.96240000  0.39710000  0.15380000  1
  H  H5  1  0.94440000  0.25160000  0.67830000  1
  H  H6  1  0.92230000  0.66910000  0.37600000  1
  H  H7  1  0.91590000  0.63650000  0.83600000  1
  H  H8  1  0.89310000  0.97610000  0.12660000  1
  H  H9  1  0.88940000  0.07250000  0.69220000  1
  H  H10  1  0.87980000  0.12740000  0.96300000  1
  H  H11  1  0.78580000  0.71460000  0.10670000  1
  H  H12  1  0.77410000  0.88210000  0.50760000  1
  H  H13  1  0.74970000  0.36080000  0.08050000  1
  H  H14  1  0.74760000  0.12650000  0.88350000  1
  H  H15  1  0.71130000  0.58290000  0.44580000  1
  H  H16  1  0.69900000  0.54280000  0.84680000  1
  H  H17  1  0.63160000  0.26770000  0.27210000  1
  H  H18  1  0.60230000  0.82300000  0.83540000  1
  H  H19  1  0.59960000  0.87440000  0.58740000  1
  H  H20  1  0.59650000  0.35610000  0.00150000  1
  H  H21  1  0.57810000  0.81620000  0.12030000  1
  H  H22  1  0.55490000  0.11740000  0.80640000  1
  H  H23  1  0.52540000  0.43500000  0.28090000  1
  H  H24  1  0.47460000  0.56500000  0.78090000  1
  H  H25  1  0.44510000  0.88260000  0.30640000  1
  H  H26  1  0.42190000  0.18380000  0.62030000  1
  H  H27  1  0.40350000  0.64390000  0.50150000  1
  H  H28  1  0.40040000  0.12560000  0.08740000  1
  H  H29  1  0.39770000  0.17700000  0.33540000  1
  H  H30  1  0.36840000  0.73230000  0.77210000  1
  H  H31  1  0.30100000  0.45720000  0.34680000  1
  H  H32  1  0.28870000  0.41710000  0.94580000  1
  H  H33  1  0.25240000  0.87350000  0.38350000  1
  H  H34  1  0.25030000  0.63920000  0.58050000  1
  H  H35  1  0.22590000  0.11790000  0.00760000  1
  H  H36  1  0.21420000  0.28540000  0.60670000  1
  H  H37  1  0.12020000  0.87260000  0.46300000  1
  H  H38  1  0.11060000  0.92750000  0.19220000  1
  H  H39  1  0.10690000  0.02390000  0.62660000  1
  H  H40  1  0.08410000  0.36350000  0.33600000  1
  H  H41  1  0.07770000  0.33090000  0.87600000  1
  H  H42  1  0.05560000  0.74840000  0.17830000  1
  H  H43  1  0.03760000  0.60290000  0.65380000  1
  C  C44  1  0.98660000  0.66510000  0.62420000  1
  C  C45  1  0.96020000  0.23230000  0.03440000  1
  C  C46  1  0.88690000  0.31640000  0.08000000  1
  C  C47  1  0.83900000  0.87730000  0.77920000  1
  C  C48  1  0.83720000  0.83070000  0.53770000  1
  C  C49  1  0.83260000  0.91120000  0.15710000  1
  C  C50  1  0.83100000  0.20900000  0.98780000  1
  C  C51  1  0.82400000  0.48230000  0.77180000  1
  C  C52  1  0.78100000  0.60420000  0.81970000  1
  C  C53  1  0.77990000  0.70100000  0.37620000  1
  C  C54  1  0.72960000  0.81780000  0.58480000  1
  C  C55  1  0.70650000  0.76840000  0.13590000  1
  C  C56  1  0.69300000  0.03180000  0.19010000  1
  C  C57  1  0.66430000  0.76630000  0.80360000  1
  C  C58  1  0.65850000  0.65850000  0.41970000  1
  C  C59  1  0.65600000  0.28500000  0.97500000  1
  C  C60  1  0.64200000  0.62700000  0.17590000  1
  C  C61  1  0.61530000  0.17980000  0.88210000  1
  C  C62  1  0.54260000  0.27340000  0.92540000  1
  C  C63  1  0.50620000  0.83450000  0.33730000  1
  C  C64  1  0.49380000  0.16550000  0.83730000  1
  C  C65  1  0.45740000  0.72660000  0.42540000  1
  C  C66  1  0.38470000  0.82020000  0.38210000  1
  C  C67  1  0.35800000  0.37300000  0.67590000  1
  C  C68  1  0.34400000  0.71500000  0.47500000  1
  C  C69  1  0.34150000  0.34150000  0.91970000  1
  C  C70  1  0.33570000  0.23370000  0.30360000  1
  C  C71  1  0.30700000  0.96820000  0.69010000  1
  C  C72  1  0.29350000  0.23160000  0.63590000  1
  C  C73  1  0.27040000  0.18220000  0.08480000  1
  C  C74  1  0.22010000  0.29900000  0.87620000  1
  C  C75  1  0.21900000  0.39580000  0.31970000  1
  C  C76  1  0.17600000  0.51770000  0.27180000  1
  C  C77  1  0.16900000  0.79100000  0.48780000  1
  C  C78  1  0.16740000  0.08880000  0.65710000  1
  C  C79  1  0.16280000  0.16930000  0.03770000  1
  C  C80  1  0.16100000  0.12270000  0.27920000  1
  C  C81  1  0.11310000  0.68360000  0.58000000  1
  C  C82  1  0.03980000  0.76770000  0.53440000  1
  C  C83  1  0.01340000  0.33490000  0.12420000  1
  N  N84  1  0.99580000  0.15070000  0.69110000  1
  N  N85  1  0.79570000  0.73140000  0.62680000  1
  N  N86  1  0.70350000  0.78550000  0.33450000  1
  N  N87  1  0.50700000  0.32400000  0.27020000  1
  N  N88  1  0.49300000  0.67600000  0.77020000  1
  N  N89  1  0.29650000  0.21450000  0.83450000  1
  N  N90  1  0.20430000  0.26860000  0.12680000  1
  N  N91  1  0.00420000  0.84930000  0.19110000  1
  O  O92  1  0.93540000  0.98660000  0.80360000  1
  O  O93  1  0.91720000  0.35950000  0.79210000  1
  O  O94  1  0.81900000  0.50050000  0.72140000  1
  O  O95  1  0.80700000  0.87470000  0.72960000  1
  O  O96  1  0.69840000  0.00680000  0.23820000  1
  O  O97  1  0.68110000  0.64490000  0.22470000  1
  O  O98  1  0.58150000  0.13270000  0.16510000  1
  O  O99  1  0.54500000  0.50530000  0.15640000  1
  O  O100  1  0.45500000  0.49470000  0.65640000  1
  O  O101  1  0.41850000  0.86730000  0.66510000  1
  O  O102  1  0.31890000  0.35510000  0.72470000  1
  O  O103  1  0.30160000  0.99320000  0.73820000  1
  O  O104  1  0.19300000  0.12530000  0.22960000  1
  O  O105  1  0.18100000  0.49950000  0.22140000  1
  O  O106  1  0.08280000  0.64050000  0.29210000  1
  O  O107  1  0.06460000  0.01340000  0.30360000  1
