# generated using pymatgen
data_Cu(C3O2)2
_symmetry_space_group_name_H-M   'P 1'
_cell_length_a   18.59931251
_cell_length_b   18.59931251
_cell_length_c   18.59931251
_cell_angle_alpha   60.00000000
_cell_angle_beta   60.00000000
_cell_angle_gamma   60.00000000
_symmetry_Int_Tables_number   1
_chemical_formula_structural   Cu(C3O2)2
_chemical_formula_sum   'Cu12 C72 O48'
_cell_volume   4549.62578753
_cell_formula_units_Z   12
loop_
 _symmetry_equiv_pos_site_id
 _symmetry_equiv_pos_as_xyz
  1  'x, y, z'
loop_
 _atom_site_type_symbol
 _atom_site_label
 _atom_site_symmetry_multiplicity
 _atom_site_fract_x
 _atom_site_fract_y
 _atom_site_fract_z
 _atom_site_occupancy
  C  C0  1  0.02614000  0.83606000  0.56890000  1
  C  C1  1  0.43110000  0.43110000  0.16394000  1
  C  C2  1  0.83606000  0.02614000  0.56890000  1
  C  C3  1  0.43110000  0.43110000  0.97386000  1
  C  C4  1  0.03428000  0.74132000  0.61220000  1
  C  C5  1  0.38780000  0.38780000  0.25868000  1
  C  C6  1  0.74132000  0.03428000  0.61220000  1
  C  C7  1  0.38780000  0.38780000  0.96572000  1
  C  C8  1  0.03450000  0.69830000  0.69830000  1
  C  C9  1  0.43110000  0.30170000  0.30170000  1
  C  C10  1  0.03450000  0.69830000  0.56890000  1
  C  C11  1  0.30170000  0.43110000  0.30170000  1
  C  C12  1  0.69830000  0.03450000  0.69830000  1
  C  C13  1  0.43110000  0.30170000  0.96550000  1
  C  C14  1  0.69830000  0.03450000  0.56890000  1
  C  C15  1  0.30170000  0.43110000  0.96550000  1
  C  C16  1  0.03428000  0.61220000  0.74132000  1
  C  C17  1  0.38780000  0.25868000  0.38780000  1
  C  C18  1  0.03428000  0.61220000  0.61220000  1
  C  C19  1  0.25868000  0.38780000  0.38780000  1
  C  C20  1  0.61220000  0.03428000  0.74132000  1
  C  C21  1  0.38780000  0.25868000  0.96572000  1
  C  C22  1  0.61220000  0.03428000  0.61220000  1
  C  C23  1  0.25868000  0.38780000  0.96572000  1
  C  C24  1  0.03450000  0.56890000  0.69830000  1
  C  C25  1  0.30170000  0.30170000  0.43110000  1
  C  C26  1  0.56890000  0.03450000  0.69830000  1
  C  C27  1  0.30170000  0.30170000  0.96550000  1
  C  C28  1  0.02614000  0.56890000  0.83606000  1
  C  C29  1  0.43110000  0.16394000  0.43110000  1
  C  C30  1  0.02614000  0.56890000  0.56890000  1
  C  C31  1  0.16394000  0.43110000  0.43110000  1
  C  C32  1  0.56890000  0.02614000  0.83606000  1
  C  C33  1  0.43110000  0.16394000  0.97386000  1
  C  C34  1  0.56890000  0.02614000  0.56890000  1
  C  C35  1  0.16394000  0.43110000  0.97386000  1
  C  C36  1  0.83606000  0.56890000  0.02614000  1
  C  C37  1  0.43110000  0.97386000  0.43110000  1
  C  C38  1  0.56890000  0.83606000  0.02614000  1
  C  C39  1  0.43110000  0.97386000  0.16394000  1
  C  C40  1  0.83606000  0.56890000  0.56890000  1
  C  C41  1  0.97386000  0.43110000  0.43110000  1
  C  C42  1  0.56890000  0.83606000  0.56890000  1
  C  C43  1  0.97386000  0.43110000  0.16394000  1
  C  C44  1  0.69830000  0.69830000  0.03450000  1
  C  C45  1  0.43110000  0.96550000  0.30170000  1
  C  C46  1  0.69830000  0.69830000  0.56890000  1
  C  C47  1  0.96550000  0.43110000  0.30170000  1
  C  C48  1  0.74132000  0.61220000  0.03428000  1
  C  C49  1  0.38780000  0.96572000  0.38780000  1
  C  C50  1  0.61220000  0.74132000  0.03428000  1
  C  C51  1  0.38780000  0.96572000  0.25868000  1
  C  C52  1  0.74132000  0.61220000  0.61220000  1
  C  C53  1  0.96572000  0.38780000  0.38780000  1
  C  C54  1  0.61220000  0.74132000  0.61220000  1
  C  C55  1  0.96572000  0.38780000  0.25868000  1
  C  C56  1  0.69830000  0.56890000  0.03450000  1
  C  C57  1  0.30170000  0.96550000  0.43110000  1
  C  C58  1  0.56890000  0.69830000  0.03450000  1
  C  C59  1  0.30170000  0.96550000  0.30170000  1
  C  C60  1  0.69830000  0.56890000  0.69830000  1
  C  C61  1  0.96550000  0.30170000  0.43110000  1
  C  C62  1  0.56890000  0.69830000  0.69830000  1
  C  C63  1  0.96550000  0.30170000  0.30170000  1
  C  C64  1  0.61220000  0.61220000  0.03428000  1
  C  C65  1  0.25868000  0.96572000  0.38780000  1
  C  C66  1  0.61220000  0.61220000  0.74132000  1
  C  C67  1  0.96572000  0.25868000  0.38780000  1
  C  C68  1  0.56890000  0.56890000  0.02614000  1
  C  C69  1  0.16394000  0.97386000  0.43110000  1
  C  C70  1  0.56890000  0.56890000  0.83606000  1
  C  C71  1  0.97386000  0.16394000  0.43110000  1
  Cu  Cu72  1  1.00000000  0.00000000  0.57036000  1
  Cu  Cu73  1  0.57036000  0.42964000  1.00000000  1
  Cu  Cu74  1  1.00000000  1.00000000  0.42964000  1
  Cu  Cu75  1  0.42964000  0.57036000  1.00000000  1
  Cu  Cu76  1  1.00000000  0.57036000  0.00000000  1
  Cu  Cu77  1  0.57036000  0.00000000  0.42964000  1
  Cu  Cu78  1  0.57036000  0.00000000  0.00000000  1
  Cu  Cu79  1  0.00000000  0.57036000  0.42964000  1
  Cu  Cu80  1  0.00000000  0.42964000  1.00000000  1
  Cu  Cu81  1  0.42964000  1.00000000  0.57036000  1
  Cu  Cu82  1  0.00000000  0.42964000  0.57036000  1
  Cu  Cu83  1  0.42964000  0.00000000  1.00000000  1
  O  O84  1  0.02118000  0.87422000  0.61244000  1
  O  O85  1  0.50784000  0.38756000  0.12578000  1
  O  O86  1  0.02118000  0.87422000  0.49216000  1
  O  O87  1  0.38756000  0.50784000  0.12578000  1
  O  O88  1  0.87422000  0.02118000  0.61244000  1
  O  O89  1  0.50784000  0.38756000  0.97882000  1
  O  O90  1  0.87422000  0.02118000  0.49216000  1
  O  O91  1  0.38756000  0.50784000  0.97882000  1
  O  O92  1  0.02118000  0.61244000  0.87422000  1
  O  O93  1  0.50784000  0.12578000  0.38756000  1
  O  O94  1  0.02118000  0.61244000  0.49216000  1
  O  O95  1  0.12578000  0.50784000  0.38756000  1
  O  O96  1  0.61244000  0.02118000  0.87422000  1
  O  O97  1  0.50784000  0.12578000  0.97882000  1
  O  O98  1  0.61244000  0.02118000  0.49216000  1
  O  O99  1  0.12578000  0.50784000  0.97882000  1
  O  O100  1  0.02118000  0.49216000  0.87422000  1
  O  O101  1  0.38756000  0.12578000  0.50784000  1
  O  O102  1  0.02118000  0.49216000  0.61244000  1
  O  O103  1  0.12578000  0.38756000  0.50784000  1
  O  O104  1  0.49216000  0.02118000  0.87422000  1
  O  O105  1  0.38756000  0.12578000  0.97882000  1
  O  O106  1  0.49216000  0.02118000  0.61244000  1
  O  O107  1  0.12578000  0.38756000  0.97882000  1
  O  O108  1  0.87422000  0.61244000  0.02118000  1
  O  O109  1  0.50784000  0.97882000  0.38756000  1
  O  O110  1  0.61244000  0.87422000  0.02118000  1
  O  O111  1  0.50784000  0.97882000  0.12578000  1
  O  O112  1  0.87422000  0.61244000  0.49216000  1
  O  O113  1  0.97882000  0.50784000  0.38756000  1
  O  O114  1  0.61244000  0.87422000  0.49216000  1
  O  O115  1  0.97882000  0.50784000  0.12578000  1
  O  O116  1  0.87422000  0.49216000  0.02118000  1
  O  O117  1  0.38756000  0.97882000  0.50784000  1
  O  O118  1  0.49216000  0.87422000  0.02118000  1
  O  O119  1  0.38756000  0.97882000  0.12578000  1
  O  O120  1  0.87422000  0.49216000  0.61244000  1
  O  O121  1  0.97882000  0.38756000  0.50784000  1
  O  O122  1  0.49216000  0.87422000  0.61244000  1
  O  O123  1  0.97882000  0.38756000  0.12578000  1
  O  O124  1  0.61244000  0.49216000  0.02118000  1
  O  O125  1  0.12578000  0.97882000  0.50784000  1
  O  O126  1  0.49216000  0.61244000  0.02118000  1
  O  O127  1  0.12578000  0.97882000  0.38756000  1
  O  O128  1  0.61244000  0.49216000  0.87422000  1
  O  O129  1  0.97882000  0.12578000  0.50784000  1
  O  O130  1  0.49216000  0.61244000  0.87422000  1
  O  O131  1  0.97882000  0.12578000  0.38756000  1
