# generated using pymatgen
data_AlPO4
_symmetry_space_group_name_H-M   'P 1'
_cell_length_a   9.39500000
_cell_length_b   18.69800000
_cell_length_c   18.69800000
_cell_angle_alpha   90.00000000
_cell_angle_beta   90.00000000
_cell_angle_gamma   90.00000000
_symmetry_Int_Tables_number   1
_chemical_formula_structural   AlPO4
_chemical_formula_sum   'Al24 P24 O96'
_cell_volume   3284.63484158
_cell_formula_units_Z   24
loop_
 _symmetry_equiv_pos_site_id
 _symmetry_equiv_pos_as_xyz
  1  'x, y, z'
loop_
 _atom_site_type_symbol
 _atom_site_label
 _atom_site_symmetry_multiplicity
 _atom_site_fract_x
 _atom_site_fract_y
 _atom_site_fract_z
 _atom_site_occupancy
  Al  Al0  1  0.84120000  0.04546000  0.16546000  1
  Al  Al1  1  0.33430000  0.05229000  0.56429000  1
  Al  Al2  1  0.91560000  0.06381000  0.66629000  1
  Al  Al3  1  0.66570000  0.06429000  0.94771000  1
  Al  Al4  1  0.84120000  0.16546000  0.45454000  1
  Al  Al5  1  0.08440000  0.16629000  0.93619000  1
  Al  Al6  1  0.08440000  0.33371000  0.56381000  1
  Al  Al7  1  0.84120000  0.33454000  0.04546000  1
  Al  Al8  1  0.66570000  0.43571000  0.55229000  1
  Al  Al9  1  0.91560000  0.43619000  0.83371000  1
  Al  Al10  1  0.33430000  0.44771000  0.93571000  1
  Al  Al11  1  0.84120000  0.45454000  0.33454000  1
  Al  Al12  1  0.15880000  0.54546000  0.66546000  1
  Al  Al13  1  0.66570000  0.55229000  0.06429000  1
  Al  Al14  1  0.08440000  0.56381000  0.16629000  1
  Al  Al15  1  0.33430000  0.56429000  0.44771000  1
  Al  Al16  1  0.15880000  0.66546000  0.95454000  1
  Al  Al17  1  0.91560000  0.66629000  0.43619000  1
  Al  Al18  1  0.91560000  0.83371000  0.06381000  1
  Al  Al19  1  0.15880000  0.83454000  0.54546000  1
  Al  Al20  1  0.33430000  0.93571000  0.05229000  1
  Al  Al21  1  0.08440000  0.93619000  0.33371000  1
  Al  Al22  1  0.66570000  0.94771000  0.43571000  1
  Al  Al23  1  0.15880000  0.95454000  0.83454000  1
  P  P24  1  0.83930000  0.04916000  0.33409000  1
  P  P25  1  0.33650000  0.05626000  0.93439000  1
  P  P26  1  0.66350000  0.06561000  0.55626000  1
  P  P27  1  0.90890000  0.06608000  0.83397000  1
  P  P28  1  0.83930000  0.16591000  0.04916000  1
  P  P29  1  0.09110000  0.16603000  0.56608000  1
  P  P30  1  0.09110000  0.33397000  0.93392000  1
  P  P31  1  0.83930000  0.33409000  0.45084000  1
  P  P32  1  0.90890000  0.43392000  0.66603000  1
  P  P33  1  0.66350000  0.43439000  0.94374000  1
  P  P34  1  0.33650000  0.44374000  0.56561000  1
  P  P35  1  0.83930000  0.45084000  0.16591000  1
  P  P36  1  0.16070000  0.54916000  0.83409000  1
  P  P37  1  0.66350000  0.55626000  0.43439000  1
  P  P38  1  0.33650000  0.56561000  0.05626000  1
  P  P39  1  0.09110000  0.56608000  0.33397000  1
  P  P40  1  0.16070000  0.66591000  0.54916000  1
  P  P41  1  0.90890000  0.66603000  0.06608000  1
  P  P42  1  0.90890000  0.83397000  0.43392000  1
  P  P43  1  0.16070000  0.83409000  0.95084000  1
  P  P44  1  0.09110000  0.93392000  0.16603000  1
  P  P45  1  0.33650000  0.93439000  0.44374000  1
  P  P46  1  0.66350000  0.94374000  0.06561000  1
  P  P47  1  0.16070000  0.95084000  0.66591000  1
  O  O48  1  0.72320000  0.00000000  0.36540000  1
  O  O49  1  0.27680000  0.00000000  0.63460000  1
  O  O50  1  0.00390000  0.00330000  0.15730000  1
  O  O51  1  0.32320000  0.00520000  0.48490000  1
  O  O52  1  0.28730000  0.01050000  0.87090000  1
  O  O53  1  0.98780000  0.01420000  0.34180000  1
  O  O54  1  0.32320000  0.01510000  0.00520000  1
  O  O55  1  0.76430000  0.05690000  0.87100000  1
  O  O56  1  0.75340000  0.05940000  0.62490000  1
  O  O57  1  0.80500000  0.06190000  0.25430000  1
  O  O58  1  0.50840000  0.07830000  0.57930000  1
  O  O59  1  0.49160000  0.07930000  0.92170000  1
  O  O60  1  0.88020000  0.08290000  0.75450000  1
  O  O61  1  0.84110000  0.12240000  0.37270000  1
  O  O62  1  0.24660000  0.12490000  0.94060000  1
  O  O63  1  0.84110000  0.12730000  0.12240000  1
  O  O64  1  0.23570000  0.12900000  0.55690000  1
  O  O65  1  0.71270000  0.12910000  0.51050000  1
  O  O66  1  0.98940000  0.13060000  0.86610000  1
  O  O67  1  0.01060000  0.13390000  0.63060000  1
  O  O68  1  0.72320000  0.13460000  0.00000000  1
  O  O69  1  0.00390000  0.15730000  0.49670000  1
  O  O70  1  0.98780000  0.15820000  0.01420000  1
  O  O71  1  0.11980000  0.24550000  0.58290000  1
  O  O72  1  0.80500000  0.24570000  0.06190000  1
  O  O73  1  0.80500000  0.25430000  0.43810000  1
  O  O74  1  0.11980000  0.25450000  0.91710000  1
  O  O75  1  0.98780000  0.34180000  0.48580000  1
  O  O76  1  0.00390000  0.34270000  0.00330000  1
  O  O77  1  0.72320000  0.36540000  0.50000000  1
  O  O78  1  0.01060000  0.36610000  0.86940000  1
  O  O79  1  0.98940000  0.36940000  0.63390000  1
  O  O80  1  0.71270000  0.37090000  0.98950000  1
  O  O81  1  0.23570000  0.37100000  0.94310000  1
  O  O82  1  0.84110000  0.37270000  0.37760000  1
  O  O83  1  0.24660000  0.37510000  0.55940000  1
  O  O84  1  0.84110000  0.37760000  0.12730000  1
  O  O85  1  0.88020000  0.41710000  0.74550000  1
  O  O86  1  0.49160000  0.42070000  0.57830000  1
  O  O87  1  0.50840000  0.42170000  0.92070000  1
  O  O88  1  0.80500000  0.43810000  0.24570000  1
  O  O89  1  0.75340000  0.44060000  0.87510000  1
  O  O90  1  0.76430000  0.44310000  0.62900000  1
  O  O91  1  0.32320000  0.48490000  0.49480000  1
  O  O92  1  0.98780000  0.48580000  0.15820000  1
  O  O93  1  0.28730000  0.48950000  0.62910000  1
  O  O94  1  0.32320000  0.49480000  0.01510000  1
  O  O95  1  0.00390000  0.49670000  0.34270000  1
  O  O96  1  0.72320000  0.50000000  0.13460000  1
  O  O97  1  0.27680000  0.50000000  0.86540000  1
  O  O98  1  0.99610000  0.50330000  0.65730000  1
  O  O99  1  0.67680000  0.50520000  0.98490000  1
  O  O100  1  0.71270000  0.51050000  0.37090000  1
  O  O101  1  0.01220000  0.51420000  0.84180000  1
  O  O102  1  0.67680000  0.51510000  0.50520000  1
  O  O103  1  0.23570000  0.55690000  0.37100000  1
  O  O104  1  0.24660000  0.55940000  0.12490000  1
  O  O105  1  0.19500000  0.56190000  0.75430000  1
  O  O106  1  0.49160000  0.57830000  0.07930000  1
  O  O107  1  0.50840000  0.57930000  0.42170000  1
  O  O108  1  0.11980000  0.58290000  0.25450000  1
  O  O109  1  0.15890000  0.62240000  0.87270000  1
  O  O110  1  0.75340000  0.62490000  0.44060000  1
  O  O111  1  0.15890000  0.62730000  0.62240000  1
  O  O112  1  0.76430000  0.62900000  0.05690000  1
  O  O113  1  0.28730000  0.62910000  0.01050000  1
  O  O114  1  0.01060000  0.63060000  0.36610000  1
  O  O115  1  0.98940000  0.63390000  0.13060000  1
  O  O116  1  0.27680000  0.63460000  0.50000000  1
  O  O117  1  0.99610000  0.65730000  0.99670000  1
  O  O118  1  0.01220000  0.65820000  0.51420000  1
  O  O119  1  0.88020000  0.74550000  0.08290000  1
  O  O120  1  0.19500000  0.74570000  0.56190000  1
  O  O121  1  0.19500000  0.75430000  0.93810000  1
  O  O122  1  0.88020000  0.75450000  0.41710000  1
  O  O123  1  0.01220000  0.84180000  0.98580000  1
  O  O124  1  0.99610000  0.84270000  0.50330000  1
  O  O125  1  0.27680000  0.86540000  0.00000000  1
  O  O126  1  0.98940000  0.86610000  0.36940000  1
  O  O127  1  0.01060000  0.86940000  0.13390000  1
  O  O128  1  0.28730000  0.87090000  0.48950000  1
  O  O129  1  0.76430000  0.87100000  0.44310000  1
  O  O130  1  0.15890000  0.87270000  0.87760000  1
  O  O131  1  0.75340000  0.87510000  0.05940000  1
  O  O132  1  0.15890000  0.87760000  0.62730000  1
  O  O133  1  0.11980000  0.91710000  0.24550000  1
  O  O134  1  0.50840000  0.92070000  0.07830000  1
  O  O135  1  0.49160000  0.92170000  0.42070000  1
  O  O136  1  0.19500000  0.93810000  0.74570000  1
  O  O137  1  0.24660000  0.94060000  0.37510000  1
  O  O138  1  0.23570000  0.94310000  0.12900000  1
  O  O139  1  0.67680000  0.98490000  0.99480000  1
  O  O140  1  0.01220000  0.98580000  0.65820000  1
  O  O141  1  0.71270000  0.98950000  0.12910000  1
  O  O142  1  0.67680000  0.99480000  0.51510000  1
  O  O143  1  0.99610000  0.99670000  0.84270000  1
