# generated using pymatgen
data_Mn4Cu12H8C24N32Cl
_symmetry_space_group_name_H-M   'P 1'
_cell_length_a   18.48520000
_cell_length_b   18.48520000
_cell_length_c   18.48520000
_cell_angle_alpha   90.00000000
_cell_angle_beta   90.00000000
_cell_angle_gamma   90.00000000
_symmetry_Int_Tables_number   1
_chemical_formula_structural   Mn4Cu12H8C24N32Cl
_chemical_formula_sum   'Mn12 Cu36 H24 C72 N96 Cl3'
_cell_volume   6316.44125348
_cell_formula_units_Z   3
loop_
 _symmetry_equiv_pos_site_id
 _symmetry_equiv_pos_as_xyz
  1  'x, y, z'
loop_
 _atom_site_type_symbol
 _atom_site_label
 _atom_site_symmetry_multiplicity
 _atom_site_fract_x
 _atom_site_fract_y
 _atom_site_fract_z
 _atom_site_occupancy
  Mn  Mn0  1  0.00000000  0.34800000  0.50000000  1
  Mn  Mn1  1  0.00000000  0.50000000  0.34800000  1
  Mn  Mn2  1  0.00000000  0.50000000  0.65200000  1
  Mn  Mn3  1  0.00000000  0.65200000  0.50000000  1
  Mn  Mn4  1  0.34800000  0.00000000  0.50000000  1
  Mn  Mn5  1  0.34800000  0.50000000  0.00000000  1
  Mn  Mn6  1  0.50000000  0.00000000  0.34800000  1
  Mn  Mn7  1  0.50000000  0.00000000  0.65200000  1
  Mn  Mn8  1  0.50000000  0.34800000  0.00000000  1
  Mn  Mn9  1  0.50000000  0.65200000  0.00000000  1
  Mn  Mn10  1  0.65200000  0.00000000  0.50000000  1
  Mn  Mn11  1  0.65200000  0.50000000  0.00000000  1
  Cu  Cu12  1  0.00000000  0.36360000  0.50000000  1
  Cu  Cu13  1  0.00000000  0.50000000  0.36360000  1
  Cu  Cu14  1  0.00000000  0.50000000  0.63640000  1
  Cu  Cu15  1  0.00000000  0.63640000  0.50000000  1
  Cu  Cu16  1  0.13700000  0.25650000  0.50000000  1
  Cu  Cu17  1  0.13700000  0.50000000  0.25650000  1
  Cu  Cu18  1  0.13700000  0.50000000  0.74350000  1
  Cu  Cu19  1  0.13700000  0.74350000  0.50000000  1
  Cu  Cu20  1  0.25650000  0.13700000  0.50000000  1
  Cu  Cu21  1  0.25650000  0.50000000  0.13700000  1
  Cu  Cu22  1  0.25650000  0.50000000  0.86300000  1
  Cu  Cu23  1  0.25650000  0.86300000  0.50000000  1
  Cu  Cu24  1  0.36360000  0.00000000  0.50000000  1
  Cu  Cu25  1  0.36360000  0.50000000  0.00000000  1
  Cu  Cu26  1  0.50000000  0.00000000  0.36360000  1
  Cu  Cu27  1  0.50000000  0.00000000  0.63640000  1
  Cu  Cu28  1  0.50000000  0.13700000  0.25650000  1
  Cu  Cu29  1  0.50000000  0.13700000  0.74350000  1
  Cu  Cu30  1  0.50000000  0.25650000  0.13700000  1
  Cu  Cu31  1  0.50000000  0.25650000  0.86300000  1
  Cu  Cu32  1  0.50000000  0.36360000  0.00000000  1
  Cu  Cu33  1  0.50000000  0.63640000  0.00000000  1
  Cu  Cu34  1  0.50000000  0.74350000  0.13700000  1
  Cu  Cu35  1  0.50000000  0.74350000  0.86300000  1
  Cu  Cu36  1  0.50000000  0.86300000  0.25650000  1
  Cu  Cu37  1  0.50000000  0.86300000  0.74350000  1
  Cu  Cu38  1  0.63640000  0.00000000  0.50000000  1
  Cu  Cu39  1  0.63640000  0.50000000  0.00000000  1
  Cu  Cu40  1  0.74350000  0.13700000  0.50000000  1
  Cu  Cu41  1  0.74350000  0.50000000  0.13700000  1
  Cu  Cu42  1  0.74350000  0.50000000  0.86300000  1
  Cu  Cu43  1  0.74350000  0.86300000  0.50000000  1
  Cu  Cu44  1  0.86300000  0.25650000  0.50000000  1
  Cu  Cu45  1  0.86300000  0.50000000  0.25650000  1
  Cu  Cu46  1  0.86300000  0.50000000  0.74350000  1
  Cu  Cu47  1  0.86300000  0.74350000  0.50000000  1
  H  H48  1  0.23615000  0.23615000  0.38850000  1
  H  H49  1  0.23615000  0.23615000  0.61150000  1
  H  H50  1  0.23615000  0.38850000  0.23615000  1
  H  H51  1  0.23615000  0.38850000  0.76385000  1
  H  H52  1  0.23615000  0.61150000  0.23615000  1
  H  H53  1  0.23615000  0.61150000  0.76385000  1
  H  H54  1  0.23615000  0.76385000  0.38850000  1
  H  H55  1  0.23615000  0.76385000  0.61150000  1
  H  H56  1  0.38850000  0.23615000  0.23615000  1
  H  H57  1  0.38850000  0.23615000  0.76385000  1
  H  H58  1  0.38850000  0.76385000  0.23615000  1
  H  H59  1  0.38850000  0.76385000  0.76385000  1
  H  H60  1  0.61150000  0.23615000  0.23615000  1
  H  H61  1  0.61150000  0.23615000  0.76385000  1
  H  H62  1  0.61150000  0.76385000  0.23615000  1
  H  H63  1  0.61150000  0.76385000  0.76385000  1
  H  H64  1  0.76385000  0.23615000  0.38850000  1
  H  H65  1  0.76385000  0.23615000  0.61150000  1
  H  H66  1  0.76385000  0.38850000  0.23615000  1
  H  H67  1  0.76385000  0.38850000  0.76385000  1
  H  H68  1  0.76385000  0.61150000  0.23615000  1
  H  H69  1  0.76385000  0.61150000  0.76385000  1
  H  H70  1  0.76385000  0.76385000  0.38850000  1
  H  H71  1  0.76385000  0.76385000  0.61150000  1
  C  C72  1  0.16230000  0.35080000  0.35080000  1
  C  C73  1  0.16230000  0.35080000  0.64920000  1
  C  C74  1  0.16230000  0.64920000  0.35080000  1
  C  C75  1  0.16230000  0.64920000  0.64920000  1
  C  C76  1  0.22760000  0.31910000  0.31910000  1
  C  C77  1  0.22760000  0.31910000  0.68090000  1
  C  C78  1  0.22760000  0.68090000  0.31910000  1
  C  C79  1  0.22760000  0.68090000  0.68090000  1
  C  C80  1  0.25770000  0.25770000  0.34840000  1
  C  C81  1  0.25770000  0.25770000  0.65160000  1
  C  C82  1  0.25770000  0.34840000  0.25770000  1
  C  C83  1  0.25770000  0.34840000  0.74230000  1
  C  C84  1  0.25770000  0.65160000  0.25770000  1
  C  C85  1  0.25770000  0.65160000  0.74230000  1
  C  C86  1  0.25770000  0.74230000  0.34840000  1
  C  C87  1  0.25770000  0.74230000  0.65160000  1
  C  C88  1  0.31910000  0.22760000  0.31910000  1
  C  C89  1  0.31910000  0.22760000  0.68090000  1
  C  C90  1  0.31910000  0.31910000  0.22760000  1
  C  C91  1  0.31910000  0.31910000  0.77240000  1
  C  C92  1  0.31910000  0.68090000  0.22760000  1
  C  C93  1  0.31910000  0.68090000  0.77240000  1
  C  C94  1  0.31910000  0.77240000  0.31910000  1
  C  C95  1  0.31910000  0.77240000  0.68090000  1
  C  C96  1  0.34840000  0.25770000  0.25770000  1
  C  C97  1  0.34840000  0.25770000  0.74230000  1
  C  C98  1  0.34840000  0.74230000  0.25770000  1
  C  C99  1  0.34840000  0.74230000  0.74230000  1
  C  C100  1  0.35080000  0.16230000  0.35080000  1
  C  C101  1  0.35080000  0.16230000  0.64920000  1
  C  C102  1  0.35080000  0.35080000  0.16230000  1
  C  C103  1  0.35080000  0.35080000  0.83770000  1
  C  C104  1  0.35080000  0.64920000  0.16230000  1
  C  C105  1  0.35080000  0.64920000  0.83770000  1
  C  C106  1  0.35080000  0.83770000  0.35080000  1
  C  C107  1  0.35080000  0.83770000  0.64920000  1
  C  C108  1  0.64920000  0.16230000  0.35080000  1
  C  C109  1  0.64920000  0.16230000  0.64920000  1
  C  C110  1  0.64920000  0.35080000  0.16230000  1
  C  C111  1  0.64920000  0.35080000  0.83770000  1
  C  C112  1  0.64920000  0.64920000  0.16230000  1
  C  C113  1  0.64920000  0.64920000  0.83770000  1
  C  C114  1  0.64920000  0.83770000  0.35080000  1
  C  C115  1  0.64920000  0.83770000  0.64920000  1
  C  C116  1  0.65160000  0.25770000  0.25770000  1
  C  C117  1  0.65160000  0.25770000  0.74230000  1
  C  C118  1  0.65160000  0.74230000  0.25770000  1
  C  C119  1  0.65160000  0.74230000  0.74230000  1
  C  C120  1  0.68090000  0.22760000  0.31910000  1
  C  C121  1  0.68090000  0.22760000  0.68090000  1
  C  C122  1  0.68090000  0.31910000  0.22760000  1
  C  C123  1  0.68090000  0.31910000  0.77240000  1
  C  C124  1  0.68090000  0.68090000  0.22760000  1
  C  C125  1  0.68090000  0.68090000  0.77240000  1
  C  C126  1  0.68090000  0.77240000  0.31910000  1
  C  C127  1  0.68090000  0.77240000  0.68090000  1
  C  C128  1  0.74230000  0.25770000  0.34840000  1
  C  C129  1  0.74230000  0.25770000  0.65160000  1
  C  C130  1  0.74230000  0.34840000  0.25770000  1
  C  C131  1  0.74230000  0.34840000  0.74230000  1
  C  C132  1  0.74230000  0.65160000  0.25770000  1
  C  C133  1  0.74230000  0.65160000  0.74230000  1
  C  C134  1  0.74230000  0.74230000  0.34840000  1
  C  C135  1  0.74230000  0.74230000  0.65160000  1
  C  C136  1  0.77240000  0.31910000  0.31910000  1
  C  C137  1  0.77240000  0.31910000  0.68090000  1
  C  C138  1  0.77240000  0.68090000  0.31910000  1
  C  C139  1  0.77240000  0.68090000  0.68090000  1
  C  C140  1  0.83770000  0.35080000  0.35080000  1
  C  C141  1  0.83770000  0.35080000  0.64920000  1
  C  C142  1  0.83770000  0.64920000  0.35080000  1
  C  C143  1  0.83770000  0.64920000  0.64920000  1
  N  N144  1  0.07500000  0.36970000  0.42030000  1
  N  N145  1  0.07500000  0.36970000  0.57970000  1
  N  N146  1  0.07500000  0.42030000  0.36970000  1
  N  N147  1  0.07500000  0.42030000  0.63030000  1
  N  N148  1  0.07500000  0.57970000  0.36970000  1
  N  N149  1  0.07500000  0.57970000  0.63030000  1
  N  N150  1  0.07500000  0.63030000  0.42030000  1
  N  N151  1  0.07500000  0.63030000  0.57970000  1
  N  N152  1  0.13040000  0.32470000  0.40950000  1
  N  N153  1  0.13040000  0.32470000  0.59050000  1
  N  N154  1  0.13040000  0.40950000  0.32470000  1
  N  N155  1  0.13040000  0.40950000  0.67530000  1
  N  N156  1  0.13040000  0.59050000  0.32470000  1
  N  N157  1  0.13040000  0.59050000  0.67530000  1
  N  N158  1  0.13040000  0.67530000  0.40950000  1
  N  N159  1  0.13040000  0.67530000  0.59050000  1
  N  N160  1  0.32470000  0.13040000  0.40950000  1
  N  N161  1  0.32470000  0.13040000  0.59050000  1
  N  N162  1  0.32470000  0.40950000  0.13040000  1
  N  N163  1  0.32470000  0.40950000  0.86960000  1
  N  N164  1  0.32470000  0.59050000  0.13040000  1
  N  N165  1  0.32470000  0.59050000  0.86960000  1
  N  N166  1  0.32470000  0.86960000  0.40950000  1
  N  N167  1  0.32470000  0.86960000  0.59050000  1
  N  N168  1  0.36970000  0.07500000  0.42030000  1
  N  N169  1  0.36970000  0.07500000  0.57970000  1
  N  N170  1  0.36970000  0.42030000  0.07500000  1
  N  N171  1  0.36970000  0.42030000  0.92500000  1
  N  N172  1  0.36970000  0.57970000  0.07500000  1
  N  N173  1  0.36970000  0.57970000  0.92500000  1
  N  N174  1  0.36970000  0.92500000  0.42030000  1
  N  N175  1  0.36970000  0.92500000  0.57970000  1
  N  N176  1  0.40950000  0.13040000  0.32470000  1
  N  N177  1  0.40950000  0.13040000  0.67530000  1
  N  N178  1  0.40950000  0.32470000  0.13040000  1
  N  N179  1  0.40950000  0.32470000  0.86960000  1
  N  N180  1  0.40950000  0.67530000  0.13040000  1
  N  N181  1  0.40950000  0.67530000  0.86960000  1
  N  N182  1  0.40950000  0.86960000  0.32470000  1
  N  N183  1  0.40950000  0.86960000  0.67530000  1
  N  N184  1  0.42030000  0.07500000  0.36970000  1
  N  N185  1  0.42030000  0.07500000  0.63030000  1
  N  N186  1  0.42030000  0.36970000  0.07500000  1
  N  N187  1  0.42030000  0.36970000  0.92500000  1
  N  N188  1  0.42030000  0.63030000  0.07500000  1
  N  N189  1  0.42030000  0.63030000  0.92500000  1
  N  N190  1  0.42030000  0.92500000  0.36970000  1
  N  N191  1  0.42030000  0.92500000  0.63030000  1
  N  N192  1  0.57970000  0.07500000  0.36970000  1
  N  N193  1  0.57970000  0.07500000  0.63030000  1
  N  N194  1  0.57970000  0.36970000  0.07500000  1
  N  N195  1  0.57970000  0.36970000  0.92500000  1
  N  N196  1  0.57970000  0.63030000  0.07500000  1
  N  N197  1  0.57970000  0.63030000  0.92500000  1
  N  N198  1  0.57970000  0.92500000  0.36970000  1
  N  N199  1  0.57970000  0.92500000  0.63030000  1
  N  N200  1  0.59050000  0.13040000  0.32470000  1
  N  N201  1  0.59050000  0.13040000  0.67530000  1
  N  N202  1  0.59050000  0.32470000  0.13040000  1
  N  N203  1  0.59050000  0.32470000  0.86960000  1
  N  N204  1  0.59050000  0.67530000  0.13040000  1
  N  N205  1  0.59050000  0.67530000  0.86960000  1
  N  N206  1  0.59050000  0.86960000  0.32470000  1
  N  N207  1  0.59050000  0.86960000  0.67530000  1
  N  N208  1  0.63030000  0.07500000  0.42030000  1
  N  N209  1  0.63030000  0.07500000  0.57970000  1
  N  N210  1  0.63030000  0.42030000  0.07500000  1
  N  N211  1  0.63030000  0.42030000  0.92500000  1
  N  N212  1  0.63030000  0.57970000  0.07500000  1
  N  N213  1  0.63030000  0.57970000  0.92500000  1
  N  N214  1  0.63030000  0.92500000  0.42030000  1
  N  N215  1  0.63030000  0.92500000  0.57970000  1
  N  N216  1  0.67530000  0.13040000  0.40950000  1
  N  N217  1  0.67530000  0.13040000  0.59050000  1
  N  N218  1  0.67530000  0.40950000  0.13040000  1
  N  N219  1  0.67530000  0.40950000  0.86960000  1
  N  N220  1  0.67530000  0.59050000  0.13040000  1
  N  N221  1  0.67530000  0.59050000  0.86960000  1
  N  N222  1  0.67530000  0.86960000  0.40950000  1
  N  N223  1  0.67530000  0.86960000  0.59050000  1
  N  N224  1  0.86960000  0.32470000  0.40950000  1
  N  N225  1  0.86960000  0.32470000  0.59050000  1
  N  N226  1  0.86960000  0.40950000  0.32470000  1
  N  N227  1  0.86960000  0.40950000  0.67530000  1
  N  N228  1  0.86960000  0.59050000  0.32470000  1
  N  N229  1  0.86960000  0.59050000  0.67530000  1
  N  N230  1  0.86960000  0.67530000  0.40950000  1
  N  N231  1  0.86960000  0.67530000  0.59050000  1
  N  N232  1  0.92500000  0.36970000  0.42030000  1
  N  N233  1  0.92500000  0.36970000  0.57970000  1
  N  N234  1  0.92500000  0.42030000  0.36970000  1
  N  N235  1  0.92500000  0.42030000  0.63030000  1
  N  N236  1  0.92500000  0.57970000  0.36970000  1
  N  N237  1  0.92500000  0.57970000  0.63030000  1
  N  N238  1  0.92500000  0.63030000  0.42030000  1
  N  N239  1  0.92500000  0.63030000  0.57970000  1
  Cl  Cl240  1  0.00000000  0.50000000  0.50000000  1
  Cl  Cl241  1  0.50000000  0.00000000  0.50000000  1
  Cl  Cl242  1  0.50000000  0.50000000  0.00000000  1
