# generated using pymatgen
data_MnN9
_symmetry_space_group_name_H-M   'P 1'
_cell_length_a   6.34877478
_cell_length_b   6.34877478
_cell_length_c   12.93000000
_cell_angle_alpha   99.82863037
_cell_angle_beta   99.82863037
_cell_angle_gamma   95.93099212
_symmetry_Int_Tables_number   1
_chemical_formula_structural   MnN9
_chemical_formula_sum   'Mn2 N18'
_cell_volume   501.25017772
_cell_formula_units_Z   2
loop_
 _symmetry_equiv_pos_site_id
 _symmetry_equiv_pos_as_xyz
  1  'x, y, z'
loop_
 _atom_site_type_symbol
 _atom_site_label
 _atom_site_symmetry_multiplicity
 _atom_site_fract_x
 _atom_site_fract_y
 _atom_site_fract_z
 _atom_site_occupancy
  Mn  Mn0  1  0.50000000  0.50000000  0.00000000  1
  Mn  Mn1  1  0.50000000  0.50000000  0.50000000  1
  N  N2  1  0.54360000  0.45640000  0.25000000  1
  N  N3  1  0.45640000  0.54360000  0.75000000  1
  N  N4  1  0.49590000  0.40330000  0.32500000  1
  N  N5  1  0.40330000  0.49590000  0.82500000  1
  N  N6  1  0.52710000  0.14750000  0.95970000  1
  N  N7  1  0.14750000  0.52710000  0.45970000  1
  N  N8  1  0.41100000  0.15200000  0.50190000  1
  N  N9  1  0.15200000  0.41100000  0.00190000  1
  N  N10  1  0.50000000  0.00000000  0.00000000  1
  N  N11  1  0.50000000  0.00000000  0.50000000  1
  N  N12  1  0.00000000  0.50000000  1.00000000  1
  N  N13  1  0.00000000  0.50000000  0.50000000  1
  N  N14  1  0.58900000  0.84800000  0.49810000  1
  N  N15  1  0.84800000  0.58900000  0.99810000  1
  N  N16  1  0.47290000  0.85250000  0.04030000  1
  N  N17  1  0.85250000  0.47290000  0.54030000  1
  N  N18  1  0.50410000  0.59670000  0.67500000  1
  N  N19  1  0.59670000  0.50410000  0.17500000  1
