# generated using pymatgen
data_MgH6(CO)4
_symmetry_space_group_name_H-M   'P 1'
_cell_length_a   8.58790000
_cell_length_b   8.58790000
_cell_length_c   20.86377285
_cell_angle_alpha   100.89745641
_cell_angle_beta   100.89745641
_cell_angle_gamma   94.67140000
_symmetry_Int_Tables_number   1
_chemical_formula_structural   MgH6(CO)4
_chemical_formula_sum   'Mg6 H36 C24 O24'
_cell_volume   1472.75283307
_cell_formula_units_Z   6
loop_
 _symmetry_equiv_pos_site_id
 _symmetry_equiv_pos_as_xyz
  1  'x, y, z'
loop_
 _atom_site_type_symbol
 _atom_site_label
 _atom_site_symmetry_multiplicity
 _atom_site_fract_x
 _atom_site_fract_y
 _atom_site_fract_z
 _atom_site_occupancy
  Mg  Mg0  1  0.46035000  0.83313000  0.83266000  1
  Mg  Mg1  1  0.74953000  0.62231000  0.33266000  1
  Mg  Mg2  1  0.16687000  0.53965000  0.16734000  1
  Mg  Mg3  1  0.37769000  0.25047000  0.66734000  1
  Mg  Mg4  1  0.79727000  0.20273000  0.50000000  1
  Mg  Mg5  1  0.04727000  0.95273000  0.00000000  1
  H  H6  1  0.66340000  0.57620000  0.54440000  1
  H  H7  1  0.66170000  0.65350000  0.62040000  1
  H  H8  1  0.10330000  0.80190000  0.75360000  1
  H  H9  1  0.13840000  0.64420000  0.58340000  1
  H  H10  1  0.71820000  0.13100000  0.04440000  1
  H  H11  1  0.71690000  0.20870000  0.12040000  1
  H  H12  1  0.00110000  0.88930000  0.70160000  1
  H  H13  1  0.05330000  0.97470000  0.77880000  1
  H  H14  1  0.43170000  0.69890000  0.42100000  1
  H  H15  1  0.47210000  0.23930000  0.92100000  1
  H  H16  1  0.96140000  0.22020000  0.89760000  1
  H  H17  1  0.86900000  0.28180000  0.95560000  1
  H  H18  1  0.34340000  0.20060000  0.85200000  1
  H  H19  1  0.30500000  0.31080000  0.91660000  1
  H  H20  1  0.79130000  0.28310000  0.87960000  1
  H  H21  1  0.40140000  0.75860000  0.35200000  1
  H  H22  1  0.35580000  0.86160000  0.41660000  1
  H  H23  1  0.76070000  0.52790000  0.07900000  1
  H  H24  1  0.79940000  0.65660000  0.14800000  1
  H  H25  1  0.09970000  0.29830000  0.74640000  1
  H  H26  1  0.68920000  0.69500000  0.08340000  1
  H  H27  1  0.04950000  0.43770000  0.79840000  1
  H  H28  1  0.70170000  0.90030000  0.25360000  1
  H  H29  1  0.19810000  0.89670000  0.24640000  1
  H  H30  1  0.55410000  0.97550000  0.27880000  1
  H  H31  1  0.11070000  0.99890000  0.29840000  1
  H  H32  1  0.02450000  0.44590000  0.72120000  1
  H  H33  1  0.02530000  0.94670000  0.22120000  1
  H  H34  1  0.56230000  0.95050000  0.20160000  1
  H  H35  1  0.42740000  0.18620000  0.39760000  1
  H  H36  1  0.42380000  0.33660000  0.45560000  1
  H  H37  1  0.77980000  0.03860000  0.10240000  1
  H  H38  1  0.24140000  0.59860000  0.64800000  1
  H  H39  1  0.34650000  0.33830000  0.37960000  1
  H  H40  1  0.81380000  0.57260000  0.60240000  1
  H  H41  1  0.30110000  0.56830000  0.57900000  1
  C  C42  1  0.77454000  0.14392000  0.09098000  1
  C  C43  1  0.94230000  0.22636000  0.09968000  1
  C  C44  1  0.28506000  0.07178000  0.91984000  1
  C  C45  1  0.77364000  0.05770000  0.90032000  1
  C  C46  1  0.08561000  0.90529000  0.74192000  1
  C  C47  1  0.23882000  0.98258000  0.72908000  1
  C  C48  1  0.85608000  0.22546000  0.90902000  1
  C  C49  1  0.35782000  0.21856000  0.90070000  1
  C  C50  1  0.43214000  0.79288000  0.40070000  1
  C  C51  1  0.59806000  0.88478000  0.41984000  1
  C  C52  1  0.01742000  0.76118000  0.27092000  1
  C  C53  1  0.49650000  0.74026000  0.22908000  1
  C  C54  1  0.78144000  0.64218000  0.09930000  1
  C  C55  1  0.92822000  0.71494000  0.08016000  1
  C  C56  1  0.09369000  0.41337000  0.75808000  1
  C  C57  1  0.09471000  0.91439000  0.25808000  1
  C  C58  1  0.58663000  0.90631000  0.24192000  1
  C  C59  1  0.25974000  0.50350000  0.77092000  1
  C  C60  1  0.62332000  0.40738000  0.59968000  1
  C  C61  1  0.11522000  0.40194000  0.58016000  1
  C  C62  1  0.43356000  0.30294000  0.40902000  1
  C  C63  1  0.20712000  0.56786000  0.59930000  1
  C  C64  1  0.69706000  0.56644000  0.59098000  1
  C  C65  1  0.59262000  0.37668000  0.40032000  1
  O  O66  1  0.83870000  0.96622000  0.93534000  1
  O  O67  1  0.31903000  0.93645000  0.89410000  1
  O  O68  1  0.03378000  0.16130000  0.06466000  1
  O  O69  1  0.59067000  0.46623000  0.35920000  1
  O  O70  1  0.19478000  0.09196000  0.96068000  1
  O  O71  1  0.64297000  0.01853000  0.85920000  1
  O  O72  1  0.37037000  0.94507000  0.75764000  1
  O  O73  1  0.98147000  0.35703000  0.14080000  1
  O  O74  1  0.56257000  0.63727000  0.25764000  1
  O  O75  1  0.05493000  0.62963000  0.24236000  1
  O  O76  1  0.22794000  0.08084000  0.69172000  1
  O  O77  1  0.70765000  0.82507000  0.39410000  1
  O  O78  1  0.91916000  0.77206000  0.30828000  1
  O  O79  1  0.36088000  0.71378000  0.19172000  1
  O  O80  1  0.61872000  0.01590000  0.46068000  1
  O  O81  1  0.06355000  0.68097000  0.10590000  1
  O  O82  1  0.17493000  0.29235000  0.60590000  1
  O  O83  1  0.36273000  0.43743000  0.74236000  1
  O  O84  1  0.65336000  0.28088000  0.56466000  1
  O  O85  1  0.90804000  0.80522000  0.03932000  1
  O  O86  1  0.53377000  0.40933000  0.64080000  1
  O  O87  1  0.28622000  0.63912000  0.80828000  1
  O  O88  1  0.98410000  0.38128000  0.53932000  1
  O  O89  1  0.71912000  0.34664000  0.43534000  1
