# generated using pymatgen
data_TbH12C21NO6
_symmetry_space_group_name_H-M   'P 1'
_cell_length_a   8.25700000
_cell_length_b   13.16300000
_cell_length_c   14.23800000
_cell_angle_alpha   114.26100000
_cell_angle_beta   96.49300000
_cell_angle_gamma   101.69900000
_symmetry_Int_Tables_number   1
_chemical_formula_structural   TbH12C21NO6
_chemical_formula_sum   'Tb2 H24 C42 N2 O12'
_cell_volume   1347.66189380
_cell_formula_units_Z   2
loop_
 _symmetry_equiv_pos_site_id
 _symmetry_equiv_pos_as_xyz
  1  'x, y, z'
loop_
 _atom_site_type_symbol
 _atom_site_label
 _atom_site_symmetry_multiplicity
 _atom_site_fract_x
 _atom_site_fract_y
 _atom_site_fract_z
 _atom_site_occupancy
  Tb  Tb0  1  0.26933000  0.54978000  0.49918000  1
  Tb  Tb1  1  0.73067000  0.45022000  0.50082000  1
  H  H2  1  0.12760000  0.77300000  0.19680000  1
  H  H3  1  0.14220000  0.96440000  0.18170000  1
  H  H4  1  0.15520000  0.66520000  0.28740000  1
  H  H5  1  0.19810000  0.40380000  0.03510000  1
  H  H6  1  0.20110000  0.15920000  0.29900000  1
  H  H7  1  0.25750000  0.09490000  0.99030000  1
  H  H8  1  0.28060000  0.87950000  0.67790000  1
  H  H9  1  0.30890000  0.47480000  0.21180000  1
  H  H10  1  0.34140000  0.07300000  0.79130000  1
  H  H11  1  0.34480000  0.43710000  0.75520000  1
  H  H12  1  0.37360000  0.33060000  0.84750000  1
  H  H13  1  0.38530000  0.17000000  0.16470000  1
  H  H14  1  0.61470000  0.83000000  0.83530000  1
  H  H15  1  0.62640000  0.66940000  0.15250000  1
  H  H16  1  0.65520000  0.56290000  0.24480000  1
  H  H17  1  0.65860000  0.92700000  0.20870000  1
  H  H18  1  0.69110000  0.52520000  0.78820000  1
  H  H19  1  0.71940000  0.12050000  0.32210000  1
  H  H20  1  0.74250000  0.90510000  0.00970000  1
  H  H21  1  0.79890000  0.84080000  0.70100000  1
  H  H22  1  0.80190000  0.59620000  0.96490000  1
  H  H23  1  0.84480000  0.33480000  0.71260000  1
  H  H24  1  0.85780000  0.03560000  0.81830000  1
  H  H25  1  0.87240000  0.22700000  0.80320000  1
  C  C26  1  0.00630000  0.28760000  0.39090000  1
  C  C27  1  0.03140000  0.73060000  0.20610000  1
  C  C28  1  0.03490000  0.84030000  0.68010000  1
  C  C29  1  0.04780000  0.66650000  0.26100000  1
  C  C30  1  0.05680000  0.99510000  0.20960000  1
  C  C31  1  0.07180000  0.46130000  0.65920000  1
  C  C32  1  0.09070000  0.11200000  0.27930000  1
  C  C33  1  0.09100000  0.39480000  0.72280000  1
  C  C34  1  0.10640000  0.07350000  0.81660000  1
  C  C35  1  0.12620000  0.26800000  0.83490000  1
  C  C36  1  0.19540000  0.91020000  0.70610000  1
  C  C37  1  0.21680000  0.24120000  0.99250000  1
  C  C38  1  0.23140000  0.02590000  0.77390000  1
  C  C39  1  0.23380000  0.35570000  0.06090000  1
  C  C40  1  0.24880000  0.39440000  0.76440000  1
  C  C41  1  0.26610000  0.33070000  0.82000000  1
  C  C42  1  0.27160000  0.17280000  0.03430000  1
  C  C43  1  0.30310000  0.39860000  0.16660000  1
  C  C44  1  0.34630000  0.21730000  0.13920000  1
  C  C45  1  0.36410000  0.33200000  0.20750000  1
  C  C46  1  0.44850000  0.37920000  0.32200000  1
  C  C47  1  0.55150000  0.62080000  0.67800000  1
  C  C48  1  0.63590000  0.66800000  0.79250000  1
  C  C49  1  0.65370000  0.78270000  0.86080000  1
  C  C50  1  0.69690000  0.60140000  0.83340000  1
  C  C51  1  0.72840000  0.82720000  0.96570000  1
  C  C52  1  0.73390000  0.66930000  0.18000000  1
  C  C53  1  0.75120000  0.60560000  0.23560000  1
  C  C54  1  0.76620000  0.64430000  0.93910000  1
  C  C55  1  0.76860000  0.97410000  0.22610000  1
  C  C56  1  0.78320000  0.75880000  0.00750000  1
  C  C57  1  0.80460000  0.08980000  0.29390000  1
  C  C58  1  0.87380000  0.73200000  0.16510000  1
  C  C59  1  0.89360000  0.92650000  0.18340000  1
  C  C60  1  0.90900000  0.60520000  0.27720000  1
  C  C61  1  0.90930000  0.88800000  0.72070000  1
  C  C62  1  0.92820000  0.53870000  0.34080000  1
  C  C63  1  0.94320000  0.00490000  0.79040000  1
  C  C64  1  0.95220000  0.33350000  0.73900000  1
  C  C65  1  0.96510000  0.15970000  0.31990000  1
  C  C66  1  0.96860000  0.26940000  0.79390000  1
  C  C67  1  0.99370000  0.71240000  0.60910000  1
  N  N68  1  0.14110000  0.19510000  0.88480000  1
  N  N69  1  0.85890000  0.80490000  0.11520000  1
  O  O70  1  0.07040000  0.52410000  0.35840000  1
  O  O71  1  0.11320000  0.67270000  0.57540000  1
  O  O72  1  0.15940000  0.34590000  0.41330000  1
  O  O73  1  0.19670000  0.49540000  0.62810000  1
  O  O74  1  0.44800000  0.47840000  0.38680000  1
  O  O75  1  0.48040000  0.68460000  0.65260000  1
  O  O76  1  0.51960000  0.31540000  0.34740000  1
  O  O77  1  0.55200000  0.52160000  0.61320000  1
  O  O78  1  0.80330000  0.50460000  0.37190000  1
  O  O79  1  0.84060000  0.65410000  0.58670000  1
  O  O80  1  0.88680000  0.32730000  0.42460000  1
  O  O81  1  0.92960000  0.47590000  0.64160000  1
