# generated using pymatgen
data_Mg7Al2(PO4)9
_symmetry_space_group_name_H-M   'P 1'
_cell_length_a   13.25770000
_cell_length_b   13.25770000
_cell_length_c   17.04141412
_cell_angle_alpha   67.10865845
_cell_angle_beta   67.10865845
_cell_angle_gamma   60.00000000
_symmetry_Int_Tables_number   1
_chemical_formula_structural   Mg7Al2(PO4)9
_chemical_formula_sum   'Mg14 Al4 P18 O72'
_cell_volume   2317.62583911
_cell_formula_units_Z   2
loop_
 _symmetry_equiv_pos_site_id
 _symmetry_equiv_pos_as_xyz
  1  'x, y, z'
loop_
 _atom_site_type_symbol
 _atom_site_label
 _atom_site_symmetry_multiplicity
 _atom_site_fract_x
 _atom_site_fract_y
 _atom_site_fract_z
 _atom_site_occupancy
  Al  Al0  1  0.19726333  0.72886333  0.10238000  1
  Al  Al1  1  0.52850667  0.77113667  0.39762000  1
  Al  Al2  1  0.47149333  0.22886333  0.60238000  1
  Al  Al3  1  0.80273667  0.27113667  0.89762000  1
  Mg  Mg4  1  0.00811000  0.49189000  0.25000000  1
  Mg  Mg5  1  0.99189000  0.50811000  0.75000000  1
  Mg  Mg6  1  0.22886333  0.69726333  0.60238000  1
  Mg  Mg7  1  0.49189000  0.25000000  0.25000000  1
  Mg  Mg8  1  0.75000000  0.99189000  0.75000000  1
  Mg  Mg9  1  0.69726333  0.47149333  0.60238000  1
  Mg  Mg10  1  0.97149333  0.19726333  0.10238000  1
  Mg  Mg11  1  0.27113667  0.02850667  0.89762000  1
  Mg  Mg12  1  0.72886333  0.97149333  0.10238000  1
  Mg  Mg13  1  0.02850667  0.80273667  0.89762000  1
  Mg  Mg14  1  0.30273667  0.52850667  0.39762000  1
  Mg  Mg15  1  0.25000000  0.00811000  0.25000000  1
  Mg  Mg16  1  0.50811000  0.75000000  0.75000000  1
  Mg  Mg17  1  0.77113667  0.30273667  0.39762000  1
  O  O18  1  0.22600000  0.77227000  0.49160000  1
  O  O19  1  0.27227000  0.72600000  0.99160000  1
  O  O20  1  0.53144000  0.23274000  0.34238000  1
  O  O21  1  0.73274000  0.03144000  0.84238000  1
  O  O22  1  0.41308000  0.02058000  0.83116000  1
  O  O23  1  0.52058000  0.91308000  0.33116000  1
  O  O24  1  0.89344000  0.53144000  0.34238000  1
  O  O25  1  0.03144000  0.39344000  0.84238000  1
  O  O26  1  0.60656000  0.26726000  0.15762000  1
  O  O27  1  0.76726000  0.10656000  0.65762000  1
  O  O28  1  0.02058000  0.73518000  0.83116000  1
  O  O29  1  0.23518000  0.52058000  0.33116000  1
  O  O30  1  0.08692000  0.76482000  0.66884000  1
  O  O31  1  0.26482000  0.58692000  0.16884000  1
  O  O32  1  0.77227000  0.51013000  0.49160000  1
  O  O33  1  0.01013000  0.27227000  0.99160000  1
  O  O34  1  0.27400000  0.98987000  0.00840000  1
  O  O35  1  0.48987000  0.77400000  0.50840000  1
  O  O36  1  0.67729000  0.66611000  0.37055000  1
  O  O37  1  0.16611000  0.17729000  0.87055000  1
  O  O38  1  0.76107000  0.07577000  0.11739000  1
  O  O39  1  0.57577000  0.26107000  0.61739000  1
  O  O40  1  0.52772000  0.87566000  0.73726000  1
  O  O41  1  0.37566000  0.02772000  0.23726000  1
  O  O42  1  0.87566000  0.85936000  0.73726000  1
  O  O43  1  0.35936000  0.37566000  0.23726000  1
  O  O44  1  0.26107000  0.54577000  0.61739000  1
  O  O45  1  0.04577000  0.76107000  0.11739000  1
  O  O46  1  0.02772000  0.35936000  0.23726000  1
  O  O47  1  0.85936000  0.52772000  0.73726000  1
  O  O48  1  0.28605000  0.67729000  0.37055000  1
  O  O49  1  0.17729000  0.78605000  0.87055000  1
  O  O50  1  0.07577000  0.04577000  0.11739000  1
  O  O51  1  0.54577000  0.57577000  0.61739000  1
  O  O52  1  0.78605000  0.16611000  0.87055000  1
  O  O53  1  0.66611000  0.28605000  0.37055000  1
  O  O54  1  0.21395000  0.83389000  0.12945000  1
  O  O55  1  0.33389000  0.71395000  0.62945000  1
  O  O56  1  0.45423000  0.42423000  0.38261000  1
  O  O57  1  0.92423000  0.95423000  0.88261000  1
  O  O58  1  0.71395000  0.32271000  0.62945000  1
  O  O59  1  0.82271000  0.21395000  0.12945000  1
  O  O60  1  0.97228000  0.64064000  0.76274000  1
  O  O61  1  0.14064000  0.47228000  0.26274000  1
  O  O62  1  0.73893000  0.45423000  0.38261000  1
  O  O63  1  0.95423000  0.23893000  0.88261000  1
  O  O64  1  0.64064000  0.62434000  0.76274000  1
  O  O65  1  0.12434000  0.14064000  0.26274000  1
  O  O66  1  0.47228000  0.12434000  0.26274000  1
  O  O67  1  0.62434000  0.97228000  0.76274000  1
  O  O68  1  0.23893000  0.92423000  0.88261000  1
  O  O69  1  0.42423000  0.73893000  0.38261000  1
  O  O70  1  0.83389000  0.82271000  0.12945000  1
  O  O71  1  0.32271000  0.33389000  0.62945000  1
  O  O72  1  0.72600000  0.01013000  0.99160000  1
  O  O73  1  0.51013000  0.22600000  0.49160000  1
  O  O74  1  0.98987000  0.72773000  0.00840000  1
  O  O75  1  0.22773000  0.48987000  0.50840000  1
  O  O76  1  0.91308000  0.23518000  0.33116000  1
  O  O77  1  0.73518000  0.41308000  0.83116000  1
  O  O78  1  0.76482000  0.47942000  0.66884000  1
  O  O79  1  0.97942000  0.26482000  0.16884000  1
  O  O80  1  0.39344000  0.73274000  0.84238000  1
  O  O81  1  0.23274000  0.89344000  0.34238000  1
  O  O82  1  0.10656000  0.46856000  0.65762000  1
  O  O83  1  0.96856000  0.60656000  0.15762000  1
  O  O84  1  0.58692000  0.97942000  0.16884000  1
  O  O85  1  0.47942000  0.08692000  0.66884000  1
  O  O86  1  0.26726000  0.96856000  0.15762000  1
  O  O87  1  0.46856000  0.76726000  0.65762000  1
  O  O88  1  0.77400000  0.22773000  0.50840000  1
  O  O89  1  0.72773000  0.27400000  0.00840000  1
  P  P90  1  0.51066000  0.98934000  0.75000000  1
  P  P91  1  0.48934000  0.01066000  0.25000000  1
  P  P92  1  0.29335667  0.76955667  0.39699000  1
  P  P93  1  0.26955667  0.79335667  0.89699000  1
  P  P94  1  0.76955667  0.54009667  0.39699000  1
  P  P95  1  0.04009667  0.26955667  0.89699000  1
  P  P96  1  0.98934000  0.75000000  0.75000000  1
  P  P97  1  0.25000000  0.48934000  0.25000000  1
  P  P98  1  0.20664333  0.95990333  0.10301000  1
  P  P99  1  0.45990333  0.70664333  0.60301000  1
  P  P100  1  0.79335667  0.04009667  0.89699000  1
  P  P101  1  0.54009667  0.29335667  0.39699000  1
  P  P102  1  0.75000000  0.51066000  0.75000000  1
  P  P103  1  0.01066000  0.25000000  0.25000000  1
  P  P104  1  0.95990333  0.73044333  0.10301000  1
  P  P105  1  0.23044333  0.45990333  0.60301000  1
  P  P106  1  0.70664333  0.23044333  0.60301000  1
  P  P107  1  0.73044333  0.20664333  0.10301000  1
