# generated using pymatgen
data_NiH8(C3O2)6
_symmetry_space_group_name_H-M   'P 1'
_cell_length_a   11.18130000
_cell_length_b   11.18130000
_cell_length_c   31.55200000
_cell_angle_alpha   90.00000000
_cell_angle_beta   90.00000000
_cell_angle_gamma   90.00000000
_symmetry_Int_Tables_number   1
_chemical_formula_structural   NiH8(C3O2)6
_chemical_formula_sum   'Ni4 H32 C72 O48'
_cell_volume   3944.67741166
_cell_formula_units_Z   4
loop_
 _symmetry_equiv_pos_site_id
 _symmetry_equiv_pos_as_xyz
  1  'x, y, z'
loop_
 _atom_site_type_symbol
 _atom_site_label
 _atom_site_symmetry_multiplicity
 _atom_site_fract_x
 _atom_site_fract_y
 _atom_site_fract_z
 _atom_site_occupancy
  Ni  Ni0  1  0.19949000  0.19949000  0.50000000  1
  Ni  Ni1  1  0.30051000  0.69949000  0.75000000  1
  Ni  Ni2  1  0.69949000  0.30051000  0.25000000  1
  Ni  Ni3  1  0.80051000  0.80051000  0.00000000  1
  H  H4  1  0.01200000  0.82440000  0.88540000  1
  H  H5  1  0.03250000  0.24110000  0.17880000  1
  H  H6  1  0.04250000  0.17220000  0.91540000  1
  H  H7  1  0.17220000  0.04250000  0.08460000  1
  H  H8  1  0.17560000  0.98800000  0.61460000  1
  H  H9  1  0.18300000  0.81400000  0.42650000  1
  H  H10  1  0.18600000  0.81700000  0.07350000  1
  H  H11  1  0.24110000  0.03250000  0.82120000  1
  H  H12  1  0.25890000  0.53250000  0.42880000  1
  H  H13  1  0.31400000  0.31700000  0.17650000  1
  H  H14  1  0.31700000  0.31400000  0.82350000  1
  H  H15  1  0.32440000  0.48800000  0.63540000  1
  H  H16  1  0.32780000  0.54250000  0.16540000  1
  H  H17  1  0.45750000  0.67220000  0.33460000  1
  H  H18  1  0.46750000  0.74110000  0.07120000  1
  H  H19  1  0.48800000  0.32440000  0.36460000  1
  H  H20  1  0.51200000  0.67560000  0.86460000  1
  H  H21  1  0.53250000  0.25890000  0.57120000  1
  H  H22  1  0.54250000  0.32780000  0.83460000  1
  H  H23  1  0.67220000  0.45750000  0.66540000  1
  H  H24  1  0.67560000  0.51200000  0.13540000  1
  H  H25  1  0.68300000  0.68600000  0.32350000  1
  H  H26  1  0.68600000  0.68300000  0.67650000  1
  H  H27  1  0.74110000  0.46750000  0.92880000  1
  H  H28  1  0.75890000  0.96750000  0.32120000  1
  H  H29  1  0.81400000  0.18300000  0.57350000  1
  H  H30  1  0.81700000  0.18600000  0.92650000  1
  H  H31  1  0.82440000  0.01200000  0.11460000  1
  H  H32  1  0.82780000  0.95750000  0.58460000  1
  H  H33  1  0.95750000  0.82780000  0.41540000  1
  H  H34  1  0.96750000  0.75890000  0.67880000  1
  H  H35  1  0.98800000  0.17560000  0.38540000  1
  C  C36  1  0.00444000  0.98601000  0.59386000  1
  C  C37  1  0.01399000  0.99556000  0.90614000  1
  C  C38  1  0.02308000  0.18392000  0.15762000  1
  C  C39  1  0.02493000  0.07796000  0.55959000  1
  C  C40  1  0.04671000  0.89880000  0.88075000  1
  C  C41  1  0.06553000  0.10682000  0.89918000  1
  C  C42  1  0.07796000  0.02493000  0.44041000  1
  C  C43  1  0.08804000  0.86952000  0.65144000  1
  C  C44  1  0.10120000  0.95329000  0.61925000  1
  C  C45  1  0.10682000  0.06553000  0.10082000  1
  C  C46  1  0.12007000  0.15237000  0.13244000  1
  C  C47  1  0.13048000  0.91196000  0.84856000  1
  C  C48  1  0.15237000  0.12007000  0.86756000  1
  C  C49  1  0.15825000  0.80702000  0.81990000  1
  C  C50  1  0.18392000  0.02308000  0.84238000  1
  C  C51  1  0.19298000  0.84175000  0.68010000  1
  C  C52  1  0.20814000  0.24065000  0.86094000  1
  C  C53  1  0.24065000  0.20814000  0.13906000  1
  C  C54  1  0.25935000  0.70814000  0.11094000  1
  C  C55  1  0.29186000  0.74065000  0.38906000  1
  C  C56  1  0.30702000  0.34175000  0.56990000  1
  C  C57  1  0.31608000  0.52308000  0.40762000  1
  C  C58  1  0.34175000  0.30702000  0.43010000  1
  C  C59  1  0.34763000  0.62007000  0.38244000  1
  C  C60  1  0.36952000  0.41196000  0.40144000  1
  C  C61  1  0.37993000  0.65237000  0.11756000  1
  C  C62  1  0.39318000  0.56553000  0.14918000  1
  C  C63  1  0.39880000  0.45329000  0.63075000  1
  C  C64  1  0.41196000  0.36952000  0.59856000  1
  C  C65  1  0.42204000  0.52493000  0.80959000  1
  C  C66  1  0.43447000  0.60682000  0.35082000  1
  C  C67  1  0.45329000  0.39880000  0.36925000  1
  C  C68  1  0.47507000  0.57796000  0.69041000  1
  C  C69  1  0.47692000  0.68392000  0.09238000  1
  C  C70  1  0.48601000  0.49556000  0.34386000  1
  C  C71  1  0.49556000  0.48601000  0.65614000  1
  C  C72  1  0.50444000  0.51399000  0.15614000  1
  C  C73  1  0.51399000  0.50444000  0.84386000  1
  C  C74  1  0.52308000  0.31608000  0.59238000  1
  C  C75  1  0.52493000  0.42204000  0.19041000  1
  C  C76  1  0.54671000  0.60120000  0.86925000  1
  C  C77  1  0.56553000  0.39318000  0.85082000  1
  C  C78  1  0.57796000  0.47507000  0.30959000  1
  C  C79  1  0.58804000  0.63048000  0.09856000  1
  C  C80  1  0.60120000  0.54671000  0.13075000  1
  C  C81  1  0.60682000  0.43447000  0.64918000  1
  C  C82  1  0.62007000  0.34763000  0.61756000  1
  C  C83  1  0.63048000  0.58804000  0.90144000  1
  C  C84  1  0.65237000  0.37993000  0.88244000  1
  C  C85  1  0.65825000  0.69298000  0.93010000  1
  C  C86  1  0.68392000  0.47692000  0.90762000  1
  C  C87  1  0.69298000  0.65825000  0.06990000  1
  C  C88  1  0.70814000  0.25935000  0.88906000  1
  C  C89  1  0.74065000  0.29186000  0.61094000  1
  C  C90  1  0.75935000  0.79186000  0.63906000  1
  C  C91  1  0.79186000  0.75935000  0.36094000  1
  C  C92  1  0.80702000  0.15825000  0.18010000  1
  C  C93  1  0.81608000  0.97692000  0.34238000  1
  C  C94  1  0.84175000  0.19298000  0.31990000  1
  C  C95  1  0.84763000  0.87993000  0.36756000  1
  C  C96  1  0.86952000  0.08804000  0.34856000  1
  C  C97  1  0.87993000  0.84763000  0.63244000  1
  C  C98  1  0.89318000  0.93447000  0.60082000  1
  C  C99  1  0.89880000  0.04671000  0.11925000  1
  C  C100  1  0.91196000  0.13048000  0.15144000  1
  C  C101  1  0.92204000  0.97507000  0.94041000  1
  C  C102  1  0.93447000  0.89318000  0.39918000  1
  C  C103  1  0.95329000  0.10120000  0.38075000  1
  C  C104  1  0.97507000  0.92204000  0.05959000  1
  C  C105  1  0.97692000  0.81608000  0.65762000  1
  C  C106  1  0.98601000  0.00444000  0.40614000  1
  C  C107  1  0.99556000  0.01399000  0.09386000  1
  O  O108  1  0.06214000  0.85753000  0.04787000  1
  O  O109  1  0.08488000  0.12936000  0.45482000  1
  O  O110  1  0.09350000  0.71587000  0.82392000  1
  O  O111  1  0.12936000  0.08488000  0.54518000  1
  O  O112  1  0.14247000  0.93786000  0.45213000  1
  O  O113  1  0.17146000  0.68143000  0.13107000  1
  O  O114  1  0.17961000  0.75733000  0.70607000  1
  O  O115  1  0.18143000  0.32854000  0.88107000  1
  O  O116  1  0.21043000  0.73910000  0.41939000  1
  O  O117  1  0.21587000  0.40650000  0.57392000  1
  O  O118  1  0.23910000  0.28957000  0.16939000  1
  O  O119  1  0.24267000  0.82039000  0.79393000  1
  O  O120  1  0.25733000  0.32039000  0.45607000  1
  O  O121  1  0.26090000  0.78957000  0.08061000  1
  O  O122  1  0.28413000  0.90650000  0.67608000  1
  O  O123  1  0.28957000  0.23910000  0.83061000  1
  O  O124  1  0.31857000  0.82854000  0.36893000  1
  O  O125  1  0.32039000  0.25733000  0.54393000  1
  O  O126  1  0.32854000  0.18143000  0.11893000  1
  O  O127  1  0.35753000  0.43786000  0.79787000  1
  O  O128  1  0.37064000  0.58488000  0.70482000  1
  O  O129  1  0.40650000  0.21587000  0.42608000  1
  O  O130  1  0.41512000  0.62936000  0.79518000  1
  O  O131  1  0.43786000  0.35753000  0.20213000  1
  O  O132  1  0.56214000  0.64247000  0.70213000  1
  O  O133  1  0.58488000  0.37064000  0.29518000  1
  O  O134  1  0.59350000  0.78413000  0.92608000  1
  O  O135  1  0.62936000  0.41512000  0.20482000  1
  O  O136  1  0.64247000  0.56214000  0.29787000  1
  O  O137  1  0.67146000  0.81857000  0.61893000  1
  O  O138  1  0.67961000  0.74267000  0.04393000  1
  O  O139  1  0.68143000  0.17146000  0.86893000  1
  O  O140  1  0.71043000  0.76090000  0.33061000  1
  O  O141  1  0.71587000  0.09350000  0.17608000  1
  O  O142  1  0.73910000  0.21043000  0.58061000  1
  O  O143  1  0.74267000  0.67961000  0.95607000  1
  O  O144  1  0.75733000  0.17961000  0.29393000  1
  O  O145  1  0.76090000  0.71043000  0.66939000  1
  O  O146  1  0.78413000  0.59350000  0.07392000  1
  O  O147  1  0.78957000  0.26090000  0.91939000  1
  O  O148  1  0.81857000  0.67146000  0.38107000  1
  O  O149  1  0.82039000  0.24267000  0.20607000  1
  O  O150  1  0.82854000  0.31857000  0.63107000  1
  O  O151  1  0.85753000  0.06214000  0.95213000  1
  O  O152  1  0.87064000  0.91512000  0.04518000  1
  O  O153  1  0.90650000  0.28413000  0.32392000  1
  O  O154  1  0.91512000  0.87064000  0.95482000  1
  O  O155  1  0.93786000  0.14247000  0.54787000  1
