# generated using pymatgen
data_PrH10(C9O4)2
_symmetry_space_group_name_H-M   'P 1'
_cell_length_a   11.14821612
_cell_length_b   11.14821612
_cell_length_c   16.72920000
_cell_angle_alpha   90.00000000
_cell_angle_beta   90.00000000
_cell_angle_gamma   97.74626372
_symmetry_Int_Tables_number   1
_chemical_formula_structural   PrH10(C9O4)2
_chemical_formula_sum   'Pr4 H40 C72 O32'
_cell_volume   2060.17763022
_cell_formula_units_Z   4
loop_
 _symmetry_equiv_pos_site_id
 _symmetry_equiv_pos_as_xyz
  1  'x, y, z'
loop_
 _atom_site_type_symbol
 _atom_site_label
 _atom_site_symmetry_multiplicity
 _atom_site_fract_x
 _atom_site_fract_y
 _atom_site_fract_z
 _atom_site_occupancy
  C  C0  1  0.63240000  0.34620000  0.95660000  1
  C  C1  1  0.34620000  0.63240000  0.04340000  1
  C  C2  1  0.65900000  0.29000000  0.09680000  1
  C  C3  1  0.29000000  0.65900000  0.90320000  1
  C  C4  1  0.68960000  0.23200000  0.23900000  1
  C  C5  1  0.23200000  0.68960000  0.76100000  1
  C  C6  1  0.64350000  0.25630000  0.01920000  1
  C  C7  1  0.25630000  0.64350000  0.98080000  1
  C  C8  1  0.66030000  0.20690000  0.15820000  1
  C  C9  1  0.20690000  0.66030000  0.84180000  1
  C  C10  1  0.64870000  0.13430000  0.99720000  1
  C  C11  1  0.13430000  0.64870000  0.00280000  1
  C  C12  1  0.67470000  0.08890000  0.13560000  1
  C  C13  1  0.08890000  0.67470000  0.86440000  1
  C  C14  1  0.66010000  0.07310000  0.71220000  1
  C  C15  1  0.07310000  0.66010000  0.28780000  1
  C  C16  1  0.36580000  0.35920000  0.29430000  1
  C  C17  1  0.35920000  0.36580000  0.70570000  1
  C  C18  1  0.66510000  0.04950000  0.05550000  1
  C  C19  1  0.04950000  0.66510000  0.94450000  1
  C  C20  1  0.34260000  0.30320000  0.15180000  1
  C  C21  1  0.30320000  0.34260000  0.84820000  1
  C  C22  1  0.35880000  0.26700000  0.23140000  1
  C  C23  1  0.26700000  0.35880000  0.76860000  1
  C  C24  1  0.67630000  0.92290000  0.03660000  1
  C  C25  1  0.92290000  0.67630000  0.96340000  1
  C  C26  1  0.65600000  0.94200000  0.69220000  1
  C  C27  1  0.94200000  0.65600000  0.30780000  1
  C  C28  1  0.66720000  0.90520000  0.61120000  1
  C  C29  1  0.90520000  0.66720000  0.38880000  1
  C  C30  1  0.31260000  0.24160000  0.01200000  1
  C  C31  1  0.24160000  0.31260000  0.98800000  1
  C  C32  1  0.33850000  0.21410000  0.09100000  1
  C  C33  1  0.21410000  0.33850000  0.90900000  1
  C  C34  1  0.36090000  0.14750000  0.25100000  1
  C  C35  1  0.14750000  0.36090000  0.74900000  1
  C  C36  1  0.63910000  0.85250000  0.75100000  1
  C  C37  1  0.85250000  0.63910000  0.24900000  1
  C  C38  1  0.66150000  0.78590000  0.59100000  1
  C  C39  1  0.78590000  0.66150000  0.40900000  1
  C  C40  1  0.68740000  0.75840000  0.51200000  1
  C  C41  1  0.75840000  0.68740000  0.48800000  1
  C  C42  1  0.33280000  0.09480000  0.11120000  1
  C  C43  1  0.09480000  0.33280000  0.88880000  1
  C  C44  1  0.34400000  0.05800000  0.19220000  1
  C  C45  1  0.05800000  0.34400000  0.80780000  1
  C  C46  1  0.32370000  0.07710000  0.53660000  1
  C  C47  1  0.07710000  0.32370000  0.46340000  1
  C  C48  1  0.64120000  0.73300000  0.73140000  1
  C  C49  1  0.73300000  0.64120000  0.26860000  1
  C  C50  1  0.65740000  0.69680000  0.65180000  1
  C  C51  1  0.69680000  0.65740000  0.34820000  1
  C  C52  1  0.33490000  0.95050000  0.55550000  1
  C  C53  1  0.95050000  0.33490000  0.44450000  1
  C  C54  1  0.63420000  0.64080000  0.79430000  1
  C  C55  1  0.64080000  0.63420000  0.20570000  1
  C  C56  1  0.33990000  0.92690000  0.21220000  1
  C  C57  1  0.92690000  0.33990000  0.78780000  1
  C  C58  1  0.32530000  0.91110000  0.63560000  1
  C  C59  1  0.91110000  0.32530000  0.36440000  1
  C  C60  1  0.35130000  0.86570000  0.49720000  1
  C  C61  1  0.86570000  0.35130000  0.50280000  1
  C  C62  1  0.33970000  0.79310000  0.65820000  1
  C  C63  1  0.79310000  0.33970000  0.34180000  1
  C  C64  1  0.35650000  0.74370000  0.51920000  1
  C  C65  1  0.74370000  0.35650000  0.48080000  1
  C  C66  1  0.31040000  0.76800000  0.73900000  1
  C  C67  1  0.76800000  0.31040000  0.26100000  1
  C  C68  1  0.34100000  0.71000000  0.59680000  1
  C  C69  1  0.71000000  0.34100000  0.40320000  1
  C  C70  1  0.36760000  0.65380000  0.45660000  1
  C  C71  1  0.65380000  0.36760000  0.54340000  1
  H  H72  1  0.62790000  0.33090000  0.39070000  1
  H  H73  1  0.33090000  0.62790000  0.60930000  1
  H  H74  1  0.70320000  0.17440000  0.25800000  1
  H  H75  1  0.17440000  0.70320000  0.74200000  1
  H  H76  1  0.61550000  0.25030000  0.26240000  1
  H  H77  1  0.25030000  0.61550000  0.73760000  1
  H  H78  1  0.64110000  0.11130000  0.94380000  1
  H  H79  1  0.11130000  0.64110000  0.05620000  1
  H  H80  1  0.69130000  0.03450000  0.17480000  1
  H  H81  1  0.03450000  0.69130000  0.82520000  1
  H  H82  1  0.38320000  0.33480000  0.86040000  1
  H  H83  1  0.33480000  0.38320000  0.13960000  1
  H  H84  1  0.39020000  0.27240000  0.99000000  1
  H  H85  1  0.27240000  0.39020000  0.01000000  1
  H  H86  1  0.67750000  0.95870000  0.57470000  1
  H  H87  1  0.95870000  0.67750000  0.42530000  1
  H  H88  1  0.70880000  0.82120000  0.48980000  1
  H  H89  1  0.82120000  0.70880000  0.51020000  1
  H  H90  1  0.62620000  0.87380000  0.80370000  1
  H  H91  1  0.37380000  0.12620000  0.30370000  1
  H  H92  1  0.12620000  0.37380000  0.69630000  1
  H  H93  1  0.87380000  0.62620000  0.19630000  1
  H  H94  1  0.29120000  0.17880000  0.98980000  1
  H  H95  1  0.17880000  0.29120000  0.01020000  1
  H  H96  1  0.32250000  0.04130000  0.07470000  1
  H  H97  1  0.04130000  0.32250000  0.92530000  1
  H  H98  1  0.60980000  0.72760000  0.49000000  1
  H  H99  1  0.72760000  0.60980000  0.51000000  1
  H  H100  1  0.61680000  0.66520000  0.36040000  1
  H  H101  1  0.66520000  0.61680000  0.63960000  1
  H  H102  1  0.30870000  0.96550000  0.67480000  1
  H  H103  1  0.96550000  0.30870000  0.32520000  1
  H  H104  1  0.35890000  0.88870000  0.44380000  1
  H  H105  1  0.88870000  0.35890000  0.55620000  1
  H  H106  1  0.38450000  0.74970000  0.76240000  1
  H  H107  1  0.74970000  0.38450000  0.23760000  1
  H  H108  1  0.29680000  0.82560000  0.75800000  1
  H  H109  1  0.82560000  0.29680000  0.24200000  1
  H  H110  1  0.37210000  0.66910000  0.89070000  1
  H  H111  1  0.66910000  0.37210000  0.10930000  1
  O  O112  1  0.59950000  0.30850000  0.88710000  1
  O  O113  1  0.30850000  0.59950000  0.11290000  1
  O  O114  1  0.54700000  0.35020000  0.52260000  1
  O  O115  1  0.35020000  0.54700000  0.47740000  1
  O  O116  1  0.70890000  0.15090000  0.66530000  1
  O  O117  1  0.15090000  0.70890000  0.33470000  1
  O  O118  1  0.45940000  0.33060000  0.72190000  1
  O  O119  1  0.33060000  0.45940000  0.27810000  1
  O  O120  1  0.40360000  0.33340000  0.36210000  1
  O  O121  1  0.33340000  0.40360000  0.63790000  1
  O  O122  1  0.60430000  0.10550000  0.77410000  1
  O  O123  1  0.10550000  0.60430000  0.22590000  1
  O  O124  1  0.70230000  0.85130000  0.08570000  1
  O  O125  1  0.85130000  0.70230000  0.91430000  1
  O  O126  1  0.65610000  0.88550000  0.96680000  1
  O  O127  1  0.88550000  0.65610000  0.03320000  1
  O  O128  1  0.34390000  0.11450000  0.46680000  1
  O  O129  1  0.11450000  0.34390000  0.53320000  1
  O  O130  1  0.29770000  0.14870000  0.58570000  1
  O  O131  1  0.14870000  0.29770000  0.41430000  1
  O  O132  1  0.39570000  0.89450000  0.27410000  1
  O  O133  1  0.89450000  0.39570000  0.72590000  1
  O  O134  1  0.59640000  0.66660000  0.86210000  1
  O  O135  1  0.66660000  0.59640000  0.13790000  1
  O  O136  1  0.54060000  0.66940000  0.22190000  1
  O  O137  1  0.66940000  0.54060000  0.77810000  1
  O  O138  1  0.29110000  0.84910000  0.16530000  1
  O  O139  1  0.84910000  0.29110000  0.83470000  1
  O  O140  1  0.45300000  0.64980000  0.02260000  1
  O  O141  1  0.64980000  0.45300000  0.97740000  1
  O  O142  1  0.40050000  0.69150000  0.38710000  1
  O  O143  1  0.69150000  0.40050000  0.61290000  1
  Pr  Pr144  1  0.66837000  0.33163000  0.75000000  1
  Pr  Pr145  1  0.33163000  0.66837000  0.25000000  1
  Pr  Pr146  1  0.33765000  0.33765000  0.50000000  1
  Pr  Pr147  1  0.66235000  0.66235000  0.00000000  1
