# generated using pymatgen
data_Ni2H24C34O13
_symmetry_space_group_name_H-M   'P 1'
_cell_length_a   11.08000000
_cell_length_b   16.58300000
_cell_length_c   16.60000000
_cell_angle_alpha   68.53300000
_cell_angle_beta   89.20800000
_cell_angle_gamma   89.16700000
_symmetry_Int_Tables_number   1
_chemical_formula_structural   Ni2H24C34O13
_chemical_formula_sum   'Ni4 H48 C68 O26'
_cell_volume   2838.07109273
_cell_formula_units_Z   2
loop_
 _symmetry_equiv_pos_site_id
 _symmetry_equiv_pos_as_xyz
  1  'x, y, z'
loop_
 _atom_site_type_symbol
 _atom_site_label
 _atom_site_symmetry_multiplicity
 _atom_site_fract_x
 _atom_site_fract_y
 _atom_site_fract_z
 _atom_site_occupancy
  Ni  Ni0  1  0.35986000  0.99541000  0.50342000  1
  Ni  Ni1  1  0.49827000  0.81226000  0.50446000  1
  Ni  Ni2  1  0.50173000  0.18774000  0.49554000  1
  Ni  Ni3  1  0.64014000  0.00459000  0.49658000  1
  H  H4  1  0.00120000  0.09490000  0.51710000  1
  H  H5  1  0.03690000  0.22590000  0.79990000  1
  H  H6  1  0.04160000  0.61310000  0.97730000  1
  H  H7  1  0.06070000  0.39240000  0.95480000  1
  H  H8  1  0.06530000  0.64570000  0.05320000  1
  H  H9  1  0.06600000  0.30790000  0.65990000  1
  H  H10  1  0.08230000  0.59190000  0.64380000  1
  H  H11  1  0.08970000  0.59290000  0.78080000  1
  H  H12  1  0.13080000  0.19920000  0.87510000  1
  H  H13  1  0.13280000  0.27580000  0.31120000  1
  H  H14  1  0.17430000  0.21790000  0.77980000  1
  H  H15  1  0.18060000  0.30840000  0.50270000  1
  H  H16  1  0.18120000  0.69350000  0.48670000  1
  H  H17  1  0.20140000  0.56470000  0.84210000  1
  H  H18  1  0.20790000  0.24920000  0.24390000  1
  H  H19  1  0.22000000  0.59750000  0.74150000  1
  H  H20  1  0.23150000  0.60730000  0.98060000  1
  H  H21  1  0.26250000  0.97110000  0.93970000  1
  H  H22  1  0.26430000  0.31040000  0.28600000  1
  H  H23  1  0.33940000  0.90650000  0.77900000  1
  H  H24  1  0.35930000  0.33170000  0.15510000  1
  H  H25  1  0.38680000  0.70760000  0.00220000  1
  H  H26  1  0.44800000  0.67610000  0.77770000  1
  H  H27  1  0.49990000  0.03850000  0.59830000  1
  H  H28  1  0.50010000  0.96150000  0.40170000  1
  H  H29  1  0.55200000  0.32390000  0.22230000  1
  H  H30  1  0.61320000  0.29240000  0.99780000  1
  H  H31  1  0.64070000  0.66830000  0.84490000  1
  H  H32  1  0.66060000  0.09350000  0.22100000  1
  H  H33  1  0.73570000  0.68960000  0.71400000  1
  H  H34  1  0.73750000  0.02890000  0.06030000  1
  H  H35  1  0.76850000  0.39270000  0.01940000  1
  H  H36  1  0.78000000  0.40250000  0.25850000  1
  H  H37  1  0.79210000  0.75080000  0.75610000  1
  H  H38  1  0.79860000  0.43530000  0.15790000  1
  H  H39  1  0.81880000  0.30650000  0.51330000  1
  H  H40  1  0.81940000  0.69160000  0.49730000  1
  H  H41  1  0.82570000  0.78210000  0.22020000  1
  H  H42  1  0.86720000  0.72420000  0.68880000  1
  H  H43  1  0.86920000  0.80080000  0.12490000  1
  H  H44  1  0.91030000  0.40710000  0.21920000  1
  H  H45  1  0.91770000  0.40810000  0.35620000  1
  H  H46  1  0.93400000  0.69210000  0.34010000  1
  H  H47  1  0.93470000  0.35430000  0.94680000  1
  H  H48  1  0.93930000  0.60760000  0.04520000  1
  H  H49  1  0.95840000  0.38690000  0.02270000  1
  H  H50  1  0.96310000  0.77410000  0.20010000  1
  H  H51  1  0.99880000  0.90510000  0.48290000  1
  C  C52  1  0.00040000  0.67740000  0.49210000  1
  C  C53  1  0.00060000  0.15180000  0.51500000  1
  C  C54  1  0.00210000  0.58570000  0.49640000  1
  C  C55  1  0.02470000  0.60320000  0.03700000  1
  C  C56  1  0.03510000  0.43100000  0.57610000  1
  C  C57  1  0.03790000  0.52040000  0.57120000  1
  C  C58  1  0.06960000  0.36540000  0.65540000  1
  C  C59  1  0.07880000  0.53520000  0.64570000  1
  C  C60  1  0.10700000  0.38210000  0.72410000  1
  C  C61  1  0.10820000  0.27960000  0.50620000  1
  C  C62  1  0.10820000  0.72170000  0.48720000  1
  C  C63  1  0.10890000  0.80730000  0.48310000  1
  C  C64  1  0.11040000  0.19450000  0.50980000  1
  C  C65  1  0.11260000  0.47050000  0.71850000  1
  C  C66  1  0.11760000  0.23430000  0.81540000  1
  C  C67  1  0.16790000  0.56560000  0.78880000  1
  C  C68  1  0.18280000  0.49910000  0.07690000  1
  C  C69  1  0.19120000  0.29500000  0.26500000  1
  C  C70  1  0.22460000  0.41630000  0.13270000  1
  C  C71  1  0.22590000  0.85060000  0.48200000  1
  C  C72  1  0.22900000  0.15180000  0.50710000  1
  C  C73  1  0.25900000  0.55300000  0.01670000  1
  C  C74  1  0.31260000  0.86730000  0.95050000  1
  C  C75  1  0.33640000  0.38820000  0.12190000  1
  C  C76  1  0.35160000  0.81530000  0.89830000  1
  C  C77  1  0.35900000  0.84850000  0.80890000  1
  C  C78  1  0.38130000  0.52720000  0.00820000  1
  C  C79  1  0.38700000  0.72960000  0.94200000  1
  C  C80  1  0.39510000  0.79730000  0.76300000  1
  C  C81  1  0.40810000  0.83610000  0.66680000  1
  C  C82  1  0.42150000  0.44310000  0.06020000  1
  C  C83  1  0.42290000  0.67540000  0.89770000  1
  C  C84  1  0.42540000  0.71100000  0.80840000  1
  C  C85  1  0.46060000  0.58370000  0.94920000  1
  C  C86  1  0.53940000  0.41630000  0.05080000  1
  C  C87  1  0.57460000  0.28900000  0.19160000  1
  C  C88  1  0.57710000  0.32460000  0.10230000  1
  C  C89  1  0.57850000  0.55690000  0.93980000  1
  C  C90  1  0.59190000  0.16390000  0.33320000  1
  C  C91  1  0.60490000  0.20270000  0.23700000  1
  C  C92  1  0.61300000  0.27040000  0.05800000  1
  C  C93  1  0.61870000  0.47280000  0.99180000  1
  C  C94  1  0.64100000  0.15150000  0.19110000  1
  C  C95  1  0.64840000  0.18470000  0.10170000  1
  C  C96  1  0.66360000  0.61180000  0.87810000  1
  C  C97  1  0.68740000  0.13270000  0.04950000  1
  C  C98  1  0.74100000  0.44700000  0.98330000  1
  C  C99  1  0.77100000  0.84820000  0.49290000  1
  C  C100  1  0.77410000  0.14940000  0.51800000  1
  C  C101  1  0.77540000  0.58370000  0.86730000  1
  C  C102  1  0.80880000  0.70500000  0.73500000  1
  C  C103  1  0.81720000  0.50090000  0.92310000  1
  C  C104  1  0.83210000  0.43440000  0.21120000  1
  C  C105  1  0.88240000  0.76570000  0.18460000  1
  C  C106  1  0.88740000  0.52950000  0.28150000  1
  C  C107  1  0.88960000  0.80550000  0.49020000  1
  C  C108  1  0.89110000  0.19270000  0.51690000  1
  C  C109  1  0.89180000  0.27830000  0.51280000  1
  C  C110  1  0.89180000  0.72040000  0.49380000  1
  C  C111  1  0.89300000  0.61790000  0.27590000  1
  C  C112  1  0.92120000  0.46480000  0.35430000  1
  C  C113  1  0.93040000  0.63460000  0.34460000  1
  C  C114  1  0.96210000  0.47960000  0.42880000  1
  C  C115  1  0.96490000  0.56900000  0.42390000  1
  C  C116  1  0.97530000  0.39680000  0.96300000  1
  C  C117  1  0.99790000  0.41430000  0.50360000  1
  C  C118  1  0.99940000  0.84820000  0.48500000  1
  C  C119  1  0.99960000  0.32260000  0.50790000  1
  O  O120  1  0.06650000  0.51810000  0.09000000  1
  O  O121  1  0.13350000  0.32280000  0.80290000  1
  O  O122  1  0.14270000  0.37170000  0.19350000  1
  O  O123  1  0.15700000  0.47900000  0.79150000  1
  O  O124  1  0.22330000  0.92800000  0.47540000  1
  O  O125  1  0.23010000  0.06977000  0.53390000  1
  O  O126  1  0.28310000  0.94700000  0.90650000  1
  O  O127  1  0.30090000  0.83410000  0.02900000  1
  O  O128  1  0.31710000  0.20051000  0.47600000  1
  O  O129  1  0.31890000  0.80585000  0.48530000  1
  O  O130  1  0.35680000  0.90845000  0.62862000  1
  O  O131  1  0.47010000  0.79492000  0.63160000  1
  O  O132  1  0.49760000  0.06007000  0.53487000  1
  O  O133  1  0.50240000  0.93993000  0.46513000  1
  O  O134  1  0.52990000  0.20508000  0.36840000  1
  O  O135  1  0.64320000  0.09155000  0.37138000  1
  O  O136  1  0.68110000  0.19415000  0.51470000  1
  O  O137  1  0.68290000  0.79949000  0.52400000  1
  O  O138  1  0.69910000  0.16590000  0.97100000  1
  O  O139  1  0.71690000  0.05300000  0.09350000  1
  O  O140  1  0.76990000  0.93023000  0.46610000  1
  O  O141  1  0.77670000  0.07200000  0.52460000  1
  O  O142  1  0.84300000  0.52100000  0.20850000  1
  O  O143  1  0.85730000  0.62830000  0.80650000  1
  O  O144  1  0.86650000  0.67720000  0.19710000  1
  O  O145  1  0.93350000  0.48190000  0.91000000  1
