# generated using pymatgen
data_Fe3P4H4(CO6)3
_symmetry_space_group_name_H-M   'P 1'
_cell_length_a   8.47380000
_cell_length_b   16.21480000
_cell_length_c   16.68530000
_cell_angle_alpha   90.00000000
_cell_angle_beta   90.00000000
_cell_angle_gamma   95.91900000
_symmetry_Int_Tables_number   1
_chemical_formula_structural   Fe3P4H4(CO6)3
_chemical_formula_sum   'Fe12 P16 H16 C12 O72'
_cell_volume   2280.35397231
_cell_formula_units_Z   4
loop_
 _symmetry_equiv_pos_site_id
 _symmetry_equiv_pos_as_xyz
  1  'x, y, z'
loop_
 _atom_site_type_symbol
 _atom_site_label
 _atom_site_symmetry_multiplicity
 _atom_site_fract_x
 _atom_site_fract_y
 _atom_site_fract_z
 _atom_site_occupancy
  Fe  Fe0  1  0.99060000  0.92182000  0.64865000  1
  Fe  Fe1  1  0.97864000  0.22481000  0.87146000  1
  Fe  Fe2  1  0.95378000  0.28007000  0.61207000  1
  Fe  Fe3  1  0.54622000  0.21993000  0.11207000  1
  Fe  Fe4  1  0.52136000  0.27519000  0.37146000  1
  Fe  Fe5  1  0.50940000  0.57818000  0.14865000  1
  Fe  Fe6  1  0.49060000  0.42182000  0.85135000  1
  Fe  Fe7  1  0.47864000  0.72481000  0.62854000  1
  Fe  Fe8  1  0.45378000  0.78007000  0.88793000  1
  Fe  Fe9  1  0.04622000  0.71993000  0.38793000  1
  Fe  Fe10  1  0.02136000  0.77519000  0.12854000  1
  Fe  Fe11  1  0.00940000  0.07818000  0.35135000  1
  P  P12  1  0.98183000  0.10932000  0.71463000  1
  P  P13  1  0.81365000  0.76918000  0.53488000  1
  P  P14  1  0.80155000  0.66253000  0.24924000  1
  P  P15  1  0.80060000  0.20784000  0.26416000  1
  P  P16  1  0.69940000  0.29216000  0.76416000  1
  P  P17  1  0.69845000  0.83747000  0.74924000  1
  P  P18  1  0.68635000  0.73082000  0.03488000  1
  P  P19  1  0.51817000  0.39068000  0.21463000  1
  P  P20  1  0.48183000  0.60932000  0.78537000  1
  P  P21  1  0.31365000  0.26918000  0.96512000  1
  P  P22  1  0.30155000  0.16253000  0.25076000  1
  P  P23  1  0.30060000  0.70784000  0.23584000  1
  P  P24  1  0.19940000  0.79216000  0.73584000  1
  P  P25  1  0.19845000  0.33747000  0.75076000  1
  P  P26  1  0.18635000  0.23082000  0.46512000  1
  P  P27  1  0.01817000  0.89068000  0.28537000  1
  H  H28  1  0.90380000  0.23460000  0.24670000  1
  H  H29  1  0.86670000  0.09520000  0.71210000  1
  H  H30  1  0.76960000  0.80940000  0.49970000  1
  H  H31  1  0.75190000  0.78670000  0.75210000  1
  H  H32  1  0.74810000  0.71330000  0.25210000  1
  H  H33  1  0.73040000  0.69060000  0.99970000  1
  H  H34  1  0.63330000  0.40480000  0.21210000  1
  H  H35  1  0.59620000  0.26540000  0.74670000  1
  H  H36  1  0.40380000  0.73460000  0.25330000  1
  H  H37  1  0.36670000  0.59520000  0.78790000  1
  H  H38  1  0.26960000  0.30940000  0.00030000  1
  H  H39  1  0.25190000  0.28670000  0.74790000  1
  H  H40  1  0.24810000  0.21330000  0.24790000  1
  H  H41  1  0.23040000  0.19060000  0.50030000  1
  H  H42  1  0.13330000  0.90480000  0.28790000  1
  H  H43  1  0.09620000  0.76540000  0.75330000  1
  C  C44  1  0.91180000  0.00735000  0.50470000  1
  C  C45  1  0.80050000  0.26620000  0.00530000  1
  C  C46  1  0.76800000  0.17140000  0.99710000  1
  C  C47  1  0.73200000  0.32860000  0.49710000  1
  C  C48  1  0.69950000  0.23380000  0.50530000  1
  C  C49  1  0.58820000  0.49265000  0.00470000  1
  C  C50  1  0.41180000  0.50735000  0.99530000  1
  C  C51  1  0.30050000  0.76620000  0.49470000  1
  C  C52  1  0.26800000  0.67140000  0.50290000  1
  C  C53  1  0.23200000  0.82860000  0.00290000  1
  C  C54  1  0.19950000  0.73380000  0.99470000  1
  C  C55  1  0.08820000  0.99265000  0.49530000  1
  O  O56  1  0.97460000  0.86495000  0.19969000  1
  O  O57  1  0.97390000  0.82036000  0.34365000  1
  O  O58  1  0.93900000  0.96742000  0.30763000  1
  O  O59  1  0.92600000  0.67393000  0.18325000  1
  O  O60  1  0.91330000  0.81689000  0.59837000  1
  O  O61  1  0.91240000  0.71646000  0.48385000  1
  O  O62  1  0.90460000  0.30164000  0.95968000  1
  O  O63  1  0.87560000  0.64918000  0.33088000  1
  O  O64  1  0.85290000  0.13809000  0.94694000  1
  O  O65  1  0.85280000  0.04403000  0.44770000  1
  O  O66  1  0.84360000  0.98112000  0.56750000  1
  O  O67  1  0.83720000  0.36431000  0.54039000  1
  O  O68  1  0.83160000  0.12548000  0.30243000  1
  O  O69  1  0.82380000  0.90963000  0.73060000  1
  O  O70  1  0.82370000  0.78673000  0.07030000  1
  O  O71  1  0.79840000  0.30767000  0.68963000  1
  O  O72  1  0.77760000  0.19954000  0.55651000  1
  O  O73  1  0.76720000  0.23272000  0.82136000  1
  O  O74  1  0.73280000  0.26728000  0.32136000  1
  O  O75  1  0.72240000  0.30046000  0.05651000  1
  O  O76  1  0.70160000  0.19233000  0.18963000  1
  O  O77  1  0.67630000  0.71327000  0.57030000  1
  O  O78  1  0.67620000  0.59037000  0.23060000  1
  O  O79  1  0.66840000  0.37452000  0.80243000  1
  O  O80  1  0.66280000  0.13569000  0.04039000  1
  O  O81  1  0.65640000  0.51888000  0.06750000  1
  O  O82  1  0.64720000  0.45597000  0.94770000  1
  O  O83  1  0.64710000  0.36191000  0.44694000  1
  O  O84  1  0.62440000  0.85082000  0.83088000  1
  O  O85  1  0.59540000  0.19836000  0.45968000  1
  O  O86  1  0.58760000  0.78354000  0.98385000  1
  O  O87  1  0.58670000  0.68311000  0.09837000  1
  O  O88  1  0.57400000  0.82607000  0.68325000  1
  O  O89  1  0.56100000  0.53258000  0.80763000  1
  O  O90  1  0.52610000  0.67964000  0.84365000  1
  O  O91  1  0.52540000  0.63505000  0.69969000  1
  O  O92  1  0.47460000  0.36495000  0.30031000  1
  O  O93  1  0.47390000  0.32036000  0.15635000  1
  O  O94  1  0.43900000  0.46742000  0.19237000  1
  O  O95  1  0.42600000  0.17393000  0.31675000  1
  O  O96  1  0.41330000  0.31689000  0.90163000  1
  O  O97  1  0.41240000  0.21646000  0.01615000  1
  O  O98  1  0.40460000  0.80164000  0.54032000  1
  O  O99  1  0.37560000  0.14918000  0.16912000  1
  O  O100  1  0.35290000  0.63809000  0.55306000  1
  O  O101  1  0.35280000  0.54403000  0.05230000  1
  O  O102  1  0.34360000  0.48112000  0.93250000  1
  O  O103  1  0.33720000  0.86431000  0.95961000  1
  O  O104  1  0.33160000  0.62548000  0.19757000  1
  O  O105  1  0.32380000  0.40963000  0.76940000  1
  O  O106  1  0.32370000  0.28673000  0.42970000  1
  O  O107  1  0.29840000  0.80767000  0.81037000  1
  O  O108  1  0.27760000  0.69954000  0.94349000  1
  O  O109  1  0.26720000  0.73272000  0.67864000  1
  O  O110  1  0.23280000  0.76728000  0.17864000  1
  O  O111  1  0.22240000  0.80046000  0.44349000  1
  O  O112  1  0.20160000  0.69233000  0.31037000  1
  O  O113  1  0.17630000  0.21327000  0.92970000  1
  O  O114  1  0.17620000  0.09037000  0.26940000  1
  O  O115  1  0.16840000  0.87452000  0.69757000  1
  O  O116  1  0.16280000  0.63569000  0.45961000  1
  O  O117  1  0.15640000  0.01888000  0.43250000  1
  O  O118  1  0.14720000  0.95597000  0.55230000  1
  O  O119  1  0.14710000  0.86191000  0.05306000  1
  O  O120  1  0.12440000  0.35082000  0.66912000  1
  O  O121  1  0.09540000  0.69836000  0.04032000  1
  O  O122  1  0.08760000  0.28354000  0.51615000  1
  O  O123  1  0.08670000  0.18311000  0.40163000  1
  O  O124  1  0.07400000  0.32607000  0.81675000  1
  O  O125  1  0.06100000  0.03258000  0.69237000  1
  O  O126  1  0.02610000  0.17964000  0.65635000  1
  O  O127  1  0.02540000  0.13505000  0.80031000  1
