# generated using pymatgen
data_Dy3H25C52N9O20
_symmetry_space_group_name_H-M   'P 1'
_cell_length_a   15.15890000
_cell_length_b   16.86090000
_cell_length_c   16.97000000
_cell_angle_alpha   110.90200000
_cell_angle_beta   92.49000000
_cell_angle_gamma   98.55200000
_symmetry_Int_Tables_number   1
_chemical_formula_structural   Dy3H25C52N9O20
_chemical_formula_sum   'Dy6 H50 C104 N18 O40'
_cell_volume   3984.99851345
_cell_formula_units_Z   2
loop_
 _symmetry_equiv_pos_site_id
 _symmetry_equiv_pos_as_xyz
  1  'x, y, z'
loop_
 _atom_site_type_symbol
 _atom_site_label
 _atom_site_symmetry_multiplicity
 _atom_site_fract_x
 _atom_site_fract_y
 _atom_site_fract_z
 _atom_site_occupancy
  Dy  Dy0  1  0.01232000  0.86119000  0.14583000  1
  Dy  Dy1  1  0.04984000  0.02928000  0.61866000  1
  Dy  Dy2  1  0.05844000  0.62189000  0.02839000  1
  Dy  Dy3  1  0.94156000  0.37811000  0.97161000  1
  Dy  Dy4  1  0.95016000  0.97072000  0.38134000  1
  Dy  Dy5  1  0.98768000  0.13881000  0.85417000  1
  H  H6  1  0.05040000  0.40450000  0.24730000  1
  H  H7  1  0.05510000  0.22950000  0.52180000  1
  H  H8  1  0.07180000  0.66000000  0.29290000  1
  H  H9  1  0.08000000  0.43600000  0.39150000  1
  H  H10  1  0.08070000  0.92230000  0.92260000  1
  H  H11  1  0.08130000  0.70820000  0.56450000  1
  H  H12  1  0.09090000  0.32320000  0.83330000  1
  H  H13  1  0.09260000  0.83460000  0.32090000  1
  H  H14  1  0.09820000  0.69170000  0.43840000  1
  H  H15  1  0.10490000  0.82220000  0.67080000  1
  H  H16  1  0.12640000  0.67730000  0.81570000  1
  H  H17  1  0.13810000  0.41510000  0.09060000  1
  H  H18  1  0.15880000  0.09430000  0.42180000  1
  H  H19  1  0.26260000  0.52290000  0.15720000  1
  H  H20  1  0.27810000  0.15920000  0.52780000  1
  H  H21  1  0.30200000  0.25210000  0.96960000  1
  H  H22  1  0.31070000  0.91170000  0.49380000  1
  H  H23  1  0.32160000  0.49610000  0.91580000  1
  H  H24  1  0.32690000  0.25360000  0.75560000  1
  H  H25  1  0.32720000  0.75370000  0.25240000  1
  H  H26  1  0.32770000  0.97990000  0.25720000  1
  H  H27  1  0.42610000  0.35860000  0.03540000  1
  H  H28  1  0.44700000  0.04310000  0.36200000  1
  H  H29  1  0.44850000  0.91330000  0.52240000  1
  H  H30  1  0.46050000  0.52840000  0.91020000  1
  H  H31  1  0.53950000  0.47160000  0.08980000  1
  H  H32  1  0.55150000  0.08670000  0.47760000  1
  H  H33  1  0.55300000  0.95690000  0.63800000  1
  H  H34  1  0.57390000  0.64140000  0.96460000  1
  H  H35  1  0.67230000  0.02010000  0.74280000  1
  H  H36  1  0.67280000  0.24630000  0.74760000  1
  H  H37  1  0.67310000  0.74640000  0.24440000  1
  H  H38  1  0.67840000  0.50390000  0.08420000  1
  H  H39  1  0.68930000  0.08830000  0.50620000  1
  H  H40  1  0.69800000  0.74790000  0.03040000  1
  H  H41  1  0.72190000  0.84080000  0.47220000  1
  H  H42  1  0.73740000  0.47710000  0.84280000  1
  H  H43  1  0.84120000  0.90570000  0.57820000  1
  H  H44  1  0.86190000  0.58490000  0.90940000  1
  H  H45  1  0.87360000  0.32270000  0.18430000  1
  H  H46  1  0.89510000  0.17780000  0.32920000  1
  H  H47  1  0.90180000  0.30830000  0.56160000  1
  H  H48  1  0.90740000  0.16540000  0.67910000  1
  H  H49  1  0.90910000  0.67680000  0.16670000  1
  H  H50  1  0.91870000  0.29180000  0.43550000  1
  H  H51  1  0.91930000  0.07770000  0.07740000  1
  H  H52  1  0.92000000  0.56400000  0.60850000  1
  H  H53  1  0.92820000  0.34000000  0.70710000  1
  H  H54  1  0.94490000  0.77050000  0.47820000  1
  H  H55  1  0.94960000  0.59550000  0.75270000  1
  C  C56  1  0.03820000  0.51360000  0.16510000  1
  C  C57  1  0.04830000  0.16980000  0.51250000  1
  C  C58  1  0.05550000  0.52890000  0.25640000  1
  C  C59  1  0.05970000  0.46260000  0.28590000  1
  C  C60  1  0.07210000  0.61450000  0.31350000  1
  C  C61  1  0.07340000  0.96610000  0.78720000  1
  C  C62  1  0.07740000  0.48150000  0.37130000  1
  C  C63  1  0.08880000  0.63350000  0.39980000  1
  C  C64  1  0.09070000  0.87560000  0.87420000  1
  C  C65  1  0.09140000  0.88380000  0.79530000  1
  C  C66  1  0.09160000  0.56750000  0.42940000  1
  C  C67  1  0.10050000  0.79040000  0.96620000  1
  C  C68  1  0.10420000  0.81600000  0.72420000  1
  C  C69  1  0.10450000  0.79970000  0.88170000  1
  C  C70  1  0.10920000  0.58860000  0.52180000  1
  C  C71  1  0.11630000  0.73720000  0.73130000  1
  C  C72  1  0.11720000  0.72970000  0.81020000  1
  C  C73  1  0.12140000  0.66510000  0.65360000  1
  C  C74  1  0.12880000  0.26070000  0.97030000  1
  C  C75  1  0.14690000  0.93850000  0.48310000  1
  C  C76  1  0.15180000  0.48660000  0.93940000  1
  C  C77  1  0.15300000  0.97840000  0.26680000  1
  C  C78  1  0.15350000  0.18470000  0.73920000  1
  C  C79  1  0.15410000  0.83500000  0.33480000  1
  C  C80  1  0.15420000  0.33700000  0.83500000  1
  C  C81  1  0.16300000  0.74340000  0.18340000  1
  C  C82  1  0.19420000  0.88160000  0.41680000  1
  C  C83  1  0.19680000  0.40410000  0.07870000  1
  C  C84  1  0.19850000  0.41960000  0.88400000  1
  C  C85  1  0.20110000  0.27480000  0.78870000  1
  C  C86  1  0.20380000  0.78870000  0.27250000  1
  C  C87  1  0.20780000  0.32330000  0.02150000  1
  C  C88  1  0.21750000  0.08340000  0.41020000  1
  C  C89  1  0.23110000  0.02860000  0.32990000  1
  C  C90  1  0.27070000  0.46850000  0.11820000  1
  C  C91  1  0.28350000  0.87980000  0.43760000  1
  C  C92  1  0.28800000  0.12200000  0.47320000  1
  C  C93  1  0.29080000  0.43950000  0.88320000  1
  C  C94  1  0.29360000  0.78630000  0.29420000  1
  C  C95  1  0.29380000  0.30730000  0.00680000  1
  C  C96  1  0.29460000  0.29590000  0.78830000  1
  C  C97  1  0.31750000  0.01530000  0.31250000  1
  C  C98  1  0.33370000  0.83170000  0.37700000  1
  C  C99  1  0.33870000  0.37780000  0.83540000  1
  C  C100  1  0.35630000  0.45280000  0.10030000  1
  C  C101  1  0.36750000  0.37060000  0.04560000  1
  C  C102  1  0.37470000  0.10550000  0.45550000  1
  C  C103  1  0.38820000  0.05310000  0.37460000  1
  C  C104  1  0.42640000  0.83080000  0.40190000  1
  C  C105  1  0.43260000  0.52390000  0.13580000  1
  C  C106  1  0.43590000  0.40350000  0.83780000  1
  C  C107  1  0.44830000  0.14200000  0.52460000  1
  C  C108  1  0.55170000  0.85800000  0.47540000  1
  C  C109  1  0.56410000  0.59650000  0.16220000  1
  C  C110  1  0.56740000  0.47610000  0.86420000  1
  C  C111  1  0.57360000  0.16920000  0.59810000  1
  C  C112  1  0.61180000  0.94690000  0.62540000  1
  C  C113  1  0.62530000  0.89450000  0.54450000  1
  C  C114  1  0.63250000  0.62940000  0.95440000  1
  C  C115  1  0.64370000  0.54720000  0.89970000  1
  C  C116  1  0.66130000  0.62220000  0.16460000  1
  C  C117  1  0.66630000  0.16830000  0.62300000  1
  C  C118  1  0.68250000  0.98470000  0.68750000  1
  C  C119  1  0.70540000  0.70410000  0.21170000  1
  C  C120  1  0.70620000  0.69270000  0.99320000  1
  C  C121  1  0.70640000  0.21370000  0.70580000  1
  C  C122  1  0.70920000  0.56050000  0.11680000  1
  C  C123  1  0.71200000  0.87800000  0.52680000  1
  C  C124  1  0.71650000  0.12020000  0.56240000  1
  C  C125  1  0.72930000  0.53150000  0.88180000  1
  C  C126  1  0.76890000  0.97140000  0.67010000  1
  C  C127  1  0.78250000  0.91660000  0.58980000  1
  C  C128  1  0.79220000  0.67670000  0.97850000  1
  C  C129  1  0.79620000  0.21130000  0.72750000  1
  C  C130  1  0.79890000  0.72520000  0.21130000  1
  C  C131  1  0.80150000  0.58040000  0.11600000  1
  C  C132  1  0.80320000  0.59590000  0.92130000  1
  C  C133  1  0.80580000  0.11840000  0.58320000  1
  C  C134  1  0.83700000  0.25660000  0.81660000  1
  C  C135  1  0.84580000  0.66300000  0.16500000  1
  C  C136  1  0.84590000  0.16500000  0.66520000  1
  C  C137  1  0.84650000  0.81530000  0.26080000  1
  C  C138  1  0.84700000  0.02160000  0.73320000  1
  C  C139  1  0.84820000  0.51340000  0.06060000  1
  C  C140  1  0.85310000  0.06150000  0.51690000  1
  C  C141  1  0.87120000  0.73930000  0.02970000  1
  C  C142  1  0.87860000  0.33490000  0.34640000  1
  C  C143  1  0.88280000  0.27030000  0.18980000  1
  C  C144  1  0.88370000  0.26280000  0.26870000  1
  C  C145  1  0.89080000  0.41140000  0.47820000  1
  C  C146  1  0.89550000  0.20030000  0.11830000  1
  C  C147  1  0.89580000  0.18400000  0.27580000  1
  C  C148  1  0.89950000  0.20960000  0.03380000  1
  C  C149  1  0.90840000  0.43250000  0.57060000  1
  C  C150  1  0.90860000  0.11620000  0.20470000  1
  C  C151  1  0.90930000  0.12440000  0.12580000  1
  C  C152  1  0.91120000  0.36650000  0.60020000  1
  C  C153  1  0.92260000  0.51850000  0.62870000  1
  C  C154  1  0.92660000  0.03390000  0.21280000  1
  C  C155  1  0.92790000  0.38550000  0.68650000  1
  C  C156  1  0.94030000  0.53740000  0.71410000  1
  C  C157  1  0.94450000  0.47110000  0.74360000  1
  C  C158  1  0.95170000  0.83020000  0.48750000  1
  C  C159  1  0.96180000  0.48640000  0.83490000  1
  N  N160  1  0.09890000  0.66600000  0.57650000  1
  N  N161  1  0.13720000  0.54330000  0.56210000  1
  N  N162  1  0.14400000  0.59130000  0.64850000  1
  N  N163  1  0.42240000  0.60180000  0.18310000  1
  N  N164  1  0.43820000  0.19790000  0.60050000  1
  N  N165  1  0.46970000  0.87750000  0.47890000  1
  N  N166  1  0.48050000  0.78590000  0.35320000  1
  N  N167  1  0.48150000  0.48230000  0.87950000  1
  N  N168  1  0.49160000  0.35210000  0.79890000  1
  N  N169  1  0.50840000  0.64790000  0.20110000  1
  N  N170  1  0.51850000  0.51770000  0.12050000  1
  N  N171  1  0.51950000  0.21410000  0.64680000  1
  N  N172  1  0.53030000  0.12250000  0.52110000  1
  N  N173  1  0.56180000  0.80210000  0.39950000  1
  N  N174  1  0.57760000  0.39820000  0.81690000  1
  N  N175  1  0.85600000  0.40870000  0.35150000  1
  N  N176  1  0.86280000  0.45670000  0.43790000  1
  N  N177  1  0.90110000  0.33400000  0.42350000  1
  O  O178  1  0.00170000  0.56050000  0.88410000  1
  O  O179  1  0.01260000  0.11750000  0.44030000  1
  O  O180  1  0.03550000  0.01430000  0.84500000  1
  O  O181  1  0.05260000  0.28540000  0.96540000  1
  O  O182  1  0.06670000  0.57540000  0.14220000  1
  O  O183  1  0.07000000  0.16440000  0.74877000  1
  O  O184  1  0.07320000  0.97110000  0.29087000  1
  O  O185  1  0.07410000  0.85070000  0.02388000  1
  O  O186  1  0.07590000  0.15030000  0.57340000  1
  O  O187  1  0.07660000  0.96460000  0.46170000  1
  O  O188  1  0.07790000  0.46350000  0.96650000  1
  O  O189  1  0.08210000  0.75340000  0.16426000  1
  O  O190  1  0.09720000  0.98030000  0.72210000  1
  O  O191  1  0.12130000  0.72400000  0.97490000  1
  O  O192  1  0.13660000  0.18420000  0.92850000  1
  O  O193  1  0.16430000  0.93920000  0.19060000  1
  O  O194  1  0.17500000  0.96250000  0.56000000  1
  O  O195  1  0.18430000  0.56470000  0.96040000  1
  O  O196  1  0.19240000  0.13110000  0.68990000  1
  O  O197  1  0.20240000  0.69560000  0.12800000  1
  O  O198  1  0.79760000  0.30440000  0.87200000  1
  O  O199  1  0.80760000  0.86890000  0.31010000  1
  O  O200  1  0.81570000  0.43530000  0.03960000  1
  O  O201  1  0.82500000  0.03750000  0.44000000  1
  O  O202  1  0.83570000  0.06080000  0.80940000  1
  O  O203  1  0.86340000  0.81580000  0.07150000  1
  O  O204  1  0.87870000  0.27600000  0.02510000  1
  O  O205  1  0.90280000  0.01970000  0.27790000  1
  O  O206  1  0.91790000  0.24660000  0.83574000  1
  O  O207  1  0.92210000  0.53650000  0.03350000  1
  O  O208  1  0.92340000  0.03540000  0.53830000  1
  O  O209  1  0.92410000  0.84970000  0.42660000  1
  O  O210  1  0.92590000  0.14930000  0.97612000  1
  O  O211  1  0.92680000  0.02890000  0.70913000  1
  O  O212  1  0.93000000  0.83560000  0.25123000  1
  O  O213  1  0.93330000  0.42460000  0.85780000  1
  O  O214  1  0.94740000  0.71460000  0.03460000  1
  O  O215  1  0.96450000  0.98570000  0.15500000  1
  O  O216  1  0.98740000  0.88250000  0.55970000  1
  O  O217  1  0.99830000  0.43950000  0.11590000  1
