# generated using pymatgen
data_CuH8C12(NO2)2
_symmetry_space_group_name_H-M   'P 1'
_cell_length_a   15.76400000
_cell_length_b   15.76400000
_cell_length_c   16.91800000
_cell_angle_alpha   90.00000000
_cell_angle_beta   90.00000000
_cell_angle_gamma   120.00000000
_symmetry_Int_Tables_number   1
_chemical_formula_structural   CuH8C12(NO2)2
_chemical_formula_sum   'Cu9 H72 C108 N18 O36'
_cell_volume   3640.93147027
_cell_formula_units_Z   9
loop_
 _symmetry_equiv_pos_site_id
 _symmetry_equiv_pos_as_xyz
  1  'x, y, z'
loop_
 _atom_site_type_symbol
 _atom_site_label
 _atom_site_symmetry_multiplicity
 _atom_site_fract_x
 _atom_site_fract_y
 _atom_site_fract_z
 _atom_site_occupancy
  Cu  Cu0  1  0.83276000  0.63898000  0.78387000  1
  Cu  Cu1  1  0.80622000  0.16724000  0.45054000  1
  Cu  Cu2  1  0.69451000  0.84722000  0.11657000  1
  Cu  Cu3  1  0.49964000  0.52723000  0.45526000  1
  Cu  Cu4  1  0.47277000  0.97241000  0.78859000  1
  Cu  Cu5  1  0.36102000  0.19378000  0.11720000  1
  Cu  Cu6  1  0.15278000  0.84729000  0.44990000  1
  Cu  Cu7  1  0.15271000  0.30549000  0.78323000  1
  Cu  Cu8  1  0.02759000  0.50036000  0.12192000  1
  H  H9  1  0.99200000  0.72880000  0.65830000  1
  H  H10  1  0.96420000  0.23150000  0.57547000  1
  H  H11  1  0.94720000  0.73310000  0.49423000  1
  H  H12  1  0.94510000  0.54130000  0.82970000  1
  H  H13  1  0.93930000  0.18430000  0.75033000  1
  H  H14  1  0.93620000  0.34360000  0.24813000  1
  H  H15  1  0.93180000  0.56720000  0.99863000  1
  H  H16  1  0.91960000  0.37780000  0.40927000  1
  H  H17  1  0.84190000  0.88160000  0.55557000  1
  H  H18  1  0.83500000  0.62750000  0.12637000  1
  H  H19  1  0.81570000  0.75500000  0.08367000  1
  H  H20  1  0.80450000  0.59080000  0.46683000  1
  H  H21  1  0.80250000  0.49530000  0.35763000  1
  H  H22  1  0.79730000  0.93480000  0.67540000  1
  H  H23  1  0.79250000  0.16500000  0.79303000  1
  H  H24  1  0.78670000  0.25500000  0.90083000  1
  H  H25  1  0.78630000  0.19550000  0.13350000  1
  H  H26  1  0.78590000  0.05280000  0.16090000  1
  H  H27  1  0.76850000  0.73270000  0.90880000  1
  H  H28  1  0.75080000  0.87940000  0.44457000  1
  H  H29  1  0.74500000  0.53170000  0.23417000  1
  H  H30  1  0.73680000  0.00800000  0.32497000  1
  H  H31  1  0.69660000  0.83840000  0.78120000  1
  H  H32  1  0.69280000  0.19750000  0.02430000  1
  H  H33  1  0.65640000  0.59260000  0.58147000  1
  H  H34  1  0.63540000  0.06820000  0.66530000  1
  H  H35  1  0.62220000  0.54180000  0.74260000  1
  H  H36  1  0.61380000  0.73380000  0.40787000  1
  H  H37  1  0.60770000  0.68790000  0.24217000  1
  H  H38  1  0.60280000  0.91100000  0.98830000  1
  H  H39  1  0.59620000  0.05490000  0.49637000  1
  H  H40  1  0.57770000  0.86230000  0.82520000  1
  H  H41  1  0.50470000  0.30720000  0.69097000  1
  H  H42  1  0.48290000  0.96050000  0.12313000  1
  H  H43  1  0.47860000  0.62060000  0.88690000  1
  H  H44  1  0.47760000  0.51710000  0.78980000  1
  H  H45  1  0.46830000  0.21330000  0.56750000  1
  H  H46  1  0.46470000  0.54950000  0.12533000  1
  H  H47  1  0.45870000  0.40380000  0.16303000  1
  H  H48  1  0.45820000  0.08040000  0.07593000  1
  H  H49  1  0.45050000  0.91520000  0.45867000  1
  H  H50  1  0.44640000  0.83080000  0.34627000  1
  H  H51  1  0.43280000  0.36460000  0.33197000  1
  H  H52  1  0.40920000  0.21370000  0.80017000  1
  H  H53  1  0.40740000  0.06380000  0.91480000  1
  H  H54  1  0.38440000  0.55360000  0.01293000  1
  H  H55  1  0.37940000  0.85800000  0.22023000  1
  H  H56  1  0.37250000  0.20750000  0.45970000  1
  H  H57  1  0.31210000  0.91980000  0.57550000  1
  H  H58  1  0.30820000  0.39720000  0.65497000  1
  H  H59  1  0.28460000  0.42230000  0.49187000  1
  H  H60  1  0.27120000  0.26320000  0.99163000  1
  H  H61  1  0.26730000  0.03580000  0.24213000  1
  H  H62  1  0.26690000  0.21410000  0.82757000  1
  H  H63  1  0.26620000  0.88000000  0.74120000  1
  H  H64  1  0.24500000  0.06070000  0.41700000  1
  H  H65  1  0.16920000  0.61560000  0.67960000  1
  H  H66  1  0.16160000  0.85820000  0.11453000  1
  H  H67  1  0.14200000  0.52140000  0.55357000  1
  H  H68  1  0.14180000  0.30340000  0.44787000  1
  H  H69  1  0.13770000  0.71540000  0.15853000  1
  H  H70  1  0.13750000  0.20270000  0.34207000  1
  H  H71  1  0.12860000  0.24920000  0.11123000  1
  H  H72  1  0.12060000  0.87140000  0.77790000  1
  H  H73  1  0.12000000  0.38620000  0.07453000  1
  H  H74  1  0.11840000  0.96030000  0.88890000  1
  H  H75  1  0.08900000  0.69180000  0.32163000  1
  H  H76  1  0.08480000  0.53530000  0.79200000  1
  H  H77  1  0.08020000  0.39230000  0.90883000  1
  H  H78  1  0.06520000  0.86250000  0.00873000  1
  H  H79  1  0.03970000  0.15810000  0.22223000  1
  H  H80  1  0.03950000  0.52240000  0.45647000  1
  C  C81  1  0.99320000  0.71910000  0.99213000  1
  C  C82  1  0.98270000  0.57860000  0.78560000  1
  C  C83  1  0.98100000  0.29160000  0.54987000  1
  C  C84  1  0.97910000  0.62670000  0.02283000  1
  C  C85  1  0.97650000  0.23970000  0.24583000  1
  C  C86  1  0.97620000  0.32420000  0.22043000  1
  C  C87  1  0.95470000  0.37750000  0.45487000  1
  C  C88  1  0.95000000  0.52880000  0.25603000  1
  C  C89  1  0.94740000  0.69300000  0.45243000  1
  C  C90  1  0.94660000  0.58440000  0.32863000  1
  C  C91  1  0.93840000  0.22490000  0.79143000  1
  C  C92  1  0.93540000  0.71550000  0.92023000  1
  C  C93  1  0.93360000  0.33340000  0.91513000  1
  C  C94  1  0.93350000  0.39060000  0.98793000  1
  C  C95  1  0.92160000  0.18390000  0.31853000  1
  C  C96  1  0.86160000  0.60990000  0.43593000  1
  C  C97  1  0.86080000  0.55370000  0.37173000  1
  C  C98  1  0.85150000  0.21170000  0.81803000  1
  C  C99  1  0.84780000  0.26540000  0.88143000  1
  C  C100  1  0.81610000  0.73770000  0.65187000  1
  C  C101  1  0.78830000  0.63980000  0.15137000  1
  C  C102  1  0.78660000  0.82200000  0.53897000  1
  C  C103  1  0.78010000  0.06460000  0.58690000  1
  C  C104  1  0.77510000  0.71350000  0.12477000  1
  C  C105  1  0.76030000  0.73680000  0.57917000  1
  C  C106  1  0.74830000  0.13840000  0.10260000  1
  C  C107  1  0.74560000  0.05260000  0.11910000  1
  C  C108  1  0.74460000  0.94280000  0.69330000  1
  C  C109  1  0.73460000  0.58240000  0.21477000  1
  C  C110  1  0.73210000  0.82120000  0.47377000  1
  C  C111  1  0.72590000  0.00680000  0.65880000  1
  C  C112  1  0.70840000  0.68940000  0.88320000  1
  C  C113  1  0.69290000  0.13920000  0.03840000  1
  C  C114  1  0.68570000  0.88650000  0.75690000  1
  C  C115  1  0.67720000  0.99090000  0.35147000  1
  C  C116  1  0.67580000  0.65200000  0.55377000  1
  C  C117  1  0.66660000  0.60020000  0.24847000  1
  C  C118  1  0.65420000  0.67480000  0.21777000  1
  C  C119  1  0.65080000  0.73460000  0.45247000  1
  C  C120  1  0.64760000  0.02090000  0.68950000  1
  C  C121  1  0.63930000  0.96930000  0.01830000  1
  C  C122  1  0.63780000  0.05340000  0.99530000  1
  C  C123  1  0.62250000  0.57720000  0.78820000  1
  C  C124  1  0.62170000  0.74470000  0.98310000  1
  C  C125  1  0.62060000  0.68390000  0.91070000  1
  C  C126  1  0.61580000  0.90130000  0.78200000  1
  C  C127  1  0.60940000  0.54290000  0.32127000  1
  C  C128  1  0.59590000  0.01730000  0.45227000  1
  C  C129  1  0.59140000  0.85850000  0.24867000  1
  C  C130  1  0.59060000  0.91050000  0.32347000  1
  C  C131  1  0.57880000  0.05000000  0.92270000  1
  C  C132  1  0.53800000  0.62310000  0.87230000  1
  C  C133  1  0.53740000  0.56510000  0.81300000  1
  C  C134  1  0.50860000  0.93540000  0.42887000  1
  C  C135  1  0.50660000  0.88460000  0.36387000  1
  C  C136  1  0.47120000  0.42120000  0.58937000  1
  C  C137  1  0.45710000  0.06650000  0.65460000  1
  C  C138  1  0.44630000  0.30710000  0.70507000  1
  C  C139  1  0.43490000  0.97230000  0.14633000  1
  C  C140  1  0.42680000  0.49140000  0.09553000  1
  C  C141  1  0.42280000  0.04530000  0.12153000  1
  C  C142  1  0.42140000  0.40410000  0.11893000  1
  C  C143  1  0.41760000  0.15220000  0.54810000  1
  C  C144  1  0.41560000  0.36220000  0.66197000  1
  C  C145  1  0.39980000  0.06646667  0.58180000  1
  C  C146  1  0.39010000  0.25170000  0.76927000  1
  C  C147  1  0.37800000  0.49340000  0.03053000  1
  C  C148  1  0.37690000  0.91490000  0.20563000  1
  C  C149  1  0.37330000  0.35240000  0.35617000  1
  C  C150  1  0.36020000  0.14850000  0.48470000  1
  C  C151  1  0.34800000  0.02380000  0.88710000  1
  C  C152  1  0.33000000  0.36070000  0.68497000  1
  C  C153  1  0.32520000  0.97940000  0.55110000  1
  C  C154  1  0.31990000  0.40940000  0.99013000  1
  C  C155  1  0.31610000  0.93670000  0.24403000  1
  C  C156  1  0.31370000  0.32280000  0.01813000  1
  C  C157  1  0.31060000  0.01900000  0.21653000  1
  C  C158  1  0.30700000  0.25440000  0.78577000  1
  C  C159  1  0.28650000  0.06160000  0.45810000  1
  C  C160  1  0.28550000  0.38420000  0.44867000  1
  C  C161  1  0.28450000  0.21990000  0.25357000  1
  C  C162  1  0.28090000  0.27410000  0.32547000  1
  C  C163  1  0.26710000  0.40860000  0.91533000  1
  C  C164  1  0.26540000  0.91620000  0.78580000  1
  C  C165  1  0.26320000  0.02350000  0.91250000  1
  C  C166  1  0.26230000  0.07840000  0.98520000  1
  C  C167  1  0.25530000  0.87700000  0.31643000  1
  C  C168  1  0.20080000  0.31430000  0.42357000  1
  C  C169  1  0.19820000  0.25540000  0.35997000  1
  C  C170  1  0.17880000  0.91090000  0.80710000  1
  C  C171  1  0.17800000  0.96460000  0.87230000  1
  C  C172  1  0.14150000  0.73290000  0.58200000  1
  C  C173  1  0.12300000  0.37830000  0.64977000  1
  C  C174  1  0.11540000  0.62200000  0.69720000  1
  C  C175  1  0.11350000  0.79920000  0.09023000  1
  C  C176  1  0.09870000  0.71450000  0.11533000  1
  C  C177  1  0.08950000  0.68010000  0.65680000  1
  C  C178  1  0.08910000  0.26790000  0.14043000  1
  C  C179  1  0.08510000  0.46200000  0.53897000  1
  C  C180  1  0.08380000  0.34920000  0.11913000  1
  C  C181  1  0.06460000  0.57320000  0.76220000  1
  C  C182  1  0.06330000  0.37940000  0.57737000  1
  C  C183  1  0.05720000  0.80180000  0.02663000  1
  C  C184  1  0.03540000  0.21340000  0.20563000  1
  C  C185  1  0.03070000  0.67000000  0.35163000  1
  C  C186  1  0.02770000  0.46260000  0.47967000  1
  C  C187  1  0.02060000  0.34580000  0.88443000  1
  C  C188  1  0.00910000  0.68630000  0.68480000  1
  N  N189  1  0.95610000  0.63640000  0.74610000  1
  N  N190  1  0.92710000  0.29100000  0.48977000  1
  N  N191  1  0.70900000  0.63610000  0.82310000  1
  N  N192  1  0.70360000  0.72860000  0.15627000  1
  N  N193  1  0.69030000  0.96750000  0.08100000  1
  N  N194  1  0.68030000  0.04390000  0.41277000  1
  N  N195  1  0.62160000  0.64990000  0.49337000  1
  N  N196  1  0.59170000  0.96840000  0.75150000  1
  N  N197  1  0.37670000  0.40830000  0.41817000  1
  N  N198  1  0.36390000  0.07290000  0.15643000  1
  N  N199  1  0.36360000  0.31970000  0.07943000  1
  N  N200  1  0.35010000  0.97170000  0.82670000  1
  N  N201  1  0.27720000  0.30970000  0.74767000  1
  N  N202  1  0.27140000  0.97500000  0.48960000  1
  N  N203  1  0.03250000  0.72280000  0.41433000  1
  N  N204  1  0.03160000  0.62330000  0.08483000  1
  N  N205  1  0.02830000  0.37840000  0.16003000  1
  N  N206  1  0.02500000  0.29640000  0.82293000  1
  O  O207  1  0.95280000  0.79480000  0.89223000  1
  O  O208  1  0.94120000  0.12630000  0.34913000  1
  O  O209  1  0.87370000  0.81490000  0.68247000  1
  O  O210  1  0.87020000  0.62950000  0.89373000  1
  O  O211  1  0.86960000  0.46680000  0.22683000  1
  O  O212  1  0.85660000  0.20330000  0.34323000  1
  O  O213  1  0.85460000  0.36830000  0.01963000  1
  O  O214  1  0.84200000  0.04720000  0.55890000  1
  O  O215  1  0.79670000  0.65330000  0.67657000  1
  O  O216  1  0.75930000  0.12980000  0.56040000  1
  O  O217  1  0.70620000  0.80770000  0.00860000  1
  O  O218  1  0.67800000  0.88210000  0.22597000  1
  O  O219  1  0.63170000  0.48630000  0.35297000  1
  O  O220  1  0.59720000  0.13040000  0.89350000  1
  O  O221  1  0.54670000  0.56520000  0.34727000  1
  O  O222  1  0.54220000  0.72310000  0.01200000  1
  O  O223  1  0.53320000  0.40280000  0.56017000  1
  O  O224  1  0.51620000  0.97110000  0.89710000  1
  O  O225  1  0.51370000  0.14540000  0.68630000  1
  O  O226  1  0.51180000  0.80070000  0.21877000  1
  O  O227  1  0.45490000  0.48380000  0.56377000  1
  O  O228  1  0.43480000  0.98150000  0.68060000  1
  O  O229  1  0.37050000  0.24070000  0.22707000  1
  O  O230  1  0.34670000  0.14340000  0.00990000  1
  O  O231  1  0.28890000  0.48820000  0.88543000  1
  O  O232  1  0.27690000  0.81910000  0.34533000  1
  O  O233  1  0.20520000  0.15800000  0.22557000  1
  O  O234  1  0.20410000  0.32200000  0.89263000  1
  O  O235  1  0.19930000  0.71110000  0.55210000  1
  O  O236  1  0.19230000  0.89850000  0.34193000  1
  O  O237  1  0.18510000  0.05880000  0.01580000  1
  O  O238  1  0.18090000  0.45780000  0.67867000  1
  O  O239  1  0.11790000  0.79590000  0.55930000  1
  O  O240  1  0.10150000  0.29380000  0.67527000  1
  O  O241  1  0.02890000  0.54510000  0.23043000  1
  O  O242  1  0.01850000  0.45330000  0.01393000  1
