# generated using pymatgen
data_ZnPH12(C3O2)3
_symmetry_space_group_name_H-M   'P 1'
_cell_length_a   11.52800000
_cell_length_b   11.52800000
_cell_length_c   15.16800000
_cell_angle_alpha   90.00000000
_cell_angle_beta   90.00000000
_cell_angle_gamma   120.00000000
_symmetry_Int_Tables_number   1
_chemical_formula_structural   ZnPH12(C3O2)3
_chemical_formula_sum   'Zn4 P4 H48 C36 O24'
_cell_volume   1745.68904812
_cell_formula_units_Z   4
loop_
 _symmetry_equiv_pos_site_id
 _symmetry_equiv_pos_as_xyz
  1  'x, y, z'
loop_
 _atom_site_type_symbol
 _atom_site_label
 _atom_site_symmetry_multiplicity
 _atom_site_fract_x
 _atom_site_fract_y
 _atom_site_fract_z
 _atom_site_occupancy
  Zn  Zn0  1  0.00000000  0.00000000  0.61110000  1
  Zn  Zn1  1  0.00000000  0.00000000  0.11110000  1
  Zn  Zn2  1  0.66666667  0.33333333  0.86408000  1
  Zn  Zn3  1  0.33333333  0.66666667  0.36408000  1
  P  P4  1  0.00000000  0.00000000  0.76836000  1
  P  P5  1  0.00000000  0.00000000  0.26836000  1
  P  P6  1  0.66666667  0.33333333  0.01948000  1
  P  P7  1  0.33333333  0.66666667  0.51948000  1
  H  H8  1  0.98630000  0.80140000  0.81840000  1
  H  H9  1  0.96720000  0.73220000  0.27290000  1
  H  H10  1  0.93690000  0.09510000  0.88160000  1
  H  H11  1  0.92120000  0.58120000  0.07510000  1
  H  H12  1  0.90490000  0.84180000  0.88160000  1
  H  H13  1  0.90180000  0.18790000  0.71670000  1
  H  H14  1  0.86990000  0.60540000  0.98490000  1
  H  H15  1  0.86810000  0.34570000  0.05290000  1
  H  H16  1  0.84180000  0.93690000  0.38160000  1
  H  H17  1  0.81510000  0.01370000  0.81840000  1
  H  H18  1  0.81210000  0.71390000  0.71670000  1
  H  H19  1  0.80140000  0.81510000  0.31840000  1
  H  H20  1  0.77180000  0.29070000  0.13430000  1
  H  H21  1  0.76500000  0.03280000  0.27290000  1
  H  H22  1  0.73550000  0.13010000  0.98490000  1
  H  H23  1  0.73220000  0.76500000  0.77290000  1
  H  H24  1  0.71390000  0.90180000  0.21670000  1
  H  H25  1  0.70930000  0.48110000  0.13430000  1
  H  H26  1  0.66000000  0.07880000  0.07510000  1
  H  H27  1  0.65430000  0.52240000  0.05290000  1
  H  H28  1  0.60540000  0.73550000  0.48490000  1
  H  H29  1  0.58120000  0.66000000  0.57510000  1
  H  H30  1  0.52240000  0.86810000  0.55290000  1
  H  H31  1  0.51890000  0.22820000  0.13430000  1
  H  H32  1  0.48110000  0.77180000  0.63430000  1
  H  H33  1  0.47760000  0.13190000  0.05290000  1
  H  H34  1  0.41880000  0.34000000  0.07510000  1
  H  H35  1  0.39460000  0.26450000  0.98490000  1
  H  H36  1  0.34570000  0.47760000  0.55290000  1
  H  H37  1  0.34000000  0.92120000  0.57510000  1
  H  H38  1  0.29070000  0.51890000  0.63430000  1
  H  H39  1  0.28610000  0.09820000  0.71670000  1
  H  H40  1  0.26780000  0.23500000  0.27290000  1
  H  H41  1  0.26450000  0.86990000  0.48490000  1
  H  H42  1  0.23500000  0.96720000  0.77290000  1
  H  H43  1  0.22820000  0.70930000  0.63430000  1
  H  H44  1  0.19860000  0.18490000  0.81840000  1
  H  H45  1  0.18790000  0.28610000  0.21670000  1
  H  H46  1  0.18490000  0.98630000  0.31840000  1
  H  H47  1  0.15820000  0.06310000  0.88160000  1
  H  H48  1  0.13190000  0.65430000  0.55290000  1
  H  H49  1  0.13010000  0.39460000  0.48490000  1
  H  H50  1  0.09820000  0.81210000  0.21670000  1
  H  H51  1  0.09510000  0.15820000  0.38160000  1
  H  H52  1  0.07880000  0.41880000  0.57510000  1
  H  H53  1  0.06310000  0.90490000  0.38160000  1
  H  H54  1  0.03280000  0.26780000  0.77290000  1
  H  H55  1  0.01370000  0.19860000  0.31840000  1
  C  C56  1  0.93690000  0.20680000  0.77630000  1
  C  C57  1  0.92290000  0.83340000  0.82020000  1
  C  C58  1  0.91050000  0.07710000  0.82020000  1
  C  C59  1  0.88420000  0.73750000  0.08060000  1
  C  C60  1  0.87240000  0.27330000  0.82700000  1
  C  C61  1  0.85740000  0.60220000  0.04830000  1
  C  C62  1  0.85330000  0.11580000  0.08060000  1
  C  C63  1  0.83340000  0.91050000  0.32020000  1
  C  C64  1  0.79320000  0.73010000  0.77630000  1
  C  C65  1  0.77670000  0.28360000  0.07080000  1
  C  C66  1  0.74480000  0.14260000  0.04830000  1
  C  C67  1  0.73750000  0.85330000  0.58060000  1
  C  C68  1  0.73010000  0.93690000  0.27630000  1
  C  C69  1  0.72670000  0.59910000  0.82700000  1
  C  C70  1  0.71640000  0.49310000  0.07080000  1
  C  C71  1  0.60220000  0.74480000  0.54830000  1
  C  C72  1  0.59910000  0.87240000  0.32700000  1
  C  C73  1  0.50690000  0.22330000  0.07080000  1
  C  C74  1  0.49310000  0.77670000  0.57080000  1
  C  C75  1  0.40090000  0.12760000  0.82700000  1
  C  C76  1  0.39780000  0.25520000  0.04830000  1
  C  C77  1  0.28360000  0.50690000  0.57080000  1
  C  C78  1  0.27330000  0.40090000  0.32700000  1
  C  C79  1  0.26990000  0.06310000  0.77630000  1
  C  C80  1  0.26250000  0.14670000  0.08060000  1
  C  C81  1  0.25520000  0.85740000  0.54830000  1
  C  C82  1  0.22330000  0.71640000  0.57080000  1
  C  C83  1  0.20680000  0.26990000  0.27630000  1
  C  C84  1  0.16660000  0.08950000  0.82020000  1
  C  C85  1  0.14670000  0.88420000  0.58060000  1
  C  C86  1  0.14260000  0.39780000  0.54830000  1
  C  C87  1  0.12760000  0.72670000  0.32700000  1
  C  C88  1  0.11580000  0.26250000  0.58060000  1
  C  C89  1  0.08950000  0.92290000  0.32020000  1
  C  C90  1  0.07710000  0.16660000  0.32020000  1
  C  C91  1  0.06310000  0.79320000  0.27630000  1
  O  O92  1  0.99060000  0.83960000  0.05180000  1
  O  O93  1  0.93790000  0.19150000  0.13450000  1
  O  O94  1  0.93360000  0.34940000  0.88790000  1
  O  O95  1  0.84900000  0.00940000  0.05180000  1
  O  O96  1  0.83960000  0.84900000  0.55180000  1
  O  O97  1  0.80850000  0.74640000  0.13450000  1
  O  O98  1  0.75650000  0.51080000  0.80480000  1
  O  O99  1  0.75430000  0.24350000  0.80480000  1
  O  O100  1  0.74640000  0.93790000  0.63450000  1
  O  O101  1  0.65060000  0.58420000  0.88790000  1
  O  O102  1  0.58420000  0.93360000  0.38790000  1
  O  O103  1  0.51080000  0.75430000  0.30480000  1
  O  O104  1  0.48920000  0.24570000  0.80480000  1
  O  O105  1  0.41580000  0.06640000  0.88790000  1
  O  O106  1  0.34940000  0.41580000  0.38790000  1
  O  O107  1  0.25360000  0.06210000  0.13450000  1
  O  O108  1  0.24570000  0.75650000  0.30480000  1
  O  O109  1  0.24350000  0.48920000  0.30480000  1
  O  O110  1  0.19150000  0.25360000  0.63450000  1
  O  O111  1  0.16040000  0.15100000  0.05180000  1
  O  O112  1  0.15100000  0.99060000  0.55180000  1
  O  O113  1  0.06640000  0.65060000  0.38790000  1
  O  O114  1  0.06210000  0.80850000  0.63450000  1
  O  O115  1  0.00940000  0.16040000  0.55180000  1
