# generated using pymatgen
data_Fe2PH(CO3)3
_symmetry_space_group_name_H-M   'P 1'
_cell_length_a   7.58740000
_cell_length_b   7.72860000
_cell_length_c   17.98160000
_cell_angle_alpha   98.21400000
_cell_angle_beta   90.00000000
_cell_angle_gamma   90.00000000
_symmetry_Int_Tables_number   1
_chemical_formula_structural   Fe2PH(CO3)3
_chemical_formula_sum   'Fe8 P4 H4 C12 O36'
_cell_volume   1043.62352081
_cell_formula_units_Z   4
loop_
 _symmetry_equiv_pos_site_id
 _symmetry_equiv_pos_as_xyz
  1  'x, y, z'
loop_
 _atom_site_type_symbol
 _atom_site_label
 _atom_site_symmetry_multiplicity
 _atom_site_fract_x
 _atom_site_fract_y
 _atom_site_fract_z
 _atom_site_occupancy
  Fe  Fe0  1  0.81528000  0.72445000  0.69250000  1
  Fe  Fe1  1  0.68472000  0.72445000  0.19250000  1
  Fe  Fe2  1  0.93867000  0.62459000  0.36313000  1
  Fe  Fe3  1  0.56133000  0.62459000  0.86313000  1
  Fe  Fe4  1  0.43867000  0.37541000  0.13687000  1
  Fe  Fe5  1  0.06133000  0.37541000  0.63687000  1
  Fe  Fe6  1  0.31528000  0.27555000  0.80750000  1
  Fe  Fe7  1  0.18472000  0.27555000  0.30750000  1
  P  P8  1  0.42866000  0.55016000  0.69010000  1
  P  P9  1  0.07134000  0.55016000  0.19010000  1
  P  P10  1  0.92866000  0.44984000  0.80990000  1
  P  P11  1  0.57134000  0.44984000  0.30990000  1
  H  H12  1  0.35970000  0.65800000  0.70110000  1
  H  H13  1  0.14030000  0.65800000  0.20110000  1
  H  H14  1  0.85970000  0.34200000  0.79890000  1
  H  H15  1  0.64030000  0.34200000  0.29890000  1
  C  C16  1  0.97530000  0.96310000  0.30370000  1
  C  C17  1  0.52470000  0.96310000  0.80370000  1
  C  C18  1  0.35880000  0.93320000  0.85050000  1
  C  C19  1  0.14120000  0.93320000  0.35050000  1
  C  C20  1  0.96180000  0.58640000  0.52180000  1
  C  C21  1  0.53820000  0.58640000  0.02180000  1
  C  C22  1  0.46180000  0.41360000  0.97820000  1
  C  C23  1  0.03820000  0.41360000  0.47820000  1
  C  C24  1  0.85880000  0.06680000  0.64950000  1
  C  C25  1  0.64120000  0.06680000  0.14950000  1
  C  C26  1  0.47530000  0.03690000  0.19630000  1
  C  C27  1  0.02470000  0.03690000  0.69630000  1
  O  O28  1  0.75290000  0.94760000  0.14086000  1
  O  O29  1  0.74710000  0.94760000  0.64086000  1
  O  O30  1  0.47170000  0.89770000  0.22425000  1
  O  O31  1  0.02830000  0.89770000  0.72425000  1
  O  O32  1  0.85920000  0.84510000  0.29851000  1
  O  O33  1  0.64080000  0.84510000  0.79851000  1
  O  O34  1  0.34620000  0.79230000  0.87657000  1
  O  O35  1  0.15380000  0.79230000  0.37657000  1
  O  O36  1  0.90910000  0.70110000  0.48606000  1
  O  O37  1  0.59090000  0.70110000  0.98606000  1
  O  O38  1  0.90110000  0.59730000  0.15513000  1
  O  O39  1  0.59890000  0.59730000  0.65513000  1
  O  O40  1  0.96140000  0.59340000  0.59293000  1
  O  O41  1  0.53860000  0.59340000  0.09293000  1
  O  O42  1  0.82030000  0.57690000  0.86445000  1
  O  O43  1  0.67970000  0.57690000  0.36445000  1
  O  O44  1  0.95450000  0.52100000  0.73557000  1
  O  O45  1  0.54550000  0.52100000  0.23557000  1
  O  O46  1  0.45450000  0.47900000  0.76443000  1
  O  O47  1  0.04550000  0.47900000  0.26443000  1
  O  O48  1  0.32030000  0.42310000  0.63555000  1
  O  O49  1  0.17970000  0.42310000  0.13555000  1
  O  O50  1  0.46140000  0.40660000  0.90707000  1
  O  O51  1  0.03860000  0.40660000  0.40707000  1
  O  O52  1  0.40110000  0.40270000  0.34487000  1
  O  O53  1  0.09890000  0.40270000  0.84487000  1
  O  O54  1  0.40910000  0.29890000  0.01394000  1
  O  O55  1  0.09090000  0.29890000  0.51394000  1
  O  O56  1  0.84620000  0.20770000  0.62343000  1
  O  O57  1  0.65380000  0.20770000  0.12343000  1
  O  O58  1  0.35920000  0.15490000  0.20149000  1
  O  O59  1  0.14080000  0.15490000  0.70149000  1
  O  O60  1  0.97170000  0.10230000  0.27575000  1
  O  O61  1  0.52830000  0.10230000  0.77575000  1
  O  O62  1  0.25290000  0.05240000  0.35914000  1
  O  O63  1  0.24710000  0.05240000  0.85914000  1
