# generated using pymatgen
data_Ce2H8C8SO16
_symmetry_space_group_name_H-M   'P 1'
_cell_length_a   6.16700000
_cell_length_b   7.65500000
_cell_length_c   11.62799021
_cell_angle_alpha   109.21795928
_cell_angle_beta   91.38806516
_cell_angle_gamma   90.00000000
_symmetry_Int_Tables_number   1
_chemical_formula_structural   Ce2H8C8SO16
_chemical_formula_sum   'Ce2 H8 C8 S1 O16'
_cell_volume   518.17747593
_cell_formula_units_Z   1
loop_
 _symmetry_equiv_pos_site_id
 _symmetry_equiv_pos_as_xyz
  1  'x, y, z'
loop_
 _atom_site_type_symbol
 _atom_site_label
 _atom_site_symmetry_multiplicity
 _atom_site_fract_x
 _atom_site_fract_y
 _atom_site_fract_z
 _atom_site_occupancy
  C  C0  1  0.31130000  0.45420000  0.69820000  1
  C  C1  1  0.44510000  0.28310000  0.68860000  1
  C  C2  1  0.13780000  0.64580000  0.58540000  1
  C  C3  1  0.31260000  0.50330000  0.58000000  1
  C  C4  1  0.68740000  0.92330000  0.42000000  1
  C  C5  1  0.86220000  0.06040000  0.41460000  1
  C  C6  1  0.55490000  0.59450000  0.31140000  1
  C  C7  1  0.68870000  0.75600000  0.30180000  1
  Ce  Ce8  1  0.94982000  0.10042000  0.70932000  1
  Ce  Ce9  1  0.05018000  0.39110000  0.29068000  1
  H  H10  1  0.05590000  0.50870000  0.78680000  1
  H  H11  1  0.37020000  0.55900000  0.76540000  1
  H  H12  1  0.45360000  0.55940000  0.57560000  1
  H  H13  1  0.80000000  0.77950000  0.51960000  1
  H  H14  1  0.20000000  0.25990000  0.48040000  1
  H  H15  1  0.54640000  0.98380000  0.42440000  1
  H  H16  1  0.62980000  0.79360000  0.23460000  1
  H  H17  1  0.94410000  0.72190000  0.21320000  1
  O  O18  1  0.85170000  0.31792000  0.92484000  1
  O  O19  1  0.11440000  0.09374000  0.91188000  1
  O  O20  1  0.09450000  0.41775000  0.72470000  1
  O  O21  1  0.34650000  0.14079000  0.68898000  1
  O  O22  1  0.64680000  0.29541000  0.68122000  1
  O  O23  1  0.13770000  0.79582000  0.67124000  1
  O  O24  1  0.71720000  0.87097000  0.52594000  1
  O  O25  1  0.99450000  0.60234000  0.50008000  1
  O  O26  1  0.00550000  0.10226000  0.49992000  1
  O  O27  1  0.28280000  0.34503000  0.47406000  1
  O  O28  1  0.86230000  0.12458000  0.32876000  1
  O  O29  1  0.35320000  0.61419000  0.31878000  1
  O  O30  1  0.65350000  0.45181000  0.31102000  1
  O  O31  1  0.90550000  0.69305000  0.27530000  1
  O  O32  1  0.88560000  0.18186000  0.08812000  1
  O  O33  1  0.14830000  0.39308000  0.07516000  1
  S  S34  1  1.00000000  0.24530000  1.00000000  1
