# generated using pymatgen
data_CuC2(SN)2
_symmetry_space_group_name_H-M   'P 1'
_cell_length_a   13.49610277
_cell_length_b   13.49610277
_cell_length_c   13.49610277
_cell_angle_alpha   107.10805716
_cell_angle_beta   107.10805716
_cell_angle_gamma   107.10805716
_symmetry_Int_Tables_number   1
_chemical_formula_structural   CuC2(SN)2
_chemical_formula_sum   'Cu6 C12 S12 N12'
_cell_volume   2041.18510709
_cell_formula_units_Z   6
loop_
 _symmetry_equiv_pos_site_id
 _symmetry_equiv_pos_as_xyz
  1  'x, y, z'
loop_
 _atom_site_type_symbol
 _atom_site_label
 _atom_site_symmetry_multiplicity
 _atom_site_fract_x
 _atom_site_fract_y
 _atom_site_fract_z
 _atom_site_occupancy
  C  C0  1  0.08440000  0.77400000  0.36010000  1
  C  C1  1  0.77400000  0.36010000  0.08440000  1
  C  C2  1  0.63990000  0.91560000  0.22600000  1
  C  C3  1  0.12640000  0.49240000  0.51820000  1
  C  C4  1  0.49240000  0.51820000  0.12640000  1
  C  C5  1  0.51820000  0.12640000  0.49240000  1
  C  C6  1  0.48180000  0.87360000  0.50760000  1
  C  C7  1  0.50760000  0.48180000  0.87360000  1
  C  C8  1  0.87360000  0.50760000  0.48180000  1
  C  C9  1  0.36010000  0.08440000  0.77400000  1
  C  C10  1  0.22600000  0.63990000  0.91560000  1
  C  C11  1  0.91560000  0.22600000  0.63990000  1
  Cu  Cu12  1  0.31770000  0.98726000  0.51859000  1
  Cu  Cu13  1  0.98726000  0.51859000  0.31770000  1
  Cu  Cu14  1  0.48141000  0.68230000  0.01274000  1
  Cu  Cu15  1  0.51859000  0.31770000  0.98726000  1
  Cu  Cu16  1  0.01274000  0.48141000  0.68230000  1
  Cu  Cu17  1  0.68230000  0.01274000  0.48141000  1
  N  N18  1  0.32060000  0.65900000  0.95100000  1
  N  N19  1  0.65900000  0.95100000  0.32060000  1
  N  N20  1  0.04900000  0.67940000  0.34100000  1
  N  N21  1  0.10740000  0.50091000  0.59769000  1
  N  N22  1  0.50091000  0.59769000  0.10740000  1
  N  N23  1  0.40231000  0.89260000  0.49909000  1
  N  N24  1  0.59769000  0.10740000  0.50091000  1
  N  N25  1  0.49909000  0.40231000  0.89260000  1
  N  N26  1  0.89260000  0.49909000  0.40231000  1
  N  N27  1  0.95100000  0.32060000  0.65900000  1
  N  N28  1  0.34100000  0.04900000  0.67940000  1
  N  N29  1  0.67940000  0.34100000  0.04900000  1
  S  S30  1  0.86792000  0.08948000  0.61350000  1
  S  S31  1  0.40357000  0.15064000  0.48076000  1
  S  S32  1  0.61350000  0.86792000  0.08948000  1
  S  S33  1  0.91052000  0.38650000  0.13208000  1
  S  S34  1  0.48076000  0.40357000  0.15064000  1
  S  S35  1  0.15064000  0.48076000  0.40357000  1
  S  S36  1  0.84936000  0.51924000  0.59643000  1
  S  S37  1  0.51924000  0.59643000  0.84936000  1
  S  S38  1  0.08948000  0.61350000  0.86792000  1
  S  S39  1  0.38650000  0.13208000  0.91052000  1
  S  S40  1  0.59643000  0.84936000  0.51924000  1
  S  S41  1  0.13208000  0.91052000  0.38650000  1
