# generated using pymatgen
data_Zn2H32C41(N2O7)2
_symmetry_space_group_name_H-M   'P 1'
_cell_length_a   9.00560000
_cell_length_b   10.72630000
_cell_length_c   12.98990000
_cell_angle_alpha   104.04700000
_cell_angle_beta   90.00000000
_cell_angle_gamma   90.00000000
_symmetry_Int_Tables_number   1
_chemical_formula_structural   Zn2H32C41(N2O7)2
_chemical_formula_sum   'Zn2 H32 C41 N4 O14'
_cell_volume   1217.26052822
_cell_formula_units_Z   1
loop_
 _symmetry_equiv_pos_site_id
 _symmetry_equiv_pos_as_xyz
  1  'x, y, z'
loop_
 _atom_site_type_symbol
 _atom_site_label
 _atom_site_symmetry_multiplicity
 _atom_site_fract_x
 _atom_site_fract_y
 _atom_site_fract_z
 _atom_site_occupancy
  Zn  Zn0  1  0.61926000  0.50000000  0.00000000  1
  Zn  Zn1  1  0.93446000  0.00000000  0.50000000  1
  H  H2  1  0.04992000  0.74251000  0.70593000  1
  H  H3  1  0.08900000  0.25760000  0.89790000  1
  H  H4  1  0.08900000  0.74240000  0.10210000  1
  H  H5  1  0.20030000  0.07090000  0.90170000  1
  H  H6  1  0.20030000  0.92910000  0.09830000  1
  H  H7  1  0.23770000  0.33240000  0.21740000  1
  H  H8  1  0.23770000  0.66760000  0.78260000  1
  H  H9  1  0.30260000  0.17840000  0.97030000  1
  H  H10  1  0.30260000  0.82160000  0.02970000  1
  H  H11  1  0.31150000  0.29570000  0.75570000  1
  H  H12  1  0.31150000  0.70430000  0.24430000  1
  H  H13  1  0.37730000  0.10810000  0.15340000  1
  H  H14  1  0.37730000  0.89190000  0.84660000  1
  H  H15  1  0.51170000  0.11530000  0.07730000  1
  H  H16  1  0.51170000  0.88470000  0.92270000  1
  H  H17  1  0.60280000  0.17000000  0.25630000  1
  H  H18  1  0.60280000  0.83000000  0.74370000  1
  H  H19  1  0.61950000  0.21250000  0.79870000  1
  H  H20  1  0.61950000  0.78750000  0.20130000  1
  H  H21  1  0.70770000  0.31920000  0.13400000  1
  H  H22  1  0.70770000  0.68080000  0.86600000  1
  H  H23  1  0.77450000  0.18990000  0.65930000  1
  H  H24  1  0.77450000  0.81010000  0.34070000  1
  H  H25  1  0.77580000  0.17950000  0.38680000  1
  H  H26  1  0.77580000  0.82050000  0.61320000  1
  H  H27  1  0.88790000  0.38100000  0.88170000  1
  H  H28  1  0.88790000  0.61900000  0.11830000  1
  H  H29  1  0.90030000  0.19120000  0.15610000  1
  H  H30  1  0.90030000  0.80880000  0.84390000  1
  H  H31  1  0.96771000  0.39052000  0.42730000  1
  H  H32  1  0.99240000  0.40700000  0.58310000  1
  H  H33  1  0.99240000  0.59300000  0.41690000  1
  C  C34  1  0.01250000  0.26870000  0.94750000  1
  C  C35  1  0.01250000  0.73130000  0.05250000  1
  C  C36  1  0.01830000  0.21160000  0.03030000  1
  C  C37  1  0.01830000  0.78840000  0.96970000  1
  C  C38  1  0.06830000  0.42750000  0.63290000  1
  C  C39  1  0.06830000  0.57250000  0.36710000  1
  C  C40  1  0.10410000  0.19140000  0.61680000  1
  C  C41  1  0.10410000  0.80860000  0.38320000  1
  C  C42  1  0.10470000  0.44510000  0.32350000  1
  C  C43  1  0.10470000  0.55490000  0.67650000  1
  C  C44  1  0.14540000  0.33080000  0.66370000  1
  C  C45  1  0.14540000  0.66920000  0.33630000  1
  C  C46  1  0.21590000  0.41780000  0.24910000  1
  C  C47  1  0.21590000  0.58220000  0.75090000  1
  C  C48  1  0.24330000  0.10320000  0.97150000  1
  C  C49  1  0.24330000  0.89680000  0.02850000  1
  C  C50  1  0.25910000  0.36100000  0.73610000  1
  C  C51  1  0.25910000  0.63900000  0.26390000  1
  C  C52  1  0.29570000  0.48760000  0.77980000  1
  C  C53  1  0.29570000  0.51240000  0.22020000  1
  C  C54  1  0.34100000  0.00000000  0.00000000  1
  C  C55  1  0.42170000  0.47650000  0.14330000  1
  C  C56  1  0.42170000  0.52350000  0.85670000  1
  C  C57  1  0.43760000  0.05890000  0.09580000  1
  C  C58  1  0.43760000  0.94110000  0.90420000  1
  C  C59  1  0.59630000  0.02530000  0.79040000  1
  C  C60  1  0.59630000  0.97470000  0.20960000  1
  C  C61  1  0.64080000  0.09490000  0.26980000  1
  C  C62  1  0.64080000  0.90510000  0.73020000  1
  C  C63  1  0.64870000  0.13080000  0.76160000  1
  C  C64  1  0.64870000  0.86920000  0.23840000  1
  C  C65  1  0.74220000  0.09930000  0.34940000  1
  C  C66  1  0.74220000  0.90070000  0.65060000  1
  C  C67  1  0.74320000  0.11640000  0.67910000  1
  C  C68  1  0.74320000  0.88360000  0.32090000  1
  C  C69  1  0.78570000  0.30680000  0.08570000  1
  C  C70  1  0.78570000  0.69320000  0.91430000  1
  C  C71  1  0.89140000  0.34310000  0.93890000  1
  C  C72  1  0.89140000  0.65690000  0.06110000  1
  C  C73  1  0.90110000  0.23040000  0.09960000  1
  C  C74  1  0.90110000  0.76960000  0.90040000  1
  N  N75  1  0.77950000  0.36440000  0.00620000  1
  N  N76  1  0.77950000  0.63560000  0.99380000  1
  N  N77  1  0.79480000  0.00240000  0.62380000  1
  N  N78  1  0.79480000  0.99760000  0.37620000  1
  O  O79  1  0.01390000  0.17210000  0.54020000  1
  O  O80  1  0.01390000  0.82790000  0.45980000  1
  O  O81  1  0.02940000  0.35000000  0.35270000  1
  O  O82  1  0.02940000  0.65000000  0.64730000  1
  O  O83  1  0.12890000  0.13670000  0.04870000  1
  O  O84  1  0.12890000  0.86330000  0.95130000  1
  O  O85  1  0.15350000  0.10910000  0.65460000  1
  O  O86  1  0.15350000  0.89090000  0.34540000  1
  O  O87  1  0.44400000  0.36490000  0.09870000  1
  O  O88  1  0.44400000  0.63510000  0.90130000  1
  O  O89  1  0.50350000  0.43320000  0.87200000  1
  O  O90  1  0.50350000  0.56680000  0.12800000  1
  O  O91  1  0.50620000  0.04550000  0.87420000  1
  O  O92  1  0.50620000  0.95450000  0.12580000  1
