# generated using pymatgen
data_Mg3H6(C9O8)2
_symmetry_space_group_name_H-M   'P 1'
_cell_length_a   10.87507333
_cell_length_b   10.87507333
_cell_length_c   10.87507333
_cell_angle_alpha   81.08670265
_cell_angle_beta   81.08670265
_cell_angle_gamma   81.08670265
_symmetry_Int_Tables_number   1
_chemical_formula_structural   Mg3H6(C9O8)2
_chemical_formula_sum   'Mg3 H6 C18 O16'
_cell_volume   1243.94145984
_cell_formula_units_Z   1
loop_
 _symmetry_equiv_pos_site_id
 _symmetry_equiv_pos_as_xyz
  1  'x, y, z'
loop_
 _atom_site_type_symbol
 _atom_site_label
 _atom_site_symmetry_multiplicity
 _atom_site_fract_x
 _atom_site_fract_y
 _atom_site_fract_z
 _atom_site_occupancy
  C  C0  1  0.13210000  0.40190000  0.85930000  1
  C  C1  1  0.91840000  0.10550000  0.72170000  1
  C  C2  1  0.56030000  0.77440000  0.23270000  1
  C  C3  1  0.23270000  0.56030000  0.77440000  1
  C  C4  1  0.85930000  0.13210000  0.40190000  1
  C  C5  1  0.59810000  0.86790000  0.14070000  1
  C  C6  1  0.22560000  0.43970000  0.76730000  1
  C  C7  1  0.72170000  0.91840000  0.10550000  1
  C  C8  1  0.89450000  0.08160000  0.27830000  1
  C  C9  1  0.10550000  0.72170000  0.91840000  1
  C  C10  1  0.27830000  0.89450000  0.08160000  1
  C  C11  1  0.77440000  0.23270000  0.56030000  1
  C  C12  1  0.40190000  0.85930000  0.13210000  1
  C  C13  1  0.14070000  0.59810000  0.86790000  1
  C  C14  1  0.76730000  0.22560000  0.43970000  1
  C  C15  1  0.43970000  0.76730000  0.22560000  1
  C  C16  1  0.08160000  0.27830000  0.89450000  1
  C  C17  1  0.86790000  0.14070000  0.59810000  1
  H  H18  1  0.60940000  0.72500000  0.28940000  1
  H  H19  1  0.28940000  0.60940000  0.72500000  1
  H  H20  1  0.27500000  0.39060000  0.71060000  1
  H  H21  1  0.72500000  0.28940000  0.60940000  1
  H  H22  1  0.71060000  0.27500000  0.39060000  1
  H  H23  1  0.39060000  0.71060000  0.27500000  1
  Mg  Mg24  1  1.00000000  0.85711000  0.14289000  1
  Mg  Mg25  1  0.14289000  1.00000000  0.85711000  1
  Mg  Mg26  1  0.85711000  0.14289000  1.00000000  1
  O  O27  1  0.00000000  0.00000000  0.00000000  1
  O  O28  1  0.50000000  0.92055000  0.07945000  1
  O  O29  1  0.14480000  0.19090000  0.84730000  1
  O  O30  1  0.92055000  0.07945000  0.50000000  1
  O  O31  1  0.01833000  0.03283000  0.72213000  1
  O  O32  1  0.03283000  0.72213000  0.01833000  1
  O  O33  1  0.84730000  0.14480000  0.19090000  1
  O  O34  1  0.19090000  0.84730000  0.14480000  1
  O  O35  1  0.72213000  0.01833000  0.03283000  1
  O  O36  1  0.27787000  0.96717000  0.98167000  1
  O  O37  1  0.80910000  0.85520000  0.15270000  1
  O  O38  1  0.15270000  0.80910000  0.85520000  1
  O  O39  1  0.96717000  0.98167000  0.27787000  1
  O  O40  1  0.98167000  0.27787000  0.96717000  1
  O  O41  1  0.07945000  0.50000000  0.92055000  1
  O  O42  1  0.85520000  0.15270000  0.80910000  1
