# generated using pymatgen
data_Cu2H5C9SN7O4
_symmetry_space_group_name_H-M   'P 1'
_cell_length_a   18.27660000
_cell_length_b   24.64010000
_cell_length_c   24.63999162
_cell_angle_alpha   114.09813105
_cell_angle_beta   104.31442078
_cell_angle_gamma   104.31500000
_symmetry_Int_Tables_number   1
_chemical_formula_structural   Cu2H5C9SN7O4
_chemical_formula_sum   'Cu24 H60 C108 S12 N84 O48'
_cell_volume   9022.24242056
_cell_formula_units_Z   12
loop_
 _symmetry_equiv_pos_site_id
 _symmetry_equiv_pos_as_xyz
  1  'x, y, z'
loop_
 _atom_site_type_symbol
 _atom_site_label
 _atom_site_symmetry_multiplicity
 _atom_site_fract_x
 _atom_site_fract_y
 _atom_site_fract_z
 _atom_site_occupancy
  Cu  Cu0  1  0.93055000  0.33390000  0.89084000  1
  Cu  Cu1  1  0.40335000  0.44306000  0.33390000  1
  Cu  Cu2  1  0.52907000  0.64911000  0.43735000  1
  Cu  Cu3  1  0.90828000  0.43735000  0.78824000  1
  Cu  Cu4  1  0.85016000  0.55021000  0.71732000  1
  Cu  Cu5  1  0.70005000  0.83289000  0.55021000  1
  Cu  Cu6  1  0.20754000  0.39894000  0.03910000  1
  Cu  Cu7  1  0.83156000  0.03910000  0.64016000  1
  Cu  Cu8  1  0.80860000  0.64016000  0.60106000  1
  Cu  Cu9  1  0.13284000  0.28268000  0.83289000  1
  Cu  Cu10  1  0.96029000  0.89084000  0.55694000  1
  Cu  Cu11  1  0.12004000  0.21176000  0.64911000  1
  Cu  Cu12  1  0.87996000  0.78824000  0.35089000  1
  Cu  Cu13  1  0.03971000  0.10916000  0.44306000  1
  Cu  Cu14  1  0.86716000  0.71732000  0.16711000  1
  Cu  Cu15  1  0.19140000  0.35984000  0.39894000  1
  Cu  Cu16  1  0.16844000  0.96090000  0.35984000  1
  Cu  Cu17  1  0.79246000  0.60106000  0.96090000  1
  Cu  Cu18  1  0.29995000  0.16711000  0.44979000  1
  Cu  Cu19  1  0.14984000  0.44979000  0.28268000  1
  Cu  Cu20  1  0.09172000  0.56265000  0.21176000  1
  Cu  Cu21  1  0.47093000  0.35089000  0.56265000  1
  Cu  Cu22  1  0.59665000  0.55694000  0.66610000  1
  Cu  Cu23  1  0.06945000  0.66610000  0.10916000  1
  H  H24  1  0.40770000  0.70370000  0.38630000  1
  H  H25  1  0.19160000  0.37980000  0.15980000  1
  H  H26  1  0.59250000  0.07400000  0.54340000  1
  H  H27  1  0.35520000  0.30000000  0.30610000  1
  H  H28  1  0.04910000  0.69390000  0.99390000  1
  H  H29  1  0.40710000  0.24520000  0.35190000  1
  H  H30  1  0.65370000  0.18560000  0.58600000  1
  H  H31  1  0.52850000  0.30290000  0.44360000  1
  H  H32  1  0.59380000  0.41370000  0.48910000  1
  H  H33  1  0.31870000  0.51000000  0.18430000  1
  H  H34  1  0.78990000  0.24080000  0.65470000  1
  H  H35  1  0.05520000  0.64810000  0.89330000  1
  H  H36  1  0.10470000  0.51090000  0.92460000  1
  H  H37  1  0.96820000  0.15980000  0.78000000  1
  H  H38  1  0.86560000  0.18430000  0.67430000  1
  H  H39  1  0.81180000  0.78000000  0.62020000  1
  H  H40  1  0.45090000  0.58610000  0.24080000  1
  H  H41  1  0.08490000  0.55640000  0.85930000  1
  H  H42  1  0.97860000  0.38630000  0.68260000  1
  H  H43  1  0.80870000  0.67430000  0.49000000  1
  H  H44  1  0.53190000  0.59960000  0.18560000  1
  H  H45  1  0.05520000  0.00610000  0.70000000  1
  H  H46  1  0.81990000  0.92460000  0.41370000  1
  H  H47  1  0.16190000  0.10670000  0.75480000  1
  H  H48  1  0.48150000  0.53060000  0.07400000  1
  H  H49  1  0.70400000  0.68260000  0.29630000  1
  H  H50  1  0.86480000  0.65470000  0.41390000  1
  H  H51  1  0.06770000  0.41400000  0.59960000  1
  H  H52  1  0.77440000  0.85930000  0.30290000  1
  H  H53  1  0.95090000  0.54340000  0.46940000  1
  H  H54  1  0.04910000  0.45660000  0.53060000  1
  H  H55  1  0.22560000  0.14070000  0.69710000  1
  H  H56  1  0.93230000  0.58600000  0.40040000  1
  H  H57  1  0.13520000  0.34530000  0.58610000  1
  H  H58  1  0.29600000  0.31740000  0.70370000  1
  H  H59  1  0.51850000  0.46940000  0.92600000  1
  H  H60  1  0.83810000  0.89330000  0.24520000  1
  H  H61  1  0.18010000  0.07540000  0.58630000  1
  H  H62  1  0.94480000  0.99390000  0.30000000  1
  H  H63  1  0.46810000  0.40040000  0.81440000  1
  H  H64  1  0.19130000  0.32570000  0.51000000  1
  H  H65  1  0.02140000  0.61370000  0.31740000  1
  H  H66  1  0.91510000  0.44360000  0.14070000  1
  H  H67  1  0.54910000  0.41390000  0.75920000  1
  H  H68  1  0.18820000  0.22000000  0.37980000  1
  H  H69  1  0.13440000  0.81570000  0.32570000  1
  H  H70  1  0.03180000  0.84020000  0.22000000  1
  H  H71  1  0.89530000  0.48910000  0.07540000  1
  H  H72  1  0.94480000  0.35190000  0.10670000  1
  H  H73  1  0.21010000  0.75920000  0.34530000  1
  H  H74  1  0.68130000  0.49000000  0.81570000  1
  H  H75  1  0.40620000  0.58630000  0.51090000  1
  H  H76  1  0.47150000  0.69710000  0.55640000  1
  H  H77  1  0.34630000  0.81440000  0.41400000  1
  H  H78  1  0.59290000  0.75480000  0.64810000  1
  H  H79  1  0.95090000  0.30610000  0.00610000  1
  H  H80  1  0.64480000  0.70000000  0.69390000  1
  H  H81  1  0.40750000  0.92600000  0.45660000  1
  H  H82  1  0.80840000  0.62020000  0.84020000  1
  H  H83  1  0.59230000  0.29630000  0.61370000  1
  C  C84  1  0.14068000  0.47336000  0.12768000  1
  C  C85  1  0.17355000  0.41131000  0.15784000  1
  C  C86  1  0.12378000  0.51156000  0.09788000  1
  C  C87  1  0.45762000  0.73759000  0.41667000  1
  C  C88  1  0.10029000  0.55576000  0.04441000  1
  C  C89  1  0.40317000  0.32312000  0.34349000  1
  C  C90  1  0.43415000  0.28968000  0.37027000  1
  C  C91  1  0.54914000  0.82932000  0.47710000  1
  C  C92  1  0.64790000  0.09700000  0.57020000  1
  C  C93  1  0.05968000  0.65651000  0.97963000  1
  C  C94  1  0.50634000  0.32437000  0.42495000  1
  C  C95  1  0.51026000  0.41907000  0.42211000  1
  C  C96  1  0.68450000  0.16360000  0.59600000  1
  C  C97  1  0.60405000  0.89712000  0.51433000  1
  C  C98  1  0.08815000  0.57789000  0.99696000  1
  C  C99  1  0.54539000  0.38982000  0.45205000  1
  C  C100  1  0.54453000  0.48865000  0.44424000  1
  C  C101  1  0.66588000  0.99524000  0.55970000  1
  C  C102  1  0.69621000  0.06608000  0.58555000  1
  C  C103  1  0.61222000  0.58632000  0.48844000  1
  C  C104  1  0.76520000  0.19600000  0.63590000  1
  C  C105  1  0.66732000  0.65432000  0.52664000  1
  C  C106  1  0.06388000  0.62973000  0.91941000  1
  C  C107  1  0.09334000  0.54795000  0.93777000  1
  C  C108  1  0.80984000  0.16208000  0.64804000  1
  C  C109  1  0.76224000  0.74653000  0.58869000  1
  C  C110  1  0.08139000  0.57505000  0.89942000  1
  C  C111  1  0.35224000  0.51404000  0.16208000  1
  C  C112  1  0.43080000  0.56010000  0.19600000  1
  C  C113  1  0.98429000  0.15784000  0.74653000  1
  C  C114  1  0.95905000  0.41667000  0.67908000  1
  C  C115  1  0.92796000  0.47710000  0.64778000  1
  C  C116  1  0.91028000  0.51433000  0.61721000  1
  C  C117  1  0.36987000  0.48053000  0.06608000  1
  C  C118  1  0.47910000  0.56760000  0.16360000  1
  C  C119  1  0.89382000  0.55970000  0.56446000  1
  C  C120  1  0.98700000  0.12768000  0.65432000  1
  C  C121  1  0.32936000  0.43554000  0.99524000  1
  C  C122  1  0.44910000  0.52680000  0.09700000  1
  C  C123  1  0.83820000  0.64804000  0.48596000  1
  C  C124  1  0.88934000  0.58555000  0.51947000  1
  C  C125  1  0.97410000  0.09788000  0.58632000  1
  C  C126  1  0.29307000  0.38279000  0.89712000  1
  C  C127  1  0.08005000  0.02037000  0.67688000  1
  C  C128  1  0.87070000  0.63590000  0.43990000  1
  C  C129  1  0.14447000  0.08059000  0.71032000  1
  C  C130  1  0.92230000  0.57020000  0.47320000  1
  C  C131  1  0.28018000  0.35222000  0.82932000  1
  C  C132  1  0.84443000  0.93777000  0.38982000  1
  C  C133  1  0.94412000  0.04441000  0.48865000  1
  C  C134  1  0.72003000  0.67908000  0.26241000  1
  C  C135  1  0.91150000  0.59600000  0.43240000  1
  C  C136  1  0.90881000  0.99696000  0.41907000  1
  C  C137  1  0.81803000  0.89942000  0.32437000  1
  C  C138  1  0.18197000  0.10058000  0.67563000  1
  C  C139  1  0.09119000  0.00304000  0.58093000  1
  C  C140  1  0.08850000  0.40400000  0.56760000  1
  C  C141  1  0.27997000  0.32092000  0.73759000  1
  C  C142  1  0.05588000  0.95559000  0.51135000  1
  C  C143  1  0.15557000  0.06223000  0.61018000  1
  C  C144  1  0.71982000  0.64778000  0.17068000  1
  C  C145  1  0.07770000  0.42980000  0.52680000  1
  C  C146  1  0.85553000  0.91941000  0.28968000  1
  C  C147  1  0.12930000  0.36410000  0.56010000  1
  C  C148  1  0.91995000  0.97963000  0.32312000  1
  C  C149  1  0.70693000  0.61721000  0.10288000  1
  C  C150  1  0.02590000  0.90212000  0.41368000  1
  C  C151  1  0.11066000  0.41445000  0.48053000  1
  C  C152  1  0.16180000  0.35196000  0.51404000  1
  C  C153  1  0.55090000  0.47320000  0.90300000  1
  C  C154  1  0.67064000  0.56446000  0.00476000  1
  C  C155  1  0.01300000  0.87232000  0.34568000  1
  C  C156  1  0.10618000  0.44030000  0.43554000  1
  C  C157  1  0.52090000  0.43240000  0.83640000  1
  C  C158  1  0.63013000  0.51947000  0.93392000  1
  C  C159  1  0.08972000  0.48567000  0.38279000  1
  C  C160  1  0.07204000  0.52290000  0.35222000  1
  C  C161  1  0.04095000  0.58333000  0.32092000  1
  C  C162  1  0.01571000  0.84216000  0.25347000  1
  C  C163  1  0.56920000  0.43990000  0.80400000  1
  C  C164  1  0.64776000  0.48596000  0.83792000  1
  C  C165  1  0.91861000  0.42495000  0.10058000  1
  C  C166  1  0.23776000  0.25347000  0.41131000  1
  C  C167  1  0.19016000  0.83792000  0.35196000  1
  C  C168  1  0.90666000  0.45205000  0.06223000  1
  C  C169  1  0.93612000  0.37027000  0.08059000  1
  C  C170  1  0.33268000  0.34568000  0.47336000  1
  C  C171  1  0.23480000  0.80400000  0.36410000  1
  C  C172  1  0.38778000  0.41368000  0.51156000  1
  C  C173  1  0.30379000  0.93392000  0.41445000  1
  C  C174  1  0.33412000  0.00476000  0.44030000  1
  C  C175  1  0.45547000  0.51135000  0.55576000  1
  C  C176  1  0.45461000  0.61018000  0.54795000  1
  C  C177  1  0.91185000  0.42211000  0.00304000  1
  C  C178  1  0.39595000  0.10288000  0.48567000  1
  C  C179  1  0.31550000  0.83640000  0.40400000  1
  C  C180  1  0.48974000  0.58093000  0.57789000  1
  C  C181  1  0.49366000  0.67563000  0.57505000  1
  C  C182  1  0.94032000  0.34349000  0.02037000  1
  C  C183  1  0.35210000  0.90300000  0.42980000  1
  C  C184  1  0.45086000  0.17068000  0.52290000  1
  C  C185  1  0.56585000  0.71032000  0.62973000  1
  C  C186  1  0.59683000  0.67688000  0.65651000  1
  C  C187  1  0.89971000  0.44424000  0.95559000  1
  C  C188  1  0.54238000  0.26241000  0.58333000  1
  C  C189  1  0.87622000  0.48844000  0.90212000  1
  C  C190  1  0.82645000  0.58869000  0.84216000  1
  C  C191  1  0.85932000  0.52664000  0.87232000  1
  S  S192  1  0.34703000  0.55166000  0.33687000  1
  S  S193  1  0.77359000  0.65386000  0.72365000  1
  S  S194  1  0.04994000  0.27635000  0.93021000  1
  S  S195  1  0.98984000  0.33687000  0.78521000  1
  S  S196  1  0.88027000  0.93021000  0.65386000  1
  S  S197  1  0.79537000  0.78521000  0.44834000  1
  S  S198  1  0.20463000  0.21479000  0.55166000  1
  S  S199  1  0.11973000  0.06979000  0.34614000  1
  S  S200  1  0.01016000  0.66313000  0.21479000  1
  S  S201  1  0.95006000  0.72365000  0.06979000  1
  S  S202  1  0.22641000  0.34614000  0.27635000  1
  S  S203  1  0.65297000  0.44834000  0.66313000  1
  N  N204  1  0.91342000  0.41320000  0.90326000  1
  N  N205  1  0.89770000  0.44126000  0.86728000  1
  N  N206  1  0.47254000  0.79975000  0.43347000  1
  N  N207  1  0.85001000  0.55336000  0.79883000  1
  N  N208  1  0.07024000  0.63119000  0.01773000  1
  N  N209  1  0.87129000  0.51274000  0.81845000  1
  N  N210  1  0.16862000  0.42613000  0.11041000  1
  N  N211  1  0.43905000  0.38654000  0.36881000  1
  N  N212  1  0.52081000  0.72900000  0.44743000  1
  N  N213  1  0.59137000  0.94906000  0.51735000  1
  N  N214  1  0.12424000  0.50751000  0.04241000  1
  N  N215  1  0.49978000  0.50994000  0.41320000  1
  N  N216  1  0.58094000  0.78912000  0.48700000  1
  N  N217  1  0.54356000  0.57398000  0.44126000  1
  N  N218  1  0.61673000  0.53490000  0.49249000  1
  N  N219  1  0.67897000  0.90918000  0.55210000  1
  N  N220  1  0.64145000  0.69429000  0.51274000  1
  N  N221  1  0.72035000  0.97433000  0.58202000  1
  N  N222  1  0.70335000  0.75453000  0.55336000  1
  N  N223  1  0.77574000  0.09722000  0.62320000  1
  N  N224  1  0.74249000  0.68428000  0.57387000  1
  N  N225  1  0.90606000  0.48700000  0.69788000  1
  N  N226  1  0.92662000  0.44743000  0.71843000  1
  N  N227  1  0.32148000  0.47402000  0.09722000  1
  N  N228  1  0.87313000  0.55210000  0.64292000  1
  N  N229  1  0.86167000  0.58202000  0.60769000  1
  N  N230  1  0.94179000  0.11041000  0.68428000  1
  N  N231  1  0.25398000  0.39231000  0.97433000  1
  N  N232  1  0.05118000  0.20117000  0.75453000  1
  N  N233  1  0.23021000  0.35708000  0.90918000  1
  N  N234  1  0.84746000  0.62320000  0.52598000  1
  N  N235  1  0.96093000  0.43347000  0.63372000  1
  N  N236  1  0.92598000  0.51735000  0.56829000  1
  N  N237  1  0.05284000  0.18155000  0.69429000  1
  N  N238  1  0.91817000  0.04241000  0.53490000  1
  N  N239  1  0.35769000  0.43171000  0.94906000  1
  N  N240  1  0.20818000  0.30212000  0.78912000  1
  N  N241  1  0.05251000  0.98227000  0.61346000  1
  N  N242  1  0.03042000  0.13272000  0.57398000  1
  N  N243  1  0.67279000  0.63372000  0.20025000  1
  N  N244  1  0.20819000  0.28157000  0.72900000  1
  N  N245  1  0.98984000  0.90326000  0.49006000  1
  N  N246  1  0.01016000  0.09674000  0.50994000  1
  N  N247  1  0.79181000  0.71843000  0.27100000  1
  N  N248  1  0.32721000  0.36628000  0.79975000  1
  N  N249  1  0.96958000  0.86728000  0.42602000  1
  N  N250  1  0.94749000  0.01773000  0.38654000  1
  N  N251  1  0.79182000  0.69788000  0.21088000  1
  N  N252  1  0.64231000  0.56829000  0.05094000  1
  N  N253  1  0.08183000  0.95759000  0.46510000  1
  N  N254  1  0.94716000  0.81845000  0.30571000  1
  N  N255  1  0.07402000  0.48265000  0.43171000  1
  N  N256  1  0.03907000  0.56653000  0.36628000  1
  N  N257  1  0.15254000  0.37680000  0.47402000  1
  N  N258  1  0.76979000  0.64292000  0.09082000  1
  N  N259  1  0.94882000  0.79883000  0.24547000  1
  N  N260  1  0.74602000  0.60769000  0.02567000  1
  N  N261  1  0.05821000  0.88959000  0.31572000  1
  N  N262  1  0.13833000  0.41798000  0.39231000  1
  N  N263  1  0.12687000  0.44790000  0.35708000  1
  N  N264  1  0.67852000  0.52598000  0.90278000  1
  N  N265  1  0.07338000  0.55257000  0.28157000  1
  N  N266  1  0.09394000  0.51300000  0.30212000  1
  N  N267  1  0.25751000  0.31572000  0.42613000  1
  N  N268  1  0.22426000  0.90278000  0.37680000  1
  N  N269  1  0.29665000  0.24547000  0.44664000  1
  N  N270  1  0.27965000  0.02567000  0.41798000  1
  N  N271  1  0.35855000  0.30571000  0.48726000  1
  N  N272  1  0.32103000  0.09082000  0.44790000  1
  N  N273  1  0.38327000  0.46510000  0.50751000  1
  N  N274  1  0.45644000  0.42602000  0.55874000  1
  N  N275  1  0.41906000  0.21088000  0.51300000  1
  N  N276  1  0.50022000  0.49006000  0.58680000  1
  N  N277  1  0.87576000  0.49249000  0.95759000  1
  N  N278  1  0.40863000  0.05094000  0.48265000  1
  N  N279  1  0.47919000  0.27100000  0.55257000  1
  N  N280  1  0.56095000  0.61346000  0.63119000  1
  N  N281  1  0.83138000  0.57387000  0.88959000  1
  N  N282  1  0.12871000  0.48726000  0.18155000  1
  N  N283  1  0.92976000  0.36881000  0.98227000  1
  N  N284  1  0.14999000  0.44664000  0.20117000  1
  N  N285  1  0.52746000  0.20025000  0.56653000  1
  N  N286  1  0.10230000  0.55874000  0.13272000  1
  N  N287  1  0.08658000  0.58680000  0.09674000  1
  O  O288  1  0.40921000  0.60523000  0.40138000  1
  O  O289  1  0.32426000  0.57748000  0.29425000  1
  O  O290  1  0.29942000  0.37386000  0.26528000  1
  O  O291  1  0.80429000  0.72323000  0.75784000  1
  O  O292  1  0.72213000  0.47978000  0.65236000  1
  O  O293  1  0.96586000  0.26528000  0.89142000  1
  O  O294  1  0.38373000  0.50532000  0.30794000  1
  O  O295  1  0.04645000  0.24216000  0.96539000  1
  O  O296  1  0.83910000  0.63453000  0.74832000  1
  O  O297  1  0.74738000  0.62673000  0.65307000  1
  O  O298  1  0.09431000  0.34693000  0.97366000  1
  O  O299  1  0.92421000  0.30794000  0.80262000  1
  O  O300  1  0.79543000  0.88621000  0.63453000  1
  O  O301  1  0.91894000  0.96539000  0.72323000  1
  O  O302  1  0.99217000  0.40138000  0.79615000  1
  O  O303  1  0.09078000  0.25168000  0.88621000  1
  O  O304  1  0.06977000  0.34764000  0.82742000  1
  O  O305  1  0.87935000  0.97366000  0.62673000  1
  O  O306  1  0.96999000  0.29425000  0.71677000  1
  O  O307  1  0.75765000  0.82742000  0.47978000  1
  O  O308  1  0.92556000  0.89142000  0.62614000  1
  O  O309  1  0.74678000  0.71677000  0.42252000  1
  O  O310  1  0.87841000  0.80262000  0.49468000  1
  O  O311  1  0.80398000  0.79615000  0.39477000  1
  O  O312  1  0.19602000  0.20385000  0.60523000  1
  O  O313  1  0.12159000  0.19738000  0.50532000  1
  O  O314  1  0.25322000  0.28323000  0.57748000  1
  O  O315  1  0.07444000  0.10858000  0.37386000  1
  O  O316  1  0.24235000  0.17258000  0.52022000  1
  O  O317  1  0.03001000  0.70575000  0.28323000  1
  O  O318  1  0.12065000  0.02634000  0.37327000  1
  O  O319  1  0.93023000  0.65236000  0.17258000  1
  O  O320  1  0.90922000  0.74832000  0.11379000  1
  O  O321  1  0.00783000  0.59862000  0.20385000  1
  O  O322  1  0.08106000  0.03461000  0.27677000  1
  O  O323  1  0.20457000  0.11379000  0.36547000  1
  O  O324  1  0.07579000  0.69206000  0.19738000  1
  O  O325  1  0.90569000  0.65307000  0.02634000  1
  O  O326  1  0.25262000  0.37327000  0.34693000  1
  O  O327  1  0.16090000  0.36547000  0.25168000  1
  O  O328  1  0.95355000  0.75784000  0.03461000  1
  O  O329  1  0.61627000  0.49468000  0.69206000  1
  O  O330  1  0.03414000  0.73472000  0.10858000  1
  O  O331  1  0.27787000  0.52022000  0.34764000  1
  O  O332  1  0.19571000  0.27677000  0.24216000  1
  O  O333  1  0.70058000  0.62614000  0.73472000  1
  O  O334  1  0.67574000  0.42252000  0.70575000  1
  O  O335  1  0.59079000  0.39477000  0.59862000  1
