# generated using pymatgen
data_Co3H24C30(NO5)2
_symmetry_space_group_name_H-M   'P 1'
_cell_length_a   15.12610000
_cell_length_b   17.52070000
_cell_length_c   17.52070000
_cell_angle_alpha   90.00000000
_cell_angle_beta   90.00000000
_cell_angle_gamma   90.00000000
_symmetry_Int_Tables_number   1
_chemical_formula_structural   Co3H24C30(NO5)2
_chemical_formula_sum   'Co12 H96 C120 N8 O40'
_cell_volume   4643.33346583
_cell_formula_units_Z   4
loop_
 _symmetry_equiv_pos_site_id
 _symmetry_equiv_pos_as_xyz
  1  'x, y, z'
loop_
 _atom_site_type_symbol
 _atom_site_label
 _atom_site_symmetry_multiplicity
 _atom_site_fract_x
 _atom_site_fract_y
 _atom_site_fract_z
 _atom_site_occupancy
  Co  Co0  1  0.46933000  0.10067000  0.14093000  1
  Co  Co1  1  0.96933000  0.10067000  0.85907000  1
  Co  Co2  1  0.03067000  0.14093000  0.10067000  1
  Co  Co3  1  0.53067000  0.14093000  0.89933000  1
  Co  Co4  1  0.25000000  0.14836000  0.14836000  1
  Co  Co5  1  0.75000000  0.14836000  0.85164000  1
  Co  Co6  1  0.75000000  0.85164000  0.14836000  1
  Co  Co7  1  0.25000000  0.85164000  0.85164000  1
  Co  Co8  1  0.53067000  0.85907000  0.10067000  1
  Co  Co9  1  0.03067000  0.85907000  0.89933000  1
  Co  Co10  1  0.96933000  0.89933000  0.14093000  1
  Co  Co11  1  0.46933000  0.89933000  0.85907000  1
  H  H12  1  0.24050000  0.00100000  0.24020000  1
  H  H13  1  0.74050000  0.00100000  0.75980000  1
  H  H14  1  0.84180000  0.01340000  0.26230000  1
  H  H15  1  0.34180000  0.01340000  0.73770000  1
  H  H16  1  0.77350000  0.01760000  0.10980000  1
  H  H17  1  0.27350000  0.01760000  0.89020000  1
  H  H18  1  0.60220000  0.04510000  0.25440000  1
  H  H19  1  0.10220000  0.04510000  0.74560000  1
  H  H20  1  0.63460000  0.04630000  0.38360000  1
  H  H21  1  0.13460000  0.04630000  0.61640000  1
  H  H22  1  0.78350000  0.08170000  0.22860000  1
  H  H23  1  0.28350000  0.08170000  0.77140000  1
  H  H24  1  0.92220000  0.10060000  0.45960000  1
  H  H25  1  0.42220000  0.10060000  0.54040000  1
  H  H26  1  0.72650000  0.10980000  0.01760000  1
  H  H27  1  0.22650000  0.10980000  0.98240000  1
  H  H28  1  0.95730000  0.12150000  0.33200000  1
  H  H29  1  0.45730000  0.12150000  0.66800000  1
  H  H30  1  0.68030000  0.12580000  0.48400000  1
  H  H31  1  0.18030000  0.12580000  0.51600000  1
  H  H32  1  0.21560000  0.14000000  0.38700000  1
  H  H33  1  0.71560000  0.14000000  0.61300000  1
  H  H34  1  0.37780000  0.15100000  0.29010000  1
  H  H35  1  0.87780000  0.15100000  0.70990000  1
  H  H36  1  0.40610000  0.15810000  0.41950000  1
  H  H37  1  0.90610000  0.15810000  0.58050000  1
  H  H38  1  0.71650000  0.22860000  0.08170000  1
  H  H39  1  0.21650000  0.22860000  0.91830000  1
  H  H40  1  0.25950000  0.24020000  0.00100000  1
  H  H41  1  0.75950000  0.24020000  0.99900000  1
  H  H42  1  0.89780000  0.25440000  0.04510000  1
  H  H43  1  0.39780000  0.25440000  0.95490000  1
  H  H44  1  0.65820000  0.26230000  0.01340000  1
  H  H45  1  0.15820000  0.26230000  0.98660000  1
  H  H46  1  0.12220000  0.29010000  0.15100000  1
  H  H47  1  0.62220000  0.29010000  0.84900000  1
  H  H48  1  0.54270000  0.33200000  0.12150000  1
  H  H49  1  0.04270000  0.33200000  0.87850000  1
  H  H50  1  0.86540000  0.38360000  0.04630000  1
  H  H51  1  0.36540000  0.38360000  0.95370000  1
  H  H52  1  0.28440000  0.38700000  0.14000000  1
  H  H53  1  0.78440000  0.38700000  0.86000000  1
  H  H54  1  0.09390000  0.41950000  0.15810000  1
  H  H55  1  0.59390000  0.41950000  0.84190000  1
  H  H56  1  0.57780000  0.45960000  0.10060000  1
  H  H57  1  0.07780000  0.45960000  0.89940000  1
  H  H58  1  0.81970000  0.48400000  0.12580000  1
  H  H59  1  0.31970000  0.48400000  0.87420000  1
  H  H60  1  0.31970000  0.51600000  0.12580000  1
  H  H61  1  0.81970000  0.51600000  0.87420000  1
  H  H62  1  0.07780000  0.54040000  0.10060000  1
  H  H63  1  0.57780000  0.54040000  0.89940000  1
  H  H64  1  0.59390000  0.58050000  0.15810000  1
  H  H65  1  0.09390000  0.58050000  0.84190000  1
  H  H66  1  0.78440000  0.61300000  0.14000000  1
  H  H67  1  0.28440000  0.61300000  0.86000000  1
  H  H68  1  0.36540000  0.61640000  0.04630000  1
  H  H69  1  0.86540000  0.61640000  0.95370000  1
  H  H70  1  0.04270000  0.66800000  0.12150000  1
  H  H71  1  0.54270000  0.66800000  0.87850000  1
  H  H72  1  0.62220000  0.70990000  0.15100000  1
  H  H73  1  0.12220000  0.70990000  0.84900000  1
  H  H74  1  0.15820000  0.73770000  0.01340000  1
  H  H75  1  0.65820000  0.73770000  0.98660000  1
  H  H76  1  0.39780000  0.74560000  0.04510000  1
  H  H77  1  0.89780000  0.74560000  0.95490000  1
  H  H78  1  0.75950000  0.75980000  0.00100000  1
  H  H79  1  0.25950000  0.75980000  0.99900000  1
  H  H80  1  0.21650000  0.77140000  0.08170000  1
  H  H81  1  0.71650000  0.77140000  0.91830000  1
  H  H82  1  0.90610000  0.84190000  0.41950000  1
  H  H83  1  0.40610000  0.84190000  0.58050000  1
  H  H84  1  0.87780000  0.84900000  0.29010000  1
  H  H85  1  0.37780000  0.84900000  0.70990000  1
  H  H86  1  0.71560000  0.86000000  0.38700000  1
  H  H87  1  0.21560000  0.86000000  0.61300000  1
  H  H88  1  0.18030000  0.87420000  0.48400000  1
  H  H89  1  0.68030000  0.87420000  0.51600000  1
  H  H90  1  0.45730000  0.87850000  0.33200000  1
  H  H91  1  0.95730000  0.87850000  0.66800000  1
  H  H92  1  0.22650000  0.89020000  0.01760000  1
  H  H93  1  0.72650000  0.89020000  0.98240000  1
  H  H94  1  0.42220000  0.89940000  0.45960000  1
  H  H95  1  0.92220000  0.89940000  0.54040000  1
  H  H96  1  0.28350000  0.91830000  0.22860000  1
  H  H97  1  0.78350000  0.91830000  0.77140000  1
  H  H98  1  0.13460000  0.95370000  0.38360000  1
  H  H99  1  0.63460000  0.95370000  0.61640000  1
  H  H100  1  0.10220000  0.95490000  0.25440000  1
  H  H101  1  0.60220000  0.95490000  0.74560000  1
  H  H102  1  0.27350000  0.98240000  0.10980000  1
  H  H103  1  0.77350000  0.98240000  0.89020000  1
  H  H104  1  0.34180000  0.98660000  0.26230000  1
  H  H105  1  0.84180000  0.98660000  0.73770000  1
  H  H106  1  0.74050000  0.99900000  0.24020000  1
  H  H107  1  0.24050000  0.99900000  0.75980000  1
  C  C108  1  0.82240000  0.00450000  0.14590000  1
  C  C109  1  0.32240000  0.00450000  0.85410000  1
  C  C110  1  0.79460000  0.02660000  0.22640000  1
  C  C111  1  0.29460000  0.02660000  0.77360000  1
  C  C112  1  0.90260000  0.05070000  0.12550000  1
  C  C113  1  0.40260000  0.05070000  0.87450000  1
  C  C114  1  0.56130000  0.06810000  0.28850000  1
  C  C115  1  0.06130000  0.06810000  0.71150000  1
  C  C116  1  0.58190000  0.06970000  0.36560000  1
  C  C117  1  0.08190000  0.06970000  0.63440000  1
  C  C118  1  0.52520000  0.10550000  0.41600000  1
  C  C119  1  0.02520000  0.10550000  0.58400000  1
  C  C120  1  0.98180000  0.11010000  0.44540000  1
  C  C121  1  0.48180000  0.11010000  0.55460000  1
  C  C122  1  0.54790000  0.11300000  0.49810000  1
  C  C123  1  0.04790000  0.11300000  0.50190000  1
  C  C124  1  0.00280000  0.12100000  0.36930000  1
  C  C125  1  0.50280000  0.12100000  0.63070000  1
  C  C126  1  0.13470000  0.12410000  0.47880000  1
  C  C127  1  0.63470000  0.12410000  0.52120000  1
  C  C128  1  0.59740000  0.12550000  0.05070000  1
  C  C129  1  0.09740000  0.12550000  0.94930000  1
  C  C130  1  0.43130000  0.13000000  0.30920000  1
  C  C131  1  0.93130000  0.13000000  0.69080000  1
  C  C132  1  0.08910000  0.13100000  0.34750000  1
  C  C133  1  0.58910000  0.13100000  0.65250000  1
  C  C134  1  0.15580000  0.13280000  0.40210000  1
  C  C135  1  0.65580000  0.13280000  0.59790000  1
  C  C136  1  0.44800000  0.13470000  0.38660000  1
  C  C137  1  0.94800000  0.13470000  0.61340000  1
  C  C138  1  0.11120000  0.14100000  0.26460000  1
  C  C139  1  0.61120000  0.14100000  0.73540000  1
  C  C140  1  0.67760000  0.14590000  0.00450000  1
  C  C141  1  0.17760000  0.14590000  0.99550000  1
  C  C142  1  0.70540000  0.22640000  0.02660000  1
  C  C143  1  0.20540000  0.22640000  0.97340000  1
  C  C144  1  0.38880000  0.26460000  0.14100000  1
  C  C145  1  0.88880000  0.26460000  0.85900000  1
  C  C146  1  0.93870000  0.28850000  0.06810000  1
  C  C147  1  0.43870000  0.28850000  0.93190000  1
  C  C148  1  0.06870000  0.30920000  0.13000000  1
  C  C149  1  0.56870000  0.30920000  0.87000000  1
  C  C150  1  0.41090000  0.34750000  0.13100000  1
  C  C151  1  0.91090000  0.34750000  0.86900000  1
  C  C152  1  0.91810000  0.36560000  0.06970000  1
  C  C153  1  0.41810000  0.36560000  0.93030000  1
  C  C154  1  0.49720000  0.36930000  0.12100000  1
  C  C155  1  0.99720000  0.36930000  0.87900000  1
  C  C156  1  0.05200000  0.38660000  0.13470000  1
  C  C157  1  0.55200000  0.38660000  0.86530000  1
  C  C158  1  0.34420000  0.40210000  0.13280000  1
  C  C159  1  0.84420000  0.40210000  0.86720000  1
  C  C160  1  0.97480000  0.41600000  0.10550000  1
  C  C161  1  0.47480000  0.41600000  0.89450000  1
  C  C162  1  0.51820000  0.44540000  0.11010000  1
  C  C163  1  0.01820000  0.44540000  0.88990000  1
  C  C164  1  0.36530000  0.47880000  0.12410000  1
  C  C165  1  0.86530000  0.47880000  0.87590000  1
  C  C166  1  0.95210000  0.49810000  0.11300000  1
  C  C167  1  0.45210000  0.49810000  0.88700000  1
  C  C168  1  0.45210000  0.50190000  0.11300000  1
  C  C169  1  0.95210000  0.50190000  0.88700000  1
  C  C170  1  0.86530000  0.52120000  0.12410000  1
  C  C171  1  0.36530000  0.52120000  0.87590000  1
  C  C172  1  0.01820000  0.55460000  0.11010000  1
  C  C173  1  0.51820000  0.55460000  0.88990000  1
  C  C174  1  0.47480000  0.58400000  0.10550000  1
  C  C175  1  0.97480000  0.58400000  0.89450000  1
  C  C176  1  0.84420000  0.59790000  0.13280000  1
  C  C177  1  0.34420000  0.59790000  0.86720000  1
  C  C178  1  0.55200000  0.61340000  0.13470000  1
  C  C179  1  0.05200000  0.61340000  0.86530000  1
  C  C180  1  0.99720000  0.63070000  0.12100000  1
  C  C181  1  0.49720000  0.63070000  0.87900000  1
  C  C182  1  0.41810000  0.63440000  0.06970000  1
  C  C183  1  0.91810000  0.63440000  0.93030000  1
  C  C184  1  0.91090000  0.65250000  0.13100000  1
  C  C185  1  0.41090000  0.65250000  0.86900000  1
  C  C186  1  0.56870000  0.69080000  0.13000000  1
  C  C187  1  0.06870000  0.69080000  0.87000000  1
  C  C188  1  0.43870000  0.71150000  0.06810000  1
  C  C189  1  0.93870000  0.71150000  0.93190000  1
  C  C190  1  0.88880000  0.73540000  0.14100000  1
  C  C191  1  0.38880000  0.73540000  0.85900000  1
  C  C192  1  0.20540000  0.77360000  0.02660000  1
  C  C193  1  0.70540000  0.77360000  0.97340000  1
  C  C194  1  0.17760000  0.85410000  0.00450000  1
  C  C195  1  0.67760000  0.85410000  0.99550000  1
  C  C196  1  0.61120000  0.85900000  0.26460000  1
  C  C197  1  0.11120000  0.85900000  0.73540000  1
  C  C198  1  0.94800000  0.86530000  0.38660000  1
  C  C199  1  0.44800000  0.86530000  0.61340000  1
  C  C200  1  0.65580000  0.86720000  0.40210000  1
  C  C201  1  0.15580000  0.86720000  0.59790000  1
  C  C202  1  0.58910000  0.86900000  0.34750000  1
  C  C203  1  0.08910000  0.86900000  0.65250000  1
  C  C204  1  0.93130000  0.87000000  0.30920000  1
  C  C205  1  0.43130000  0.87000000  0.69080000  1
  C  C206  1  0.09740000  0.87450000  0.05070000  1
  C  C207  1  0.59740000  0.87450000  0.94930000  1
  C  C208  1  0.63470000  0.87590000  0.47880000  1
  C  C209  1  0.13470000  0.87590000  0.52120000  1
  C  C210  1  0.50280000  0.87900000  0.36930000  1
  C  C211  1  0.00280000  0.87900000  0.63070000  1
  C  C212  1  0.04790000  0.88700000  0.49810000  1
  C  C213  1  0.54790000  0.88700000  0.50190000  1
  C  C214  1  0.48180000  0.88990000  0.44540000  1
  C  C215  1  0.98180000  0.88990000  0.55460000  1
  C  C216  1  0.02520000  0.89450000  0.41600000  1
  C  C217  1  0.52520000  0.89450000  0.58400000  1
  C  C218  1  0.08190000  0.93030000  0.36560000  1
  C  C219  1  0.58190000  0.93030000  0.63440000  1
  C  C220  1  0.06130000  0.93190000  0.28850000  1
  C  C221  1  0.56130000  0.93190000  0.71150000  1
  C  C222  1  0.40260000  0.94930000  0.12550000  1
  C  C223  1  0.90260000  0.94930000  0.87450000  1
  C  C224  1  0.29460000  0.97340000  0.22640000  1
  C  C225  1  0.79460000  0.97340000  0.77360000  1
  C  C226  1  0.32240000  0.99550000  0.14590000  1
  C  C227  1  0.82240000  0.99550000  0.85410000  1
  N  N228  1  0.48720000  0.09710000  0.26000000  1
  N  N229  1  0.98720000  0.09710000  0.74000000  1
  N  N230  1  0.01280000  0.26000000  0.09710000  1
  N  N231  1  0.51280000  0.26000000  0.90290000  1
  N  N232  1  0.51280000  0.74000000  0.09710000  1
  N  N233  1  0.01280000  0.74000000  0.90290000  1
  N  N234  1  0.98720000  0.90290000  0.26000000  1
  N  N235  1  0.48720000  0.90290000  0.74000000  1
  O  O236  1  0.97720000  0.01782000  0.12223000  1
  O  O237  1  0.47720000  0.01782000  0.87777000  1
  O  O238  1  0.34150000  0.07415000  0.13949000  1
  O  O239  1  0.84150000  0.07415000  0.86051000  1
  O  O240  1  0.60360000  0.11350000  0.12163000  1
  O  O241  1  0.10360000  0.11350000  0.87837000  1
  O  O242  1  0.89640000  0.12163000  0.11350000  1
  O  O243  1  0.39640000  0.12163000  0.88650000  1
  O  O244  1  0.52280000  0.12223000  0.01782000  1
  O  O245  1  0.02280000  0.12223000  0.98218000  1
  O  O246  1  0.15850000  0.13949000  0.07415000  1
  O  O247  1  0.65850000  0.13949000  0.92585000  1
  O  O248  1  0.04890000  0.14188000  0.21725000  1
  O  O249  1  0.54890000  0.14188000  0.78275000  1
  O  O250  1  0.19300000  0.14810000  0.24901000  1
  O  O251  1  0.69300000  0.14810000  0.75099000  1
  O  O252  1  0.45110000  0.21725000  0.14188000  1
  O  O253  1  0.95110000  0.21725000  0.85812000  1
  O  O254  1  0.30700000  0.24901000  0.14810000  1
  O  O255  1  0.80700000  0.24901000  0.85190000  1
  O  O256  1  0.80700000  0.75099000  0.14810000  1
  O  O257  1  0.30700000  0.75099000  0.85190000  1
  O  O258  1  0.95110000  0.78275000  0.14188000  1
  O  O259  1  0.45110000  0.78275000  0.85812000  1
  O  O260  1  0.69300000  0.85190000  0.24901000  1
  O  O261  1  0.19300000  0.85190000  0.75099000  1
  O  O262  1  0.54890000  0.85812000  0.21725000  1
  O  O263  1  0.04890000  0.85812000  0.78275000  1
  O  O264  1  0.65850000  0.86051000  0.07415000  1
  O  O265  1  0.15850000  0.86051000  0.92585000  1
  O  O266  1  0.02280000  0.87777000  0.01782000  1
  O  O267  1  0.52280000  0.87777000  0.98218000  1
  O  O268  1  0.39640000  0.87837000  0.11350000  1
  O  O269  1  0.89640000  0.87837000  0.88650000  1
  O  O270  1  0.10360000  0.88650000  0.12163000  1
  O  O271  1  0.60360000  0.88650000  0.87837000  1
  O  O272  1  0.84150000  0.92585000  0.13949000  1
  O  O273  1  0.34150000  0.92585000  0.86051000  1
  O  O274  1  0.47720000  0.98218000  0.12223000  1
  O  O275  1  0.97720000  0.98218000  0.87777000  1
