# generated using pymatgen
data_Cd3SiH12C25O12
_symmetry_space_group_name_H-M   'P 1'
_cell_length_a   10.40600000
_cell_length_b   13.17220000
_cell_length_c   27.24420000
_cell_angle_alpha   90.00000000
_cell_angle_beta   90.00000000
_cell_angle_gamma   102.39500000
_symmetry_Int_Tables_number   1
_chemical_formula_structural   Cd3SiH12C25O12
_chemical_formula_sum   'Cd12 Si4 H48 C100 O48'
_cell_volume   3647.31598051
_cell_formula_units_Z   4
loop_
 _symmetry_equiv_pos_site_id
 _symmetry_equiv_pos_as_xyz
  1  'x, y, z'
loop_
 _atom_site_type_symbol
 _atom_site_label
 _atom_site_symmetry_multiplicity
 _atom_site_fract_x
 _atom_site_fract_y
 _atom_site_fract_z
 _atom_site_occupancy
  Cd  Cd0  1  0.97336000  0.61975000  0.92995000  1
  Cd  Cd1  1  0.77115000  0.84080000  0.81168000  1
  Cd  Cd2  1  0.76989000  0.30240000  0.61729000  1
  Cd  Cd3  1  0.73011000  0.19760000  0.11729000  1
  Cd  Cd4  1  0.72885000  0.65920000  0.31168000  1
  Cd  Cd5  1  0.52664000  0.88025000  0.42995000  1
  Cd  Cd6  1  0.47336000  0.11975000  0.57005000  1
  Cd  Cd7  1  0.27115000  0.34080000  0.68832000  1
  Cd  Cd8  1  0.26989000  0.80240000  0.88271000  1
  Cd  Cd9  1  0.23011000  0.69760000  0.38271000  1
  Cd  Cd10  1  0.22885000  0.15920000  0.18832000  1
  Cd  Cd11  1  0.02664000  0.38025000  0.07005000  1
  Si  Si12  1  0.84932000  0.68566000  0.54853000  1
  Si  Si13  1  0.65068000  0.81434000  0.04853000  1
  Si  Si14  1  0.34932000  0.18566000  0.95147000  1
  Si  Si15  1  0.15068000  0.31434000  0.45147000  1
  H  H16  1  0.99490000  0.88150000  0.43300000  1
  H  H17  1  0.97480000  0.56690000  0.73740000  1
  H  H18  1  0.97430000  0.33780000  0.50140000  1
  H  H19  1  0.96010000  0.51430000  0.59220000  1
  H  H20  1  0.91740000  0.55910000  0.49960000  1
  H  H21  1  0.90670000  0.16010000  0.45350000  1
  H  H22  1  0.89860000  0.65210000  0.46640000  1
  H  H23  1  0.86280000  0.79640000  0.97890000  1
  H  H24  1  0.85970000  0.93320000  0.11050000  1
  H  H25  1  0.84440000  0.76210000  0.64660000  1
  H  H26  1  0.80130000  0.03990000  0.96300000  1
  H  H27  1  0.78370000  0.63670000  0.05790000  1
  H  H28  1  0.71630000  0.86330000  0.55790000  1
  H  H29  1  0.69870000  0.46010000  0.46300000  1
  H  H30  1  0.65560000  0.73790000  0.14660000  1
  H  H31  1  0.64030000  0.56680000  0.61050000  1
  H  H32  1  0.63720000  0.70360000  0.47890000  1
  H  H33  1  0.60140000  0.84790000  0.96640000  1
  H  H34  1  0.59330000  0.33990000  0.95350000  1
  H  H35  1  0.58260000  0.94090000  0.99960000  1
  H  H36  1  0.53990000  0.98570000  0.09220000  1
  H  H37  1  0.52570000  0.16220000  0.00140000  1
  H  H38  1  0.52520000  0.93310000  0.23740000  1
  H  H39  1  0.50510000  0.61850000  0.93300000  1
  H  H40  1  0.49490000  0.38150000  0.06700000  1
  H  H41  1  0.47480000  0.06690000  0.76260000  1
  H  H42  1  0.47430000  0.83780000  0.99860000  1
  H  H43  1  0.46010000  0.01430000  0.90780000  1
  H  H44  1  0.41740000  0.05910000  0.00040000  1
  H  H45  1  0.40670000  0.66010000  0.04650000  1
  H  H46  1  0.39860000  0.15210000  0.03360000  1
  H  H47  1  0.36280000  0.29640000  0.52110000  1
  H  H48  1  0.35970000  0.43320000  0.38950000  1
  H  H49  1  0.34440000  0.26210000  0.85340000  1
  H  H50  1  0.30130000  0.53990000  0.53700000  1
  H  H51  1  0.28370000  0.13670000  0.44210000  1
  H  H52  1  0.21630000  0.36330000  0.94210000  1
  H  H53  1  0.19870000  0.96010000  0.03700000  1
  H  H54  1  0.15560000  0.23790000  0.35340000  1
  H  H55  1  0.14030000  0.06680000  0.88950000  1
  H  H56  1  0.13720000  0.20360000  0.02110000  1
  H  H57  1  0.10140000  0.34790000  0.53360000  1
  H  H58  1  0.09330000  0.83990000  0.54650000  1
  H  H59  1  0.08260000  0.44090000  0.50040000  1
  H  H60  1  0.03990000  0.48570000  0.40780000  1
  H  H61  1  0.02570000  0.66220000  0.49860000  1
  H  H62  1  0.02520000  0.43310000  0.26260000  1
  H  H63  1  0.00510000  0.11850000  0.56700000  1
  C  C64  1  0.97820000  0.04680000  0.56346000  1
  C  C65  1  0.97690000  0.57310000  0.32769000  1
  C  C66  1  0.97550000  0.52590000  0.66583000  1
  C  C67  1  0.96950000  0.12040000  0.44883000  1
  C  C68  1  0.96100000  0.04170000  0.92064000  1
  C  C69  1  0.95740000  0.12700000  0.99839000  1
  C  C70  1  0.95430000  0.58560000  0.70595000  1
  C  C71  1  0.94690000  0.55550000  0.61871000  1
  C  C72  1  0.93290000  0.63350000  0.49708000  1
  C  C73  1  0.92930000  0.01390000  0.44154000  1
  C  C74  1  0.90660000  0.83620000  0.00445000  1
  C  C75  1  0.90460000  0.91900000  0.08272000  1
  C  C76  1  0.90230000  0.67360000  0.69876000  1
  C  C77  1  0.89930000  0.64470000  0.61004000  1
  C  C78  1  0.89680000  0.83100000  0.55079000  1
  C  C79  1  0.89170000  0.06540000  0.96098000  1
  C  C80  1  0.89050000  0.96950000  0.88220000  1
  C  C81  1  0.88130000  0.15150000  0.04177000  1
  C  C82  1  0.87710000  0.70240000  0.65127000  1
  C  C83  1  0.86830000  0.73670000  0.74054000  1
  C  C84  1  0.84490000  0.00040000  0.56324000  1
  C  C85  1  0.83470000  0.85830000  0.04512000  1
  C  C86  1  0.80560000  0.89380000  0.55741000  1
  C  C87  1  0.78540000  0.96470000  0.43894000  1
  C  C88  1  0.75310000  0.43180000  0.06909000  1
  C  C89  1  0.74690000  0.06820000  0.56909000  1
  C  C90  1  0.71460000  0.53530000  0.93894000  1
  C  C91  1  0.69440000  0.60620000  0.05741000  1
  C  C92  1  0.66530000  0.64170000  0.54512000  1
  C  C93  1  0.65510000  0.49960000  0.06324000  1
  C  C94  1  0.63170000  0.76330000  0.24054000  1
  C  C95  1  0.62290000  0.79760000  0.15127000  1
  C  C96  1  0.61870000  0.34850000  0.54177000  1
  C  C97  1  0.60950000  0.53050000  0.38220000  1
  C  C98  1  0.60830000  0.43460000  0.46098000  1
  C  C99  1  0.60320000  0.66900000  0.05079000  1
  C  C100  1  0.60070000  0.85530000  0.11004000  1
  C  C101  1  0.59770000  0.82640000  0.19876000  1
  C  C102  1  0.59540000  0.58100000  0.58272000  1
  C  C103  1  0.59340000  0.66380000  0.50445000  1
  C  C104  1  0.57070000  0.48610000  0.94154000  1
  C  C105  1  0.56710000  0.86650000  0.99708000  1
  C  C106  1  0.55310000  0.94450000  0.11871000  1
  C  C107  1  0.54570000  0.91440000  0.20595000  1
  C  C108  1  0.54260000  0.37300000  0.49839000  1
  C  C109  1  0.53900000  0.45830000  0.42064000  1
  C  C110  1  0.53050000  0.37960000  0.94883000  1
  C  C111  1  0.52450000  0.97410000  0.16583000  1
  C  C112  1  0.52310000  0.92690000  0.82769000  1
  C  C113  1  0.52180000  0.45320000  0.06346000  1
  C  C114  1  0.47820000  0.54680000  0.93654000  1
  C  C115  1  0.47690000  0.07310000  0.17231000  1
  C  C116  1  0.47550000  0.02590000  0.83417000  1
  C  C117  1  0.46950000  0.62040000  0.05117000  1
  C  C118  1  0.46100000  0.54170000  0.57936000  1
  C  C119  1  0.45740000  0.62700000  0.50161000  1
  C  C120  1  0.45430000  0.08560000  0.79405000  1
  C  C121  1  0.44690000  0.05550000  0.88129000  1
  C  C122  1  0.43290000  0.13350000  0.00292000  1
  C  C123  1  0.42930000  0.51390000  0.05846000  1
  C  C124  1  0.40660000  0.33620000  0.49555000  1
  C  C125  1  0.40460000  0.41900000  0.41728000  1
  C  C126  1  0.40230000  0.17360000  0.80124000  1
  C  C127  1  0.39930000  0.14470000  0.88996000  1
  C  C128  1  0.39680000  0.33100000  0.94921000  1
  C  C129  1  0.39170000  0.56540000  0.53902000  1
  C  C130  1  0.39050000  0.46950000  0.61780000  1
  C  C131  1  0.38130000  0.65150000  0.45823000  1
  C  C132  1  0.37710000  0.20240000  0.84873000  1
  C  C133  1  0.36830000  0.23670000  0.75946000  1
  C  C134  1  0.34490000  0.50040000  0.93676000  1
  C  C135  1  0.33470000  0.35830000  0.45488000  1
  C  C136  1  0.30560000  0.39380000  0.94259000  1
  C  C137  1  0.28540000  0.46470000  0.06106000  1
  C  C138  1  0.25310000  0.93180000  0.43091000  1
  C  C139  1  0.24690000  0.56820000  0.93091000  1
  C  C140  1  0.21460000  0.03530000  0.56106000  1
  C  C141  1  0.19440000  0.10620000  0.44259000  1
  C  C142  1  0.16530000  0.14170000  0.95488000  1
  C  C143  1  0.15510000  0.99960000  0.43676000  1
  C  C144  1  0.13170000  0.26330000  0.25946000  1
  C  C145  1  0.12290000  0.29760000  0.34873000  1
  C  C146  1  0.11870000  0.84850000  0.95823000  1
  C  C147  1  0.10950000  0.03050000  0.11780000  1
  C  C148  1  0.10830000  0.93460000  0.03902000  1
  C  C149  1  0.10320000  0.16900000  0.44921000  1
  C  C150  1  0.10070000  0.35530000  0.38996000  1
  C  C151  1  0.09770000  0.32640000  0.30124000  1
  C  C152  1  0.09540000  0.08100000  0.91728000  1
  C  C153  1  0.09340000  0.16380000  0.99555000  1
  C  C154  1  0.07070000  0.98610000  0.55846000  1
  C  C155  1  0.06710000  0.36650000  0.50292000  1
  C  C156  1  0.05310000  0.44450000  0.38129000  1
  C  C157  1  0.04570000  0.41440000  0.29405000  1
  C  C158  1  0.04260000  0.87300000  0.00161000  1
  C  C159  1  0.03900000  0.95830000  0.07936000  1
  C  C160  1  0.03050000  0.87960000  0.55117000  1
  C  C161  1  0.02450000  0.47410000  0.33417000  1
  C  C162  1  0.02310000  0.42690000  0.67231000  1
  C  C163  1  0.02180000  0.95320000  0.43654000  1
  O  O164  1  0.97630000  0.35120000  0.64437000  1
  O  O165  1  0.95010000  0.95500000  0.84290000  1
  O  O166  1  0.94130000  0.21130000  0.07554000  1
  O  O167  1  0.89030000  0.57460000  0.29550000  1
  O  O168  1  0.87650000  0.70710000  0.78386000  1
  O  O169  1  0.87340000  0.47760000  0.07113000  1
  O  O170  1  0.82690000  0.81730000  0.73202000  1
  O  O171  1  0.79780000  0.48330000  0.95033000  1
  O  O172  1  0.78790000  0.16370000  0.57120000  1
  O  O173  1  0.77510000  0.92310000  0.88967000  1
  O  O174  1  0.76100000  0.11180000  0.04568000  1
  O  O175  1  0.75010000  0.62810000  0.92455000  1
  O  O176  1  0.74990000  0.87190000  0.42455000  1
  O  O177  1  0.73900000  0.38820000  0.54568000  1
  O  O178  1  0.72490000  0.57690000  0.38967000  1
  O  O179  1  0.71210000  0.33630000  0.07120000  1
  O  O180  1  0.70220000  0.01670000  0.45033000  1
  O  O181  1  0.67310000  0.68270000  0.23202000  1
  O  O182  1  0.62660000  0.02240000  0.57113000  1
  O  O183  1  0.62350000  0.79290000  0.28386000  1
  O  O184  1  0.60970000  0.92540000  0.79550000  1
  O  O185  1  0.55870000  0.28870000  0.57554000  1
  O  O186  1  0.54990000  0.54500000  0.34290000  1
  O  O187  1  0.52370000  0.14880000  0.14437000  1
  O  O188  1  0.47630000  0.85120000  0.85563000  1
  O  O189  1  0.45010000  0.45500000  0.65710000  1
  O  O190  1  0.44130000  0.71130000  0.42446000  1
  O  O191  1  0.39030000  0.07460000  0.20450000  1
  O  O192  1  0.37650000  0.20710000  0.71614000  1
  O  O193  1  0.37340000  0.97760000  0.42887000  1
  O  O194  1  0.32690000  0.31730000  0.76798000  1
  O  O195  1  0.29780000  0.98330000  0.54967000  1
  O  O196  1  0.28790000  0.66370000  0.92880000  1
  O  O197  1  0.27510000  0.42310000  0.61033000  1
  O  O198  1  0.26100000  0.61180000  0.45432000  1
  O  O199  1  0.25010000  0.12810000  0.57545000  1
  O  O200  1  0.24990000  0.37190000  0.07545000  1
  O  O201  1  0.23900000  0.88820000  0.95432000  1
  O  O202  1  0.22490000  0.07690000  0.11033000  1
  O  O203  1  0.21210000  0.83630000  0.42880000  1
  O  O204  1  0.20220000  0.51670000  0.04967000  1
  O  O205  1  0.17310000  0.18270000  0.26798000  1
  O  O206  1  0.12660000  0.52240000  0.92887000  1
  O  O207  1  0.12350000  0.29290000  0.21614000  1
  O  O208  1  0.10970000  0.42540000  0.70450000  1
  O  O209  1  0.05870000  0.78870000  0.92446000  1
  O  O210  1  0.04990000  0.04500000  0.15710000  1
  O  O211  1  0.02370000  0.64880000  0.35563000  1
