# generated using pymatgen
data_Zn2H8C15O7
_symmetry_space_group_name_H-M   'P 1'
_cell_length_a   16.27820000
_cell_length_b   16.27820000
_cell_length_c   30.49920000
_cell_angle_alpha   90.00000000
_cell_angle_beta   90.00000000
_cell_angle_gamma   90.00000000
_symmetry_Int_Tables_number   1
_chemical_formula_structural   Zn2H8C15O7
_chemical_formula_sum   'Zn32 H128 C240 O112'
_cell_volume   8081.67177098
_cell_formula_units_Z   16
loop_
 _symmetry_equiv_pos_site_id
 _symmetry_equiv_pos_as_xyz
  1  'x, y, z'
loop_
 _atom_site_type_symbol
 _atom_site_label
 _atom_site_symmetry_multiplicity
 _atom_site_fract_x
 _atom_site_fract_y
 _atom_site_fract_z
 _atom_site_occupancy
  Zn  Zn0  1  0.09004000  0.13883000  0.20387000  1
  Zn  Zn1  1  0.09004000  0.36117000  0.70387000  1
  Zn  Zn2  1  0.11400000  0.12468000  0.10030000  1
  Zn  Zn3  1  0.11400000  0.37532000  0.60030000  1
  Zn  Zn4  1  0.12468000  0.11400000  0.60030000  1
  Zn  Zn5  1  0.12468000  0.38600000  0.10030000  1
  Zn  Zn6  1  0.13883000  0.09004000  0.70387000  1
  Zn  Zn7  1  0.13883000  0.40996000  0.20387000  1
  Zn  Zn8  1  0.36117000  0.09004000  0.20387000  1
  Zn  Zn9  1  0.36117000  0.40996000  0.70387000  1
  Zn  Zn10  1  0.37532000  0.11400000  0.10030000  1
  Zn  Zn11  1  0.37532000  0.38600000  0.60030000  1
  Zn  Zn12  1  0.38600000  0.12468000  0.60030000  1
  Zn  Zn13  1  0.38600000  0.37532000  0.10030000  1
  Zn  Zn14  1  0.40996000  0.13883000  0.70387000  1
  Zn  Zn15  1  0.40996000  0.36117000  0.20387000  1
  Zn  Zn16  1  0.59004000  0.63883000  0.79613000  1
  Zn  Zn17  1  0.59004000  0.86117000  0.29613000  1
  Zn  Zn18  1  0.61400000  0.62468000  0.89970000  1
  Zn  Zn19  1  0.61400000  0.87532000  0.39970000  1
  Zn  Zn20  1  0.62468000  0.61400000  0.39970000  1
  Zn  Zn21  1  0.62468000  0.88600000  0.89970000  1
  Zn  Zn22  1  0.63883000  0.59004000  0.29613000  1
  Zn  Zn23  1  0.63883000  0.90996000  0.79613000  1
  Zn  Zn24  1  0.86117000  0.59004000  0.79613000  1
  Zn  Zn25  1  0.86117000  0.90996000  0.29613000  1
  Zn  Zn26  1  0.87532000  0.61400000  0.89970000  1
  Zn  Zn27  1  0.87532000  0.88600000  0.39970000  1
  Zn  Zn28  1  0.88600000  0.62468000  0.39970000  1
  Zn  Zn29  1  0.88600000  0.87532000  0.89970000  1
  Zn  Zn30  1  0.90996000  0.63883000  0.29613000  1
  Zn  Zn31  1  0.90996000  0.86117000  0.79613000  1
  H  H32  1  0.00470000  0.60670000  0.97120000  1
  H  H33  1  0.00470000  0.89330000  0.47120000  1
  H  H34  1  0.01790000  0.09650000  0.78060000  1
  H  H35  1  0.01790000  0.40350000  0.28060000  1
  H  H36  1  0.02150000  0.61240000  0.58850000  1
  H  H37  1  0.02150000  0.88760000  0.08850000  1
  H  H38  1  0.03110000  0.62550000  0.10240000  1
  H  H39  1  0.03110000  0.87450000  0.60240000  1
  H  H40  1  0.04200000  0.54960000  0.03850000  1
  H  H41  1  0.04200000  0.95040000  0.53850000  1
  H  H42  1  0.04960000  0.54200000  0.46150000  1
  H  H43  1  0.04960000  0.95800000  0.96150000  1
  H  H44  1  0.05220000  0.18010000  0.96710000  1
  H  H45  1  0.05220000  0.31990000  0.46710000  1
  H  H46  1  0.05940000  0.18970000  0.34470000  1
  H  H47  1  0.05940000  0.31030000  0.84470000  1
  H  H48  1  0.09650000  0.01790000  0.28060000  1
  H  H49  1  0.09650000  0.48210000  0.78060000  1
  H  H50  1  0.10670000  0.50470000  0.52880000  1
  H  H51  1  0.10670000  0.99530000  0.02880000  1
  H  H52  1  0.11240000  0.52150000  0.91150000  1
  H  H53  1  0.11240000  0.97850000  0.41150000  1
  H  H54  1  0.12550000  0.53110000  0.39760000  1
  H  H55  1  0.12550000  0.96890000  0.89760000  1
  H  H56  1  0.15100000  0.22860000  0.15660000  1
  H  H57  1  0.15100000  0.27140000  0.65660000  1
  H  H58  1  0.18010000  0.05220000  0.46710000  1
  H  H59  1  0.18010000  0.44780000  0.96710000  1
  H  H60  1  0.18970000  0.05940000  0.84470000  1
  H  H61  1  0.18970000  0.44060000  0.34470000  1
  H  H62  1  0.22860000  0.15100000  0.65660000  1
  H  H63  1  0.22860000  0.34900000  0.15660000  1
  H  H64  1  0.27140000  0.15100000  0.15660000  1
  H  H65  1  0.27140000  0.34900000  0.65660000  1
  H  H66  1  0.31030000  0.05940000  0.34470000  1
  H  H67  1  0.31030000  0.44060000  0.84470000  1
  H  H68  1  0.31990000  0.05220000  0.96710000  1
  H  H69  1  0.31990000  0.44780000  0.46710000  1
  H  H70  1  0.34900000  0.22860000  0.65660000  1
  H  H71  1  0.34900000  0.27140000  0.15660000  1
  H  H72  1  0.37450000  0.53110000  0.89760000  1
  H  H73  1  0.37450000  0.96890000  0.39760000  1
  H  H74  1  0.38760000  0.52150000  0.41150000  1
  H  H75  1  0.38760000  0.97850000  0.91150000  1
  H  H76  1  0.39330000  0.50470000  0.02880000  1
  H  H77  1  0.39330000  0.99530000  0.52880000  1
  H  H78  1  0.40350000  0.01790000  0.78060000  1
  H  H79  1  0.40350000  0.48210000  0.28060000  1
  H  H80  1  0.44060000  0.18970000  0.84470000  1
  H  H81  1  0.44060000  0.31030000  0.34470000  1
  H  H82  1  0.44780000  0.18010000  0.46710000  1
  H  H83  1  0.44780000  0.31990000  0.96710000  1
  H  H84  1  0.45040000  0.54200000  0.96150000  1
  H  H85  1  0.45040000  0.95800000  0.46150000  1
  H  H86  1  0.45800000  0.54960000  0.53850000  1
  H  H87  1  0.45800000  0.95040000  0.03850000  1
  H  H88  1  0.46890000  0.62550000  0.60240000  1
  H  H89  1  0.46890000  0.87450000  0.10240000  1
  H  H90  1  0.47850000  0.61240000  0.08850000  1
  H  H91  1  0.47850000  0.88760000  0.58850000  1
  H  H92  1  0.48210000  0.09650000  0.28060000  1
  H  H93  1  0.48210000  0.40350000  0.78060000  1
  H  H94  1  0.49530000  0.60670000  0.47120000  1
  H  H95  1  0.49530000  0.89330000  0.97120000  1
  H  H96  1  0.50470000  0.10670000  0.02880000  1
  H  H97  1  0.50470000  0.39330000  0.52880000  1
  H  H98  1  0.51790000  0.59650000  0.21940000  1
  H  H99  1  0.51790000  0.90350000  0.71940000  1
  H  H100  1  0.52150000  0.11240000  0.41150000  1
  H  H101  1  0.52150000  0.38760000  0.91150000  1
  H  H102  1  0.53110000  0.12550000  0.89760000  1
  H  H103  1  0.53110000  0.37450000  0.39760000  1
  H  H104  1  0.54200000  0.04960000  0.96150000  1
  H  H105  1  0.54200000  0.45040000  0.46150000  1
  H  H106  1  0.54960000  0.04200000  0.53850000  1
  H  H107  1  0.54960000  0.45800000  0.03850000  1
  H  H108  1  0.55220000  0.68010000  0.03290000  1
  H  H109  1  0.55220000  0.81990000  0.53290000  1
  H  H110  1  0.55940000  0.68970000  0.65530000  1
  H  H111  1  0.55940000  0.81030000  0.15530000  1
  H  H112  1  0.59650000  0.51790000  0.71940000  1
  H  H113  1  0.59650000  0.98210000  0.21940000  1
  H  H114  1  0.60670000  0.00470000  0.47120000  1
  H  H115  1  0.60670000  0.49530000  0.97120000  1
  H  H116  1  0.61240000  0.02150000  0.08850000  1
  H  H117  1  0.61240000  0.47850000  0.58850000  1
  H  H118  1  0.62550000  0.03110000  0.60240000  1
  H  H119  1  0.62550000  0.46890000  0.10240000  1
  H  H120  1  0.65100000  0.72860000  0.84340000  1
  H  H121  1  0.65100000  0.77140000  0.34340000  1
  H  H122  1  0.68010000  0.55220000  0.53290000  1
  H  H123  1  0.68010000  0.94780000  0.03290000  1
  H  H124  1  0.68970000  0.55940000  0.15530000  1
  H  H125  1  0.68970000  0.94060000  0.65530000  1
  H  H126  1  0.72860000  0.65100000  0.34340000  1
  H  H127  1  0.72860000  0.84900000  0.84340000  1
  H  H128  1  0.77140000  0.65100000  0.84340000  1
  H  H129  1  0.77140000  0.84900000  0.34340000  1
  H  H130  1  0.81030000  0.55940000  0.65530000  1
  H  H131  1  0.81030000  0.94060000  0.15530000  1
  H  H132  1  0.81990000  0.55220000  0.03290000  1
  H  H133  1  0.81990000  0.94780000  0.53290000  1
  H  H134  1  0.84900000  0.72860000  0.34340000  1
  H  H135  1  0.84900000  0.77140000  0.84340000  1
  H  H136  1  0.87450000  0.03110000  0.10240000  1
  H  H137  1  0.87450000  0.46890000  0.60240000  1
  H  H138  1  0.88760000  0.02150000  0.58850000  1
  H  H139  1  0.88760000  0.47850000  0.08850000  1
  H  H140  1  0.89330000  0.00470000  0.97120000  1
  H  H141  1  0.89330000  0.49530000  0.47120000  1
  H  H142  1  0.90350000  0.51790000  0.21940000  1
  H  H143  1  0.90350000  0.98210000  0.71940000  1
  H  H144  1  0.94060000  0.68970000  0.15530000  1
  H  H145  1  0.94060000  0.81030000  0.65530000  1
  H  H146  1  0.94780000  0.68010000  0.53290000  1
  H  H147  1  0.94780000  0.81990000  0.03290000  1
  H  H148  1  0.95040000  0.04200000  0.03850000  1
  H  H149  1  0.95040000  0.45800000  0.53850000  1
  H  H150  1  0.95800000  0.04960000  0.46150000  1
  H  H151  1  0.95800000  0.45040000  0.96150000  1
  H  H152  1  0.96890000  0.12550000  0.39760000  1
  H  H153  1  0.96890000  0.37450000  0.89760000  1
  H  H154  1  0.97850000  0.11240000  0.91150000  1
  H  H155  1  0.97850000  0.38760000  0.41150000  1
  H  H156  1  0.98210000  0.59650000  0.71940000  1
  H  H157  1  0.98210000  0.90350000  0.21940000  1
  H  H158  1  0.99530000  0.10670000  0.52880000  1
  H  H159  1  0.99530000  0.39330000  0.02880000  1
  C  C160  1  0.00050000  0.63830000  0.99735000  1
  C  C161  1  0.00050000  0.86170000  0.49735000  1
  C  C162  1  0.00580000  0.63770000  0.61526000  1
  C  C163  1  0.00580000  0.86230000  0.11526000  1
  C  C164  1  0.00600000  0.53940000  0.84592000  1
  C  C165  1  0.00600000  0.96060000  0.34592000  1
  C  C166  1  0.00620000  0.59190000  0.65390000  1
  C  C167  1  0.00620000  0.90810000  0.15390000  1
  C  C168  1  0.01240000  0.23100000  0.42585000  1
  C  C169  1  0.01240000  0.26900000  0.92585000  1
  C  C170  1  0.01600000  0.64960000  0.07521000  1
  C  C171  1  0.01600000  0.85040000  0.57521000  1
  C  C172  1  0.01720000  0.22000000  0.88463000  1
  C  C173  1  0.01720000  0.28000000  0.38463000  1
  C  C174  1  0.01840000  0.12780000  0.80688000  1
  C  C175  1  0.01840000  0.37220000  0.30688000  1
  C  C176  1  0.02240000  0.60450000  0.03725000  1
  C  C177  1  0.02240000  0.89550000  0.53725000  1
  C  C178  1  0.02810000  0.21930000  0.50433000  1
  C  C179  1  0.02810000  0.28070000  0.00433000  1
  C  C180  1  0.03360000  0.23530000  0.96586000  1
  C  C181  1  0.03360000  0.26470000  0.46586000  1
  C  C182  1  0.03940000  0.50600000  0.65408000  1
  C  C183  1  0.03940000  0.99400000  0.15408000  1
  C  C184  1  0.04250000  0.24560000  0.34526000  1
  C  C185  1  0.04250000  0.25440000  0.84526000  1
  C  C186  1  0.04360000  0.20860000  0.80605000  1
  C  C187  1  0.04360000  0.29140000  0.30605000  1
  C  C188  1  0.05400000  0.24350000  0.04660000  1
  C  C189  1  0.05400000  0.25650000  0.54660000  1
  C  C190  1  0.06680000  0.24890000  0.76416000  1
  C  C191  1  0.06680000  0.25110000  0.26416000  1
  C  C192  1  0.09190000  0.50620000  0.84610000  1
  C  C193  1  0.09190000  0.99380000  0.34610000  1
  C  C194  1  0.10450000  0.52240000  0.46275000  1
  C  C195  1  0.10450000  0.97760000  0.96275000  1
  C  C196  1  0.12780000  0.01840000  0.30688000  1
  C  C197  1  0.12780000  0.48160000  0.80688000  1
  C  C198  1  0.13770000  0.50580000  0.88474000  1
  C  C199  1  0.13770000  0.99420000  0.38474000  1
  C  C200  1  0.13830000  0.50050000  0.50265000  1
  C  C201  1  0.13830000  0.99950000  0.00265000  1
  C  C202  1  0.14960000  0.51600000  0.42479000  1
  C  C203  1  0.14960000  0.98400000  0.92479000  1
  C  C204  1  0.20860000  0.04360000  0.30605000  1
  C  C205  1  0.20860000  0.45640000  0.80605000  1
  C  C206  1  0.21930000  0.02810000  0.00433000  1
  C  C207  1  0.21930000  0.47190000  0.50433000  1
  C  C208  1  0.22000000  0.01720000  0.38463000  1
  C  C209  1  0.22000000  0.48280000  0.88463000  1
  C  C210  1  0.23100000  0.01240000  0.92585000  1
  C  C211  1  0.23100000  0.48760000  0.42585000  1
  C  C212  1  0.23530000  0.03360000  0.46586000  1
  C  C213  1  0.23530000  0.46640000  0.96586000  1
  C  C214  1  0.24350000  0.05400000  0.54660000  1
  C  C215  1  0.24350000  0.44600000  0.04660000  1
  C  C216  1  0.24560000  0.04250000  0.84526000  1
  C  C217  1  0.24560000  0.45750000  0.34526000  1
  C  C218  1  0.24890000  0.06680000  0.26416000  1
  C  C219  1  0.24890000  0.43320000  0.76416000  1
  C  C220  1  0.25110000  0.06680000  0.76416000  1
  C  C221  1  0.25110000  0.43320000  0.26416000  1
  C  C222  1  0.25440000  0.04250000  0.34526000  1
  C  C223  1  0.25440000  0.45750000  0.84526000  1
  C  C224  1  0.25650000  0.05400000  0.04660000  1
  C  C225  1  0.25650000  0.44600000  0.54660000  1
  C  C226  1  0.26470000  0.03360000  0.96586000  1
  C  C227  1  0.26470000  0.46640000  0.46586000  1
  C  C228  1  0.26900000  0.01240000  0.42585000  1
  C  C229  1  0.26900000  0.48760000  0.92585000  1
  C  C230  1  0.28000000  0.01720000  0.88463000  1
  C  C231  1  0.28000000  0.48280000  0.38463000  1
  C  C232  1  0.28070000  0.02810000  0.50433000  1
  C  C233  1  0.28070000  0.47190000  0.00433000  1
  C  C234  1  0.29140000  0.04360000  0.80605000  1
  C  C235  1  0.29140000  0.45640000  0.30605000  1
  C  C236  1  0.35040000  0.51600000  0.92479000  1
  C  C237  1  0.35040000  0.98400000  0.42479000  1
  C  C238  1  0.36170000  0.50050000  0.00265000  1
  C  C239  1  0.36170000  0.99950000  0.50265000  1
  C  C240  1  0.36230000  0.50580000  0.38474000  1
  C  C241  1  0.36230000  0.99420000  0.88474000  1
  C  C242  1  0.37220000  0.01840000  0.80688000  1
  C  C243  1  0.37220000  0.48160000  0.30688000  1
  C  C244  1  0.39550000  0.52240000  0.96275000  1
  C  C245  1  0.39550000  0.97760000  0.46275000  1
  C  C246  1  0.40810000  0.50620000  0.34610000  1
  C  C247  1  0.40810000  0.99380000  0.84610000  1
  C  C248  1  0.43320000  0.24890000  0.26416000  1
  C  C249  1  0.43320000  0.25110000  0.76416000  1
  C  C250  1  0.44600000  0.24350000  0.54660000  1
  C  C251  1  0.44600000  0.25650000  0.04660000  1
  C  C252  1  0.45640000  0.20860000  0.30605000  1
  C  C253  1  0.45640000  0.29140000  0.80605000  1
  C  C254  1  0.45750000  0.24560000  0.84526000  1
  C  C255  1  0.45750000  0.25440000  0.34526000  1
  C  C256  1  0.46060000  0.50600000  0.15408000  1
  C  C257  1  0.46060000  0.99400000  0.65408000  1
  C  C258  1  0.46640000  0.23530000  0.46586000  1
  C  C259  1  0.46640000  0.26470000  0.96586000  1
  C  C260  1  0.47190000  0.21930000  0.00433000  1
  C  C261  1  0.47190000  0.28070000  0.50433000  1
  C  C262  1  0.47760000  0.60450000  0.53725000  1
  C  C263  1  0.47760000  0.89550000  0.03725000  1
  C  C264  1  0.48160000  0.12780000  0.30688000  1
  C  C265  1  0.48160000  0.37220000  0.80688000  1
  C  C266  1  0.48280000  0.22000000  0.38463000  1
  C  C267  1  0.48280000  0.28000000  0.88463000  1
  C  C268  1  0.48400000  0.64960000  0.57521000  1
  C  C269  1  0.48400000  0.85040000  0.07521000  1
  C  C270  1  0.48760000  0.23100000  0.92585000  1
  C  C271  1  0.48760000  0.26900000  0.42585000  1
  C  C272  1  0.49380000  0.59190000  0.15390000  1
  C  C273  1  0.49380000  0.90810000  0.65390000  1
  C  C274  1  0.49400000  0.53940000  0.34592000  1
  C  C275  1  0.49400000  0.96060000  0.84592000  1
  C  C276  1  0.49420000  0.63770000  0.11526000  1
  C  C277  1  0.49420000  0.86230000  0.61526000  1
  C  C278  1  0.49950000  0.63830000  0.49735000  1
  C  C279  1  0.49950000  0.86170000  0.99735000  1
  C  C280  1  0.50050000  0.13830000  0.00265000  1
  C  C281  1  0.50050000  0.36170000  0.50265000  1
  C  C282  1  0.50580000  0.13770000  0.38474000  1
  C  C283  1  0.50580000  0.36230000  0.88474000  1
  C  C284  1  0.50600000  0.03940000  0.15408000  1
  C  C285  1  0.50600000  0.46060000  0.65408000  1
  C  C286  1  0.50620000  0.09190000  0.34610000  1
  C  C287  1  0.50620000  0.40810000  0.84610000  1
  C  C288  1  0.51240000  0.73100000  0.57415000  1
  C  C289  1  0.51240000  0.76900000  0.07415000  1
  C  C290  1  0.51600000  0.14960000  0.92479000  1
  C  C291  1  0.51600000  0.35040000  0.42479000  1
  C  C292  1  0.51720000  0.72000000  0.11537000  1
  C  C293  1  0.51720000  0.78000000  0.61537000  1
  C  C294  1  0.51840000  0.62780000  0.19312000  1
  C  C295  1  0.51840000  0.87220000  0.69312000  1
  C  C296  1  0.52240000  0.10450000  0.96275000  1
  C  C297  1  0.52240000  0.39550000  0.46275000  1
  C  C298  1  0.52810000  0.71930000  0.49567000  1
  C  C299  1  0.52810000  0.78070000  0.99567000  1
  C  C300  1  0.53360000  0.73530000  0.03414000  1
  C  C301  1  0.53360000  0.76470000  0.53414000  1
  C  C302  1  0.53940000  0.00600000  0.34592000  1
  C  C303  1  0.53940000  0.49400000  0.84592000  1
  C  C304  1  0.54250000  0.74560000  0.65474000  1
  C  C305  1  0.54250000  0.75440000  0.15474000  1
  C  C306  1  0.54360000  0.70860000  0.19395000  1
  C  C307  1  0.54360000  0.79140000  0.69395000  1
  C  C308  1  0.55400000  0.74350000  0.95340000  1
  C  C309  1  0.55400000  0.75650000  0.45340000  1
  C  C310  1  0.56680000  0.74890000  0.23584000  1
  C  C311  1  0.56680000  0.75110000  0.73584000  1
  C  C312  1  0.59190000  0.00620000  0.15390000  1
  C  C313  1  0.59190000  0.49380000  0.65390000  1
  C  C314  1  0.60450000  0.02240000  0.53725000  1
  C  C315  1  0.60450000  0.47760000  0.03725000  1
  C  C316  1  0.62780000  0.51840000  0.69312000  1
  C  C317  1  0.62780000  0.98160000  0.19312000  1
  C  C318  1  0.63770000  0.00580000  0.11526000  1
  C  C319  1  0.63770000  0.49420000  0.61526000  1
  C  C320  1  0.63830000  0.00050000  0.49735000  1
  C  C321  1  0.63830000  0.49950000  0.99735000  1
  C  C322  1  0.64960000  0.01600000  0.57521000  1
  C  C323  1  0.64960000  0.48400000  0.07521000  1
  C  C324  1  0.70860000  0.54360000  0.69395000  1
  C  C325  1  0.70860000  0.95640000  0.19395000  1
  C  C326  1  0.71930000  0.52810000  0.99567000  1
  C  C327  1  0.71930000  0.97190000  0.49567000  1
  C  C328  1  0.72000000  0.51720000  0.61537000  1
  C  C329  1  0.72000000  0.98280000  0.11537000  1
  C  C330  1  0.73100000  0.51240000  0.07415000  1
  C  C331  1  0.73100000  0.98760000  0.57415000  1
  C  C332  1  0.73530000  0.53360000  0.53414000  1
  C  C333  1  0.73530000  0.96640000  0.03414000  1
  C  C334  1  0.74350000  0.55400000  0.45340000  1
  C  C335  1  0.74350000  0.94600000  0.95340000  1
  C  C336  1  0.74560000  0.54250000  0.15474000  1
  C  C337  1  0.74560000  0.95750000  0.65474000  1
  C  C338  1  0.74890000  0.56680000  0.73584000  1
  C  C339  1  0.74890000  0.93320000  0.23584000  1
  C  C340  1  0.75110000  0.56680000  0.23584000  1
  C  C341  1  0.75110000  0.93320000  0.73584000  1
  C  C342  1  0.75440000  0.54250000  0.65474000  1
  C  C343  1  0.75440000  0.95750000  0.15474000  1
  C  C344  1  0.75650000  0.55400000  0.95340000  1
  C  C345  1  0.75650000  0.94600000  0.45340000  1
  C  C346  1  0.76470000  0.53360000  0.03414000  1
  C  C347  1  0.76470000  0.96640000  0.53414000  1
  C  C348  1  0.76900000  0.51240000  0.57415000  1
  C  C349  1  0.76900000  0.98760000  0.07415000  1
  C  C350  1  0.78000000  0.51720000  0.11537000  1
  C  C351  1  0.78000000  0.98280000  0.61537000  1
  C  C352  1  0.78070000  0.52810000  0.49567000  1
  C  C353  1  0.78070000  0.97190000  0.99567000  1
  C  C354  1  0.79140000  0.54360000  0.19395000  1
  C  C355  1  0.79140000  0.95640000  0.69395000  1
  C  C356  1  0.85040000  0.01600000  0.07521000  1
  C  C357  1  0.85040000  0.48400000  0.57521000  1
  C  C358  1  0.86170000  0.00050000  0.99735000  1
  C  C359  1  0.86170000  0.49950000  0.49735000  1
  C  C360  1  0.86230000  0.00580000  0.61526000  1
  C  C361  1  0.86230000  0.49420000  0.11526000  1
  C  C362  1  0.87220000  0.51840000  0.19312000  1
  C  C363  1  0.87220000  0.98160000  0.69312000  1
  C  C364  1  0.89550000  0.02240000  0.03725000  1
  C  C365  1  0.89550000  0.47760000  0.53725000  1
  C  C366  1  0.90810000  0.00620000  0.65390000  1
  C  C367  1  0.90810000  0.49380000  0.15390000  1
  C  C368  1  0.93320000  0.74890000  0.73584000  1
  C  C369  1  0.93320000  0.75110000  0.23584000  1
  C  C370  1  0.94600000  0.74350000  0.45340000  1
  C  C371  1  0.94600000  0.75650000  0.95340000  1
  C  C372  1  0.95640000  0.70860000  0.69395000  1
  C  C373  1  0.95640000  0.79140000  0.19395000  1
  C  C374  1  0.95750000  0.74560000  0.15474000  1
  C  C375  1  0.95750000  0.75440000  0.65474000  1
  C  C376  1  0.96060000  0.00600000  0.84592000  1
  C  C377  1  0.96060000  0.49400000  0.34592000  1
  C  C378  1  0.96640000  0.73530000  0.53414000  1
  C  C379  1  0.96640000  0.76470000  0.03414000  1
  C  C380  1  0.97190000  0.71930000  0.99567000  1
  C  C381  1  0.97190000  0.78070000  0.49567000  1
  C  C382  1  0.97760000  0.10450000  0.46275000  1
  C  C383  1  0.97760000  0.39550000  0.96275000  1
  C  C384  1  0.98160000  0.62780000  0.69312000  1
  C  C385  1  0.98160000  0.87220000  0.19312000  1
  C  C386  1  0.98280000  0.72000000  0.61537000  1
  C  C387  1  0.98280000  0.78000000  0.11537000  1
  C  C388  1  0.98400000  0.14960000  0.42479000  1
  C  C389  1  0.98400000  0.35040000  0.92479000  1
  C  C390  1  0.98760000  0.73100000  0.07415000  1
  C  C391  1  0.98760000  0.76900000  0.57415000  1
  C  C392  1  0.99380000  0.09190000  0.84610000  1
  C  C393  1  0.99380000  0.40810000  0.34610000  1
  C  C394  1  0.99400000  0.03940000  0.65408000  1
  C  C395  1  0.99400000  0.46060000  0.15408000  1
  C  C396  1  0.99420000  0.13770000  0.88474000  1
  C  C397  1  0.99420000  0.36230000  0.38474000  1
  C  C398  1  0.99950000  0.13830000  0.50265000  1
  C  C399  1  0.99950000  0.36170000  0.00265000  1
  O  O400  1  0.02438000  0.05630000  0.69043000  1
  O  O401  1  0.02438000  0.44370000  0.19043000  1
  O  O402  1  0.02860000  0.04770000  0.61728000  1
  O  O403  1  0.02860000  0.45230000  0.11728000  1
  O  O404  1  0.04770000  0.02860000  0.11728000  1
  O  O405  1  0.04770000  0.47140000  0.61728000  1
  O  O406  1  0.05630000  0.02438000  0.19043000  1
  O  O407  1  0.05630000  0.47562000  0.69043000  1
  O  O408  1  0.05850000  0.17320000  0.26293000  1
  O  O409  1  0.05850000  0.32680000  0.76293000  1
  O  O410  1  0.06110000  0.16630000  0.04762000  1
  O  O411  1  0.06110000  0.33370000  0.54762000  1
  O  O412  1  0.06700000  0.21410000  0.57984000  1
  O  O413  1  0.06700000  0.28590000  0.07984000  1
  O  O414  1  0.09020000  0.20840000  0.73184000  1
  O  O415  1  0.09020000  0.29160000  0.23184000  1
  O  O416  1  0.14940000  0.17742000  0.15299000  1
  O  O417  1  0.14940000  0.32258000  0.65299000  1
  O  O418  1  0.16630000  0.06110000  0.54762000  1
  O  O419  1  0.16630000  0.43890000  0.04762000  1
  O  O420  1  0.17320000  0.05850000  0.76293000  1
  O  O421  1  0.17320000  0.44150000  0.26293000  1
  O  O422  1  0.17742000  0.14940000  0.65299000  1
  O  O423  1  0.17742000  0.35060000  0.15299000  1
  O  O424  1  0.20840000  0.09020000  0.23184000  1
  O  O425  1  0.20840000  0.40980000  0.73184000  1
  O  O426  1  0.21410000  0.06700000  0.07984000  1
  O  O427  1  0.21410000  0.43300000  0.57984000  1
  O  O428  1  0.28590000  0.06700000  0.57984000  1
  O  O429  1  0.28590000  0.43300000  0.07984000  1
  O  O430  1  0.29160000  0.09020000  0.73184000  1
  O  O431  1  0.29160000  0.40980000  0.23184000  1
  O  O432  1  0.32258000  0.14940000  0.15299000  1
  O  O433  1  0.32258000  0.35060000  0.65299000  1
  O  O434  1  0.32680000  0.05850000  0.26293000  1
  O  O435  1  0.32680000  0.44150000  0.76293000  1
  O  O436  1  0.33370000  0.06110000  0.04762000  1
  O  O437  1  0.33370000  0.43890000  0.54762000  1
  O  O438  1  0.35060000  0.17742000  0.65299000  1
  O  O439  1  0.35060000  0.32258000  0.15299000  1
  O  O440  1  0.40980000  0.20840000  0.23184000  1
  O  O441  1  0.40980000  0.29160000  0.73184000  1
  O  O442  1  0.43300000  0.21410000  0.07984000  1
  O  O443  1  0.43300000  0.28590000  0.57984000  1
  O  O444  1  0.43890000  0.16630000  0.54762000  1
  O  O445  1  0.43890000  0.33370000  0.04762000  1
  O  O446  1  0.44150000  0.17320000  0.76293000  1
  O  O447  1  0.44150000  0.32680000  0.26293000  1
  O  O448  1  0.44370000  0.02438000  0.69043000  1
  O  O449  1  0.44370000  0.47562000  0.19043000  1
  O  O450  1  0.45230000  0.02860000  0.61728000  1
  O  O451  1  0.45230000  0.47140000  0.11728000  1
  O  O452  1  0.47140000  0.04770000  0.11728000  1
  O  O453  1  0.47140000  0.45230000  0.61728000  1
  O  O454  1  0.47562000  0.05630000  0.19043000  1
  O  O455  1  0.47562000  0.44370000  0.69043000  1
  O  O456  1  0.52438000  0.55630000  0.30957000  1
  O  O457  1  0.52438000  0.94370000  0.80957000  1
  O  O458  1  0.52860000  0.54770000  0.38272000  1
  O  O459  1  0.52860000  0.95230000  0.88272000  1
  O  O460  1  0.54770000  0.52860000  0.88272000  1
  O  O461  1  0.54770000  0.97140000  0.38272000  1
  O  O462  1  0.55630000  0.52438000  0.80957000  1
  O  O463  1  0.55630000  0.97562000  0.30957000  1
  O  O464  1  0.55850000  0.67320000  0.73707000  1
  O  O465  1  0.55850000  0.82680000  0.23707000  1
  O  O466  1  0.56110000  0.66630000  0.95238000  1
  O  O467  1  0.56110000  0.83370000  0.45238000  1
  O  O468  1  0.56700000  0.71410000  0.42016000  1
  O  O469  1  0.56700000  0.78590000  0.92016000  1
  O  O470  1  0.59020000  0.70840000  0.26816000  1
  O  O471  1  0.59020000  0.79160000  0.76816000  1
  O  O472  1  0.64940000  0.67742000  0.84701000  1
  O  O473  1  0.64940000  0.82258000  0.34701000  1
  O  O474  1  0.66630000  0.56110000  0.45238000  1
  O  O475  1  0.66630000  0.93890000  0.95238000  1
  O  O476  1  0.67320000  0.55850000  0.23707000  1
  O  O477  1  0.67320000  0.94150000  0.73707000  1
  O  O478  1  0.67742000  0.64940000  0.34701000  1
  O  O479  1  0.67742000  0.85060000  0.84701000  1
  O  O480  1  0.70840000  0.59020000  0.76816000  1
  O  O481  1  0.70840000  0.90980000  0.26816000  1
  O  O482  1  0.71410000  0.56700000  0.92016000  1
  O  O483  1  0.71410000  0.93300000  0.42016000  1
  O  O484  1  0.78590000  0.56700000  0.42016000  1
  O  O485  1  0.78590000  0.93300000  0.92016000  1
  O  O486  1  0.79160000  0.59020000  0.26816000  1
  O  O487  1  0.79160000  0.90980000  0.76816000  1
  O  O488  1  0.82258000  0.64940000  0.84701000  1
  O  O489  1  0.82258000  0.85060000  0.34701000  1
  O  O490  1  0.82680000  0.55850000  0.73707000  1
  O  O491  1  0.82680000  0.94150000  0.23707000  1
  O  O492  1  0.83370000  0.56110000  0.95238000  1
  O  O493  1  0.83370000  0.93890000  0.45238000  1
  O  O494  1  0.85060000  0.67742000  0.34701000  1
  O  O495  1  0.85060000  0.82258000  0.84701000  1
  O  O496  1  0.90980000  0.70840000  0.76816000  1
  O  O497  1  0.90980000  0.79160000  0.26816000  1
  O  O498  1  0.93300000  0.71410000  0.92016000  1
  O  O499  1  0.93300000  0.78590000  0.42016000  1
  O  O500  1  0.93890000  0.66630000  0.45238000  1
  O  O501  1  0.93890000  0.83370000  0.95238000  1
  O  O502  1  0.94150000  0.67320000  0.23707000  1
  O  O503  1  0.94150000  0.82680000  0.73707000  1
  O  O504  1  0.94370000  0.52438000  0.30957000  1
  O  O505  1  0.94370000  0.97562000  0.80957000  1
  O  O506  1  0.95230000  0.52860000  0.38272000  1
  O  O507  1  0.95230000  0.97140000  0.88272000  1
  O  O508  1  0.97140000  0.54770000  0.88272000  1
  O  O509  1  0.97140000  0.95230000  0.38272000  1
  O  O510  1  0.97562000  0.55630000  0.80957000  1
  O  O511  1  0.97562000  0.94370000  0.30957000  1
