# generated using pymatgen
data_CdH36(C4N)12
_symmetry_space_group_name_H-M   'P 1'
_cell_length_a   15.86350000
_cell_length_b   15.86350000
_cell_length_c   21.46300000
_cell_angle_alpha   90.00000000
_cell_angle_beta   90.00000000
_cell_angle_gamma   90.00000000
_symmetry_Int_Tables_number   1
_chemical_formula_structural   CdH36(C4N)12
_chemical_formula_sum   'Cd4 H144 C192 N48'
_cell_volume   5401.17751998
_cell_formula_units_Z   4
loop_
 _symmetry_equiv_pos_site_id
 _symmetry_equiv_pos_as_xyz
  1  'x, y, z'
loop_
 _atom_site_type_symbol
 _atom_site_label
 _atom_site_symmetry_multiplicity
 _atom_site_fract_x
 _atom_site_fract_y
 _atom_site_fract_z
 _atom_site_occupancy
  Cd  Cd0  1  0.05937000  0.94063000  0.25000000  1
  Cd  Cd1  1  0.44063000  0.44063000  0.00000000  1
  Cd  Cd2  1  0.55937000  0.55937000  0.50000000  1
  Cd  Cd3  1  0.94063000  0.05937000  0.75000000  1
  H  H4  1  0.00570000  0.23990000  0.82520000  1
  H  H5  1  0.00710000  0.80090000  0.79190000  1
  H  H6  1  0.02760000  0.74380000  0.60720000  1
  H  H7  1  0.03310000  0.66100000  0.03760000  1
  H  H8  1  0.03880000  0.88840000  0.40200000  1
  H  H9  1  0.04750000  0.12240000  0.46070000  1
  H  H10  1  0.06070000  0.15800000  0.65790000  1
  H  H11  1  0.06840000  0.23540000  0.52700000  1
  H  H12  1  0.08450000  0.30060000  0.33620000  1
  H  H13  1  0.08810000  0.78520000  0.46800000  1
  H  H14  1  0.09920000  0.35120000  0.81500000  1
  H  H15  1  0.10220000  0.74140000  0.64890000  1
  H  H16  1  0.11160000  0.96120000  0.09800000  1
  H  H17  1  0.12240000  0.04750000  0.53930000  1
  H  H18  1  0.13980000  0.19420000  0.13800000  1
  H  H19  1  0.14000000  0.76800000  0.20980000  1
  H  H20  1  0.14880000  0.59920000  0.06500000  1
  H  H21  1  0.15160000  0.70060000  0.53120000  1
  H  H22  1  0.15390000  0.26790000  0.64260000  1
  H  H23  1  0.15800000  0.06070000  0.34210000  1
  H  H24  1  0.16100000  0.46690000  0.78760000  1
  H  H25  1  0.17440000  0.77640000  0.90660000  1
  H  H26  1  0.19420000  0.13980000  0.86200000  1
  H  H27  1  0.19910000  0.99290000  0.70810000  1
  H  H28  1  0.19940000  0.58450000  0.58620000  1
  H  H29  1  0.20060000  0.34840000  0.28120000  1
  H  H30  1  0.21090000  0.25960000  0.89590000  1
  H  H31  1  0.21480000  0.91190000  0.03200000  1
  H  H32  1  0.22360000  0.82560000  0.59340000  1
  H  H33  1  0.23200000  0.86000000  0.29020000  1
  H  H34  1  0.23210000  0.65390000  0.89260000  1
  H  H35  1  0.23540000  0.06840000  0.47300000  1
  H  H36  1  0.23990000  0.00570000  0.17480000  1
  H  H37  1  0.24040000  0.71090000  0.14590000  1
  H  H38  1  0.24140000  0.39780000  0.39890000  1
  H  H39  1  0.24380000  0.47240000  0.35720000  1
  H  H40  1  0.25620000  0.97240000  0.89280000  1
  H  H41  1  0.25860000  0.89780000  0.85110000  1
  H  H42  1  0.25960000  0.21090000  0.10410000  1
  H  H43  1  0.26010000  0.50570000  0.07520000  1
  H  H44  1  0.26460000  0.56840000  0.77700000  1
  H  H45  1  0.26790000  0.15390000  0.35740000  1
  H  H46  1  0.26800000  0.36000000  0.95980000  1
  H  H47  1  0.27640000  0.32560000  0.65660000  1
  H  H48  1  0.28520000  0.41190000  0.21800000  1
  H  H49  1  0.28910000  0.75960000  0.35410000  1
  H  H50  1  0.29940000  0.84840000  0.96880000  1
  H  H51  1  0.30060000  0.08450000  0.66380000  1
  H  H52  1  0.30090000  0.49290000  0.54190000  1
  H  H53  1  0.30580000  0.63980000  0.38800000  1
  H  H54  1  0.32560000  0.27640000  0.34340000  1
  H  H55  1  0.33900000  0.96690000  0.46240000  1
  H  H56  1  0.34200000  0.56070000  0.90790000  1
  H  H57  1  0.34610000  0.76790000  0.60740000  1
  H  H58  1  0.34840000  0.20060000  0.71880000  1
  H  H59  1  0.35120000  0.09920000  0.18500000  1
  H  H60  1  0.36000000  0.26800000  0.04020000  1
  H  H61  1  0.36020000  0.69420000  0.11200000  1
  H  H62  1  0.37760000  0.54750000  0.71070000  1
  H  H63  1  0.38840000  0.46120000  0.15200000  1
  H  H64  1  0.39780000  0.24140000  0.60110000  1
  H  H65  1  0.40080000  0.85120000  0.43500000  1
  H  H66  1  0.41190000  0.28520000  0.78200000  1
  H  H67  1  0.41550000  0.80060000  0.91380000  1
  H  H68  1  0.43160000  0.73540000  0.72300000  1
  H  H69  1  0.43930000  0.65800000  0.59210000  1
  H  H70  1  0.45250000  0.62240000  0.78930000  1
  H  H71  1  0.46120000  0.38840000  0.84800000  1
  H  H72  1  0.46690000  0.16100000  0.21240000  1
  H  H73  1  0.47240000  0.24380000  0.64280000  1
  H  H74  1  0.49290000  0.30090000  0.45810000  1
  H  H75  1  0.49430000  0.73990000  0.42480000  1
  H  H76  1  0.50570000  0.26010000  0.92480000  1
  H  H77  1  0.50710000  0.69910000  0.95810000  1
  H  H78  1  0.52760000  0.75620000  0.14280000  1
  H  H79  1  0.53310000  0.83900000  0.71240000  1
  H  H80  1  0.53880000  0.61160000  0.34800000  1
  H  H81  1  0.54750000  0.37760000  0.28930000  1
  H  H82  1  0.56070000  0.34200000  0.09210000  1
  H  H83  1  0.56840000  0.26460000  0.22300000  1
  H  H84  1  0.58450000  0.19940000  0.41380000  1
  H  H85  1  0.58810000  0.71480000  0.28200000  1
  H  H86  1  0.59920000  0.14880000  0.93500000  1
  H  H87  1  0.60220000  0.75860000  0.10110000  1
  H  H88  1  0.61160000  0.53880000  0.65200000  1
  H  H89  1  0.62240000  0.45250000  0.21070000  1
  H  H90  1  0.63980000  0.30580000  0.61200000  1
  H  H91  1  0.64000000  0.73200000  0.54020000  1
  H  H92  1  0.64880000  0.90080000  0.68500000  1
  H  H93  1  0.65160000  0.79940000  0.21880000  1
  H  H94  1  0.65390000  0.23210000  0.10740000  1
  H  H95  1  0.65800000  0.43930000  0.40790000  1
  H  H96  1  0.66100000  0.03310000  0.96240000  1
  H  H97  1  0.67440000  0.72360000  0.84340000  1
  H  H98  1  0.69420000  0.36020000  0.88800000  1
  H  H99  1  0.69910000  0.50710000  0.04190000  1
  H  H100  1  0.69940000  0.91550000  0.16380000  1
  H  H101  1  0.70060000  0.15160000  0.46880000  1
  H  H102  1  0.71090000  0.24040000  0.85410000  1
  H  H103  1  0.71480000  0.58810000  0.71800000  1
  H  H104  1  0.72360000  0.67440000  0.15660000  1
  H  H105  1  0.73200000  0.64000000  0.45980000  1
  H  H106  1  0.73210000  0.84610000  0.85740000  1
  H  H107  1  0.73540000  0.43160000  0.27700000  1
  H  H108  1  0.73990000  0.49430000  0.57520000  1
  H  H109  1  0.74040000  0.78910000  0.60410000  1
  H  H110  1  0.74140000  0.10220000  0.35110000  1
  H  H111  1  0.74380000  0.02760000  0.39280000  1
  H  H112  1  0.75620000  0.52760000  0.85720000  1
  H  H113  1  0.75860000  0.60220000  0.89890000  1
  H  H114  1  0.75960000  0.28910000  0.64590000  1
  H  H115  1  0.76010000  0.99430000  0.67480000  1
  H  H116  1  0.76460000  0.93160000  0.97300000  1
  H  H117  1  0.76790000  0.34610000  0.39260000  1
  H  H118  1  0.76800000  0.14000000  0.79020000  1
  H  H119  1  0.77640000  0.17440000  0.09340000  1
  H  H120  1  0.78520000  0.08810000  0.53200000  1
  H  H121  1  0.78910000  0.74040000  0.39590000  1
  H  H122  1  0.79940000  0.65160000  0.78120000  1
  H  H123  1  0.80060000  0.41550000  0.08620000  1
  H  H124  1  0.80090000  0.00710000  0.20810000  1
  H  H125  1  0.80580000  0.86020000  0.36200000  1
  H  H126  1  0.82560000  0.22360000  0.40660000  1
  H  H127  1  0.83900000  0.53310000  0.28760000  1
  H  H128  1  0.84200000  0.93930000  0.84210000  1
  H  H129  1  0.84610000  0.73210000  0.14260000  1
  H  H130  1  0.84840000  0.29940000  0.03120000  1
  H  H131  1  0.85120000  0.40080000  0.56500000  1
  H  H132  1  0.86000000  0.23200000  0.70980000  1
  H  H133  1  0.86020000  0.80580000  0.63800000  1
  H  H134  1  0.87760000  0.95250000  0.03930000  1
  H  H135  1  0.88840000  0.03880000  0.59800000  1
  H  H136  1  0.89780000  0.25860000  0.14890000  1
  H  H137  1  0.90080000  0.64880000  0.31500000  1
  H  H138  1  0.91190000  0.21480000  0.96800000  1
  H  H139  1  0.91550000  0.69940000  0.83620000  1
  H  H140  1  0.93160000  0.76460000  0.02700000  1
  H  H141  1  0.93930000  0.84200000  0.15790000  1
  H  H142  1  0.95250000  0.87760000  0.96070000  1
  H  H143  1  0.96120000  0.11160000  0.90200000  1
  H  H144  1  0.96690000  0.33900000  0.53760000  1
  H  H145  1  0.97240000  0.25620000  0.10720000  1
  H  H146  1  0.99290000  0.19910000  0.29190000  1
  H  H147  1  0.99430000  0.76010000  0.32520000  1
  C  C148  1  0.00380000  0.12530000  0.18000000  1
  C  C149  1  0.00650000  0.16590000  0.46330000  1
  C  C150  1  0.01830000  0.23240000  0.50290000  1
  C  C151  1  0.03700000  0.24500000  0.78760000  1
  C  C152  1  0.04090000  0.21840000  0.26960000  1
  C  C153  1  0.04120000  0.70530000  0.00840000  1
  C  C154  1  0.05910000  0.18760000  0.21060000  1
  C  C155  1  0.06550000  0.83760000  0.92690000  1
  C  C156  1  0.06860000  0.19770000  0.69060000  1
  C  C157  1  0.07410000  0.90730000  0.88270000  1
  C  C158  1  0.08900000  0.85930000  0.39090000  1
  C  C159  1  0.09270000  0.92590000  0.61730000  1
  C  C160  1  0.09320000  0.31160000  0.78220000  1
  C  C161  1  0.09550000  0.27910000  0.29560000  1
  C  C162  1  0.11340000  0.70680000  0.97140000  1
  C  C163  1  0.11820000  0.79790000  0.43090000  1
  C  C164  1  0.12490000  0.77380000  0.93140000  1
  C  C165  1  0.12530000  0.00380000  0.82000000  1
  C  C166  1  0.12540000  0.26270000  0.68130000  1
  C  C167  1  0.12810000  0.21630000  0.17830000  1
  C  C168  1  0.14060000  0.31950000  0.72810000  1
  C  C169  1  0.14070000  0.91100000  0.10910000  1
  C  C170  1  0.15670000  0.79860000  0.17380000  1
  C  C171  1  0.16240000  0.93450000  0.57310000  1
  C  C172  1  0.16440000  0.30760000  0.26290000  1
  C  C173  1  0.16590000  0.00650000  0.53670000  1
  C  C174  1  0.18050000  0.64060000  0.97810000  1
  C  C175  1  0.18170000  0.27750000  0.20370000  1
  C  C176  1  0.18760000  0.05910000  0.78940000  1
  C  C177  1  0.18840000  0.59320000  0.03220000  1
  C  C178  1  0.19210000  0.75430000  0.41650000  1
  C  C179  1  0.19240000  0.66440000  0.51290000  1
  C  C180  1  0.19770000  0.06860000  0.30940000  1
  C  C181  1  0.20140000  0.84330000  0.32620000  1
  C  C182  1  0.20210000  0.88180000  0.06910000  1
  C  C183  1  0.20530000  0.45880000  0.75840000  1
  C  C184  1  0.20680000  0.38660000  0.72140000  1
  C  C185  1  0.21630000  0.12810000  0.82170000  1
  C  C186  1  0.21730000  0.76460000  0.13620000  1
  C  C187  1  0.21840000  0.04090000  0.73040000  1
  C  C188  1  0.22090000  0.59550000  0.54560000  1
  C  C189  1  0.22250000  0.68170000  0.45370000  1
  C  C190  1  0.22620000  0.87510000  0.56860000  1
  C  C191  1  0.23240000  0.01830000  0.49710000  1
  C  C192  1  0.23540000  0.78270000  0.36380000  1
  C  C193  1  0.23730000  0.62540000  0.93130000  1
  C  C194  1  0.24500000  0.03700000  0.21240000  1
  C  C195  1  0.24570000  0.80790000  0.08350000  1
  C  C196  1  0.25430000  0.30790000  0.16650000  1
  C  C197  1  0.25500000  0.53700000  0.03760000  1
  C  C198  1  0.26270000  0.12540000  0.31870000  1
  C  C199  1  0.26460000  0.28270000  0.88620000  1
  C  C200  1  0.26760000  0.51830000  0.75290000  1
  C  C201  1  0.27380000  0.37510000  0.68140000  1
  C  C202  1  0.27750000  0.18170000  0.79630000  1
  C  C203  1  0.27910000  0.09550000  0.70440000  1
  C  C204  1  0.28160000  0.54090000  0.51960000  1
  C  C205  1  0.28270000  0.26460000  0.11380000  1
  C  C206  1  0.28370000  0.62810000  0.42830000  1
  C  C207  1  0.29320000  0.88660000  0.52860000  1
  C  C208  1  0.29470000  0.95880000  0.49160000  1
  C  C209  1  0.29790000  0.38180000  0.18090000  1
  C  C210  1  0.29860000  0.34330000  0.92380000  1
  C  C211  1  0.30230000  0.56860000  0.94060000  1
  C  C212  1  0.30760000  0.16440000  0.73710000  1
  C  C213  1  0.30790000  0.25430000  0.83350000  1
  C  C214  1  0.31160000  0.09320000  0.21780000  1
  C  C215  1  0.31240000  0.55910000  0.46060000  1
  C  C216  1  0.31830000  0.77750000  0.04630000  1
  C  C217  1  0.31950000  0.14060000  0.27190000  1
  C  C218  1  0.33410000  0.50650000  0.71330000  1
  C  C219  1  0.33560000  0.80760000  0.98710000  1
  C  C220  1  0.33760000  0.43450000  0.67690000  1
  C  C221  1  0.34330000  0.29860000  0.07620000  1
  C  C222  1  0.35930000  0.41100000  0.14090000  1
  C  C223  1  0.35940000  0.81950000  0.52190000  1
  C  C224  1  0.37190000  0.71630000  0.07170000  1
  C  C225  1  0.37460000  0.76270000  0.56870000  1
  C  C226  1  0.37470000  0.50380000  0.43000000  1
  C  C227  1  0.37510000  0.27380000  0.31860000  1
  C  C228  1  0.38180000  0.29790000  0.81910000  1
  C  C229  1  0.38660000  0.20680000  0.27860000  1
  C  C230  1  0.40450000  0.77910000  0.95440000  1
  C  C231  1  0.40680000  0.81160000  0.46780000  1
  C  C232  1  0.40730000  0.42590000  0.63270000  1
  C  C233  1  0.41100000  0.35930000  0.85910000  1
  C  C234  1  0.42590000  0.40730000  0.36730000  1
  C  C235  1  0.43140000  0.69770000  0.55940000  1
  C  C236  1  0.43450000  0.33760000  0.32310000  1
  C  C237  1  0.44090000  0.68760000  0.03940000  1
  C  C238  1  0.45880000  0.20530000  0.24160000  1
  C  C239  1  0.45910000  0.71840000  0.98040000  1
  C  C240  1  0.46300000  0.74500000  0.46240000  1
  C  C241  1  0.48170000  0.73240000  0.74710000  1
  C  C242  1  0.49350000  0.66590000  0.78670000  1
  C  C243  1  0.49620000  0.62530000  0.07000000  1
  C  C244  1  0.50380000  0.37470000  0.57000000  1
  C  C245  1  0.50650000  0.33410000  0.28670000  1
  C  C246  1  0.51830000  0.26760000  0.24710000  1
  C  C247  1  0.53700000  0.25500000  0.96240000  1
  C  C248  1  0.54090000  0.28160000  0.48040000  1
  C  C249  1  0.54120000  0.79470000  0.74160000  1
  C  C250  1  0.55910000  0.31240000  0.53940000  1
  C  C251  1  0.56550000  0.66240000  0.82310000  1
  C  C252  1  0.56860000  0.30230000  0.05940000  1
  C  C253  1  0.57410000  0.59270000  0.86730000  1
  C  C254  1  0.58900000  0.64070000  0.35910000  1
  C  C255  1  0.59270000  0.57410000  0.13270000  1
  C  C256  1  0.59320000  0.18840000  0.96780000  1
  C  C257  1  0.59550000  0.22090000  0.45440000  1
  C  C258  1  0.61340000  0.79320000  0.77860000  1
  C  C259  1  0.61820000  0.70210000  0.31910000  1
  C  C260  1  0.62490000  0.72620000  0.81860000  1
  C  C261  1  0.62530000  0.49620000  0.93000000  1
  C  C262  1  0.62540000  0.23730000  0.06870000  1
  C  C263  1  0.62810000  0.28370000  0.57170000  1
  C  C264  1  0.64060000  0.18050000  0.02190000  1
  C  C265  1  0.64070000  0.58900000  0.64090000  1
  C  C266  1  0.65670000  0.70140000  0.57620000  1
  C  C267  1  0.66240000  0.56550000  0.17690000  1
  C  C268  1  0.66440000  0.19240000  0.48710000  1
  C  C269  1  0.66590000  0.49350000  0.21330000  1
  C  C270  1  0.68050000  0.85940000  0.77190000  1
  C  C271  1  0.68170000  0.22250000  0.54630000  1
  C  C272  1  0.68760000  0.44090000  0.96060000  1
  C  C273  1  0.68840000  0.90680000  0.71780000  1
  C  C274  1  0.69210000  0.74570000  0.33350000  1
  C  C275  1  0.69240000  0.83560000  0.23710000  1
  C  C276  1  0.69770000  0.43140000  0.44060000  1
  C  C277  1  0.70140000  0.65670000  0.42380000  1
  C  C278  1  0.70210000  0.61820000  0.68090000  1
  C  C279  1  0.70530000  0.04120000  0.99160000  1
  C  C280  1  0.70680000  0.11340000  0.02860000  1
  C  C281  1  0.71630000  0.37190000  0.92830000  1
  C  C282  1  0.71730000  0.73540000  0.61380000  1
  C  C283  1  0.71840000  0.45910000  0.01960000  1
  C  C284  1  0.72090000  0.90450000  0.20440000  1
  C  C285  1  0.72250000  0.81830000  0.29630000  1
  C  C286  1  0.72620000  0.62490000  0.18140000  1
  C  C287  1  0.73240000  0.48170000  0.25290000  1
  C  C288  1  0.73540000  0.71730000  0.38620000  1
  C  C289  1  0.73730000  0.87460000  0.81870000  1
  C  C290  1  0.74500000  0.46300000  0.53760000  1
  C  C291  1  0.74570000  0.69210000  0.66650000  1
  C  C292  1  0.75430000  0.19210000  0.58350000  1
  C  C293  1  0.75500000  0.96300000  0.71240000  1
  C  C294  1  0.76270000  0.37460000  0.43130000  1
  C  C295  1  0.76460000  0.21730000  0.86380000  1
  C  C296  1  0.76760000  0.98170000  0.99710000  1
  C  C297  1  0.77380000  0.12490000  0.06860000  1
  C  C298  1  0.77750000  0.31830000  0.95370000  1
  C  C299  1  0.77910000  0.40450000  0.04560000  1
  C  C300  1  0.78160000  0.95910000  0.23040000  1
  C  C301  1  0.78270000  0.23540000  0.63620000  1
  C  C302  1  0.78370000  0.87190000  0.32170000  1
  C  C303  1  0.79320000  0.61340000  0.22140000  1
  C  C304  1  0.79470000  0.54120000  0.25840000  1
  C  C305  1  0.79790000  0.11820000  0.56910000  1
  C  C306  1  0.79860000  0.15670000  0.82620000  1
  C  C307  1  0.80230000  0.93140000  0.80940000  1
  C  C308  1  0.80760000  0.33560000  0.01290000  1
  C  C309  1  0.80790000  0.24570000  0.91650000  1
  C  C310  1  0.81160000  0.40680000  0.53220000  1
  C  C311  1  0.81240000  0.94090000  0.28940000  1
  C  C312  1  0.81830000  0.72250000  0.70370000  1
  C  C313  1  0.81950000  0.35940000  0.47810000  1
  C  C314  1  0.83410000  0.99350000  0.03670000  1
  C  C315  1  0.83560000  0.69240000  0.76290000  1
  C  C316  1  0.83760000  0.06550000  0.07310000  1
  C  C317  1  0.84330000  0.20140000  0.67380000  1
  C  C318  1  0.85930000  0.08900000  0.60910000  1
  C  C319  1  0.85940000  0.68050000  0.22810000  1
  C  C320  1  0.87190000  0.78370000  0.67830000  1
  C  C321  1  0.87460000  0.73730000  0.18130000  1
  C  C322  1  0.87470000  0.99620000  0.32000000  1
  C  C323  1  0.87510000  0.22620000  0.43140000  1
  C  C324  1  0.88180000  0.20210000  0.93090000  1
  C  C325  1  0.88660000  0.29320000  0.47140000  1
  C  C326  1  0.90450000  0.72090000  0.79560000  1
  C  C327  1  0.90680000  0.68840000  0.28220000  1
  C  C328  1  0.90730000  0.07410000  0.11730000  1
  C  C329  1  0.91100000  0.14070000  0.89090000  1
  C  C330  1  0.92590000  0.09270000  0.38270000  1
  C  C331  1  0.93140000  0.80230000  0.19060000  1
  C  C332  1  0.93450000  0.16240000  0.42690000  1
  C  C333  1  0.94090000  0.81240000  0.71060000  1
  C  C334  1  0.95880000  0.29470000  0.50840000  1
  C  C335  1  0.95910000  0.78160000  0.76960000  1
  C  C336  1  0.96300000  0.75500000  0.28760000  1
  C  C337  1  0.98170000  0.76760000  0.00290000  1
  C  C338  1  0.99350000  0.83410000  0.96330000  1
  C  C339  1  0.99620000  0.87470000  0.68000000  1
  N  N340  1  0.00640000  0.04350000  0.18310000  1
  N  N341  1  0.01050000  0.94560000  0.85590000  1
  N  N342  1  0.02430000  0.18770000  0.74300000  1
  N  N343  1  0.04350000  0.00640000  0.81690000  1
  N  N344  1  0.05440000  0.98950000  0.64410000  1
  N  N345  1  0.05740000  0.85280000  0.63884000  1
  N  N346  1  0.07630000  0.77040000  0.61780000  1
  N  N347  1  0.11940000  0.87330000  0.16230000  1
  N  N348  1  0.12670000  0.88060000  0.33770000  1
  N  N349  1  0.14720000  0.94260000  0.86116000  1
  N  N350  1  0.18770000  0.02430000  0.25700000  1
  N  N351  1  0.22960000  0.92370000  0.88220000  1
  N  N352  1  0.27040000  0.42370000  0.36780000  1
  N  N353  1  0.31230000  0.52430000  0.99300000  1
  N  N354  1  0.35280000  0.44260000  0.38884000  1
  N  N355  1  0.37330000  0.38060000  0.91230000  1
  N  N356  1  0.38060000  0.37330000  0.08770000  1
  N  N357  1  0.42370000  0.27040000  0.63220000  1
  N  N358  1  0.44260000  0.35280000  0.61116000  1
  N  N359  1  0.44560000  0.48950000  0.60590000  1
  N  N360  1  0.45650000  0.50640000  0.43310000  1
  N  N361  1  0.47570000  0.68770000  0.50700000  1
  N  N362  1  0.48950000  0.44560000  0.39410000  1
  N  N363  1  0.49360000  0.54350000  0.06690000  1
  N  N364  1  0.50640000  0.45650000  0.56690000  1
  N  N365  1  0.51050000  0.55440000  0.89410000  1
  N  N366  1  0.52430000  0.31230000  0.00700000  1
  N  N367  1  0.54350000  0.49360000  0.93310000  1
  N  N368  1  0.55440000  0.51050000  0.10590000  1
  N  N369  1  0.55740000  0.64720000  0.11116000  1
  N  N370  1  0.57630000  0.72960000  0.13220000  1
  N  N371  1  0.61940000  0.62670000  0.58770000  1
  N  N372  1  0.62670000  0.61940000  0.41230000  1
  N  N373  1  0.64720000  0.55740000  0.88884000  1
  N  N374  1  0.68770000  0.47570000  0.49300000  1
  N  N375  1  0.72960000  0.57630000  0.86780000  1
  N  N376  1  0.77040000  0.07630000  0.38220000  1
  N  N377  1  0.81230000  0.97570000  0.75700000  1
  N  N378  1  0.85280000  0.05740000  0.36116000  1
  N  N379  1  0.87330000  0.11940000  0.83770000  1
  N  N380  1  0.88060000  0.12670000  0.66230000  1
  N  N381  1  0.92370000  0.22960000  0.11780000  1
  N  N382  1  0.94260000  0.14720000  0.13884000  1
  N  N383  1  0.94560000  0.01050000  0.14410000  1
  N  N384  1  0.95650000  0.99360000  0.31690000  1
  N  N385  1  0.97570000  0.81230000  0.24300000  1
  N  N386  1  0.98950000  0.05440000  0.35590000  1
  N  N387  1  0.99360000  0.95650000  0.68310000  1
