# generated using pymatgen
data_CuH12(CN2)12
_symmetry_space_group_name_H-M   'P 1'
_cell_length_a   8.27230000
_cell_length_b   8.63430000
_cell_length_c   20.34500000
_cell_angle_alpha   90.00000000
_cell_angle_beta   90.00000000
_cell_angle_gamma   92.36000000
_symmetry_Int_Tables_number   1
_chemical_formula_structural   CuH12(CN2)12
_chemical_formula_sum   'Cu2 H24 C24 N48'
_cell_volume   1451.91966947
_cell_formula_units_Z   2
loop_
 _symmetry_equiv_pos_site_id
 _symmetry_equiv_pos_as_xyz
  1  'x, y, z'
loop_
 _atom_site_type_symbol
 _atom_site_label
 _atom_site_symmetry_multiplicity
 _atom_site_fract_x
 _atom_site_fract_y
 _atom_site_fract_z
 _atom_site_occupancy
  Cu  Cu0  1  0.00000000  0.00000000  0.00000000  1
  Cu  Cu1  1  0.50000000  0.50000000  0.50000000  1
  H  H2  1  0.98360000  0.24570000  0.86840000  1
  H  H3  1  0.98330000  0.37010000  0.33980000  1
  H  H4  1  0.94140000  0.85210000  0.85660000  1
  H  H5  1  0.92250000  0.33810000  0.65510000  1
  H  H6  1  0.88400000  0.63240000  0.50230000  1
  H  H7  1  0.81380000  0.45220000  0.99580000  1
  H  H8  1  0.68620000  0.04780000  0.49580000  1
  H  H9  1  0.61600000  0.86760000  0.00230000  1
  H  H10  1  0.57750000  0.16190000  0.15510000  1
  H  H11  1  0.55860000  0.64790000  0.35660000  1
  H  H12  1  0.51670000  0.12990000  0.83980000  1
  H  H13  1  0.51640000  0.25430000  0.36840000  1
  H  H14  1  0.48360000  0.74570000  0.63160000  1
  H  H15  1  0.48330000  0.87010000  0.16020000  1
  H  H16  1  0.44140000  0.35210000  0.64340000  1
  H  H17  1  0.42250000  0.83810000  0.84490000  1
  H  H18  1  0.38400000  0.13240000  0.99770000  1
  H  H19  1  0.31380000  0.95220000  0.50420000  1
  H  H20  1  0.18620000  0.54780000  0.00420000  1
  H  H21  1  0.11600000  0.36760000  0.49770000  1
  H  H22  1  0.07750000  0.66190000  0.34490000  1
  H  H23  1  0.05860000  0.14790000  0.14340000  1
  H  H24  1  0.01670000  0.62990000  0.66020000  1
  H  H25  1  0.01640000  0.75430000  0.13160000  1
  C  C26  1  0.94660000  0.13790000  0.13332000  1
  C  C27  1  0.87910000  0.35860000  0.35924000  1
  C  C28  1  0.87640000  0.20480000  0.87465000  1
  C  C29  1  0.81670000  0.35460000  0.63911000  1
  C  C30  1  0.80770000  0.71170000  0.50071000  1
  C  C31  1  0.80180000  0.56110000  0.99695000  1
  C  C32  1  0.69820000  0.93890000  0.49695000  1
  C  C33  1  0.69230000  0.78830000  0.00071000  1
  C  C34  1  0.68330000  0.14540000  0.13911000  1
  C  C35  1  0.62360000  0.29520000  0.37465000  1
  C  C36  1  0.62090000  0.14140000  0.85924000  1
  C  C37  1  0.55340000  0.36210000  0.63332000  1
  C  C38  1  0.44660000  0.63790000  0.36668000  1
  C  C39  1  0.37910000  0.85860000  0.14076000  1
  C  C40  1  0.37640000  0.70480000  0.62535000  1
  C  C41  1  0.31670000  0.85460000  0.86089000  1
  C  C42  1  0.30770000  0.21170000  0.99929000  1
  C  C43  1  0.30180000  0.06110000  0.50305000  1
  C  C44  1  0.19820000  0.43890000  0.00305000  1
  C  C45  1  0.19230000  0.28830000  0.49929000  1
  C  C46  1  0.18330000  0.64540000  0.36089000  1
  C  C47  1  0.12360000  0.79520000  0.12535000  1
  C  C48  1  0.12090000  0.64140000  0.64076000  1
  C  C49  1  0.05340000  0.86210000  0.86668000  1
  N  N50  1  0.99950000  0.07210000  0.49940000  1
  N  N51  1  0.91960000  0.66464000  0.99640000  1
  N  N52  1  0.88513000  0.08636000  0.07828000  1
  N  N53  1  0.85130000  0.23200000  0.23687000  1
  N  N54  1  0.84930000  0.80962000  0.99921000  1
  N  N55  1  0.84348000  0.86659000  0.49953000  1
  N  N56  1  0.84000000  0.41150000  0.41647000  1
  N  N57  1  0.82524000  0.12882000  0.92627000  1
  N  N58  1  0.82440000  0.17497000  0.17370000  1
  N  N59  1  0.78307000  0.40841000  0.58132000  1
  N  N60  1  0.77670000  0.27840000  0.76875000  1
  N  N61  1  0.75320000  0.21674000  0.83094000  1
  N  N62  1  0.74680000  0.28326000  0.33094000  1
  N  N63  1  0.72330000  0.22160000  0.26875000  1
  N  N64  1  0.71693000  0.09159000  0.08132000  1
  N  N65  1  0.67560000  0.32503000  0.67370000  1
  N  N66  1  0.67476000  0.37118000  0.42627000  1
  N  N67  1  0.66000000  0.08850000  0.91647000  1
  N  N68  1  0.65652000  0.63341000  0.99953000  1
  N  N69  1  0.65070000  0.69038000  0.49921000  1
  N  N70  1  0.64870000  0.26800000  0.73687000  1
  N  N71  1  0.61487000  0.41364000  0.57828000  1
  N  N72  1  0.58040000  0.83536000  0.49640000  1
  N  N73  1  0.50050000  0.42790000  0.99940000  1
  N  N74  1  0.49950000  0.57210000  0.00060000  1
  N  N75  1  0.41960000  0.16464000  0.50360000  1
  N  N76  1  0.38513000  0.58636000  0.42172000  1
  N  N77  1  0.35130000  0.73200000  0.26313000  1
  N  N78  1  0.34930000  0.30962000  0.50079000  1
  N  N79  1  0.34348000  0.36659000  0.00047000  1
  N  N80  1  0.34000000  0.91150000  0.08353000  1
  N  N81  1  0.32524000  0.62882000  0.57373000  1
  N  N82  1  0.32440000  0.67497000  0.32630000  1
  N  N83  1  0.28307000  0.90841000  0.91868000  1
  N  N84  1  0.27670000  0.77840000  0.73125000  1
  N  N85  1  0.25320000  0.71674000  0.66906000  1
  N  N86  1  0.24680000  0.78326000  0.16906000  1
  N  N87  1  0.22330000  0.72160000  0.23125000  1
  N  N88  1  0.21693000  0.59159000  0.41868000  1
  N  N89  1  0.17560000  0.82503000  0.82630000  1
  N  N90  1  0.17476000  0.87118000  0.07373000  1
  N  N91  1  0.16000000  0.58850000  0.58353000  1
  N  N92  1  0.15652000  0.13341000  0.50047000  1
  N  N93  1  0.15070000  0.19038000  0.00079000  1
  N  N94  1  0.14870000  0.76800000  0.76313000  1
  N  N95  1  0.11487000  0.91364000  0.92172000  1
  N  N96  1  0.08040000  0.33536000  0.00360000  1
  N  N97  1  0.00050000  0.92790000  0.50060000  1
