# generated using pymatgen
data_Ni3H12(C11O8)2
_symmetry_space_group_name_H-M   'P 1'
_cell_length_a   14.00860000
_cell_length_b   16.33200000
_cell_length_c   16.62200000
_cell_angle_alpha   90.00000000
_cell_angle_beta   90.00000000
_cell_angle_gamma   90.00000000
_symmetry_Int_Tables_number   1
_chemical_formula_structural   Ni3H12(C11O8)2
_chemical_formula_sum   'Ni12 H48 C88 O64'
_cell_volume   3802.92170233
_cell_formula_units_Z   4
loop_
 _symmetry_equiv_pos_site_id
 _symmetry_equiv_pos_as_xyz
  1  'x, y, z'
loop_
 _atom_site_type_symbol
 _atom_site_label
 _atom_site_symmetry_multiplicity
 _atom_site_fract_x
 _atom_site_fract_y
 _atom_site_fract_z
 _atom_site_occupancy
  Ni  Ni0  1  0.00000000  0.00000000  0.50000000  1
  Ni  Ni1  1  0.00000000  0.50000000  0.00000000  1
  Ni  Ni2  1  0.02632000  0.67556000  0.88934000  1
  Ni  Ni3  1  0.02632000  0.82444000  0.38934000  1
  Ni  Ni4  1  0.47368000  0.17556000  0.88934000  1
  Ni  Ni5  1  0.47368000  0.32444000  0.38934000  1
  Ni  Ni6  1  0.50000000  0.00000000  0.00000000  1
  Ni  Ni7  1  0.50000000  0.50000000  0.50000000  1
  Ni  Ni8  1  0.52632000  0.67556000  0.61066000  1
  Ni  Ni9  1  0.52632000  0.82444000  0.11066000  1
  Ni  Ni10  1  0.97368000  0.17556000  0.61066000  1
  Ni  Ni11  1  0.97368000  0.32444000  0.11066000  1
  H  H12  1  0.05360000  0.24260000  0.36640000  1
  H  H13  1  0.05360000  0.25740000  0.86640000  1
  H  H14  1  0.06150000  0.14500000  0.36140000  1
  H  H15  1  0.06150000  0.35500000  0.86140000  1
  H  H16  1  0.06370000  0.60750000  0.22330000  1
  H  H17  1  0.06370000  0.89250000  0.72330000  1
  H  H18  1  0.15130000  0.19800000  0.39010000  1
  H  H19  1  0.15130000  0.30200000  0.89010000  1
  H  H20  1  0.23090000  0.09060000  0.76410000  1
  H  H21  1  0.23090000  0.40940000  0.26410000  1
  H  H22  1  0.24550000  0.60580000  0.41290000  1
  H  H23  1  0.24550000  0.89420000  0.91290000  1
  H  H24  1  0.25450000  0.10580000  0.41290000  1
  H  H25  1  0.25450000  0.39420000  0.91290000  1
  H  H26  1  0.26910000  0.59060000  0.76410000  1
  H  H27  1  0.26910000  0.90940000  0.26410000  1
  H  H28  1  0.34870000  0.69800000  0.39010000  1
  H  H29  1  0.34870000  0.80200000  0.89010000  1
  H  H30  1  0.43630000  0.10750000  0.22330000  1
  H  H31  1  0.43630000  0.39250000  0.72330000  1
  H  H32  1  0.43850000  0.64500000  0.36140000  1
  H  H33  1  0.43850000  0.85500000  0.86140000  1
  H  H34  1  0.44640000  0.74260000  0.36640000  1
  H  H35  1  0.44640000  0.75740000  0.86640000  1
  H  H36  1  0.55360000  0.24260000  0.13360000  1
  H  H37  1  0.55360000  0.25740000  0.63360000  1
  H  H38  1  0.56150000  0.14500000  0.13860000  1
  H  H39  1  0.56150000  0.35500000  0.63860000  1
  H  H40  1  0.56370000  0.60750000  0.27670000  1
  H  H41  1  0.56370000  0.89250000  0.77670000  1
  H  H42  1  0.65130000  0.19800000  0.10990000  1
  H  H43  1  0.65130000  0.30200000  0.60990000  1
  H  H44  1  0.73090000  0.09060000  0.73590000  1
  H  H45  1  0.73090000  0.40940000  0.23590000  1
  H  H46  1  0.74550000  0.60580000  0.08710000  1
  H  H47  1  0.74550000  0.89420000  0.58710000  1
  H  H48  1  0.75450000  0.10580000  0.08710000  1
  H  H49  1  0.75450000  0.39420000  0.58710000  1
  H  H50  1  0.76910000  0.59060000  0.73590000  1
  H  H51  1  0.76910000  0.90940000  0.23590000  1
  H  H52  1  0.84870000  0.69800000  0.10990000  1
  H  H53  1  0.84870000  0.80200000  0.60990000  1
  H  H54  1  0.93630000  0.10750000  0.27670000  1
  H  H55  1  0.93630000  0.39250000  0.77670000  1
  H  H56  1  0.93850000  0.64500000  0.13860000  1
  H  H57  1  0.93850000  0.85500000  0.63860000  1
  H  H58  1  0.94640000  0.74260000  0.13360000  1
  H  H59  1  0.94640000  0.75740000  0.63360000  1
  C  C60  1  0.04815000  0.18729000  0.47714000  1
  C  C61  1  0.04815000  0.31271000  0.97714000  1
  C  C62  1  0.08157000  0.19380000  0.39127000  1
  C  C63  1  0.08157000  0.30620000  0.89127000  1
  C  C64  1  0.09061000  0.03946000  0.66385000  1
  C  C65  1  0.09061000  0.46054000  0.16385000  1
  C  C66  1  0.10771000  0.70039000  0.34831000  1
  C  C67  1  0.10771000  0.79961000  0.84831000  1
  C  C68  1  0.10947000  0.57972000  0.25543000  1
  C  C69  1  0.10947000  0.92028000  0.75543000  1
  C  C70  1  0.13842000  0.50159000  0.23421000  1
  C  C71  1  0.13842000  0.99841000  0.73421000  1
  C  C72  1  0.14662000  0.61808000  0.32330000  1
  C  C73  1  0.14662000  0.88192000  0.82330000  1
  C  C74  1  0.16182000  0.53560000  0.88434000  1
  C  C75  1  0.16182000  0.96440000  0.38434000  1
  C  C76  1  0.21062000  0.03695000  0.77827000  1
  C  C77  1  0.21062000  0.46305000  0.27827000  1
  C  C78  1  0.21905000  0.57976000  0.36688000  1
  C  C79  1  0.21905000  0.92024000  0.86688000  1
  C  C80  1  0.24740000  0.00321000  0.34273000  1
  C  C81  1  0.24740000  0.49679000  0.84273000  1
  C  C82  1  0.25260000  0.50321000  0.34273000  1
  C  C83  1  0.25260000  0.99679000  0.84273000  1
  C  C84  1  0.28095000  0.07976000  0.36688000  1
  C  C85  1  0.28095000  0.42024000  0.86688000  1
  C  C86  1  0.28938000  0.53695000  0.77827000  1
  C  C87  1  0.28938000  0.96305000  0.27827000  1
  C  C88  1  0.33818000  0.03560000  0.88434000  1
  C  C89  1  0.33818000  0.46440000  0.38434000  1
  C  C90  1  0.35338000  0.11808000  0.32330000  1
  C  C91  1  0.35338000  0.38192000  0.82330000  1
  C  C92  1  0.36158000  0.00159000  0.23421000  1
  C  C93  1  0.36158000  0.49841000  0.73421000  1
  C  C94  1  0.39053000  0.07972000  0.25543000  1
  C  C95  1  0.39053000  0.42028000  0.75543000  1
  C  C96  1  0.39229000  0.20039000  0.34831000  1
  C  C97  1  0.39229000  0.29961000  0.84831000  1
  C  C98  1  0.40939000  0.53946000  0.66385000  1
  C  C99  1  0.40939000  0.96054000  0.16385000  1
  C  C100  1  0.41843000  0.69380000  0.39127000  1
  C  C101  1  0.41843000  0.80620000  0.89127000  1
  C  C102  1  0.45185000  0.68729000  0.47714000  1
  C  C103  1  0.45185000  0.81271000  0.97714000  1
  C  C104  1  0.54815000  0.18729000  0.02286000  1
  C  C105  1  0.54815000  0.31271000  0.52286000  1
  C  C106  1  0.58157000  0.19380000  0.10873000  1
  C  C107  1  0.58157000  0.30620000  0.60873000  1
  C  C108  1  0.59061000  0.03946000  0.83615000  1
  C  C109  1  0.59061000  0.46054000  0.33615000  1
  C  C110  1  0.60771000  0.70039000  0.15169000  1
  C  C111  1  0.60771000  0.79961000  0.65169000  1
  C  C112  1  0.60947000  0.57972000  0.24457000  1
  C  C113  1  0.60947000  0.92028000  0.74457000  1
  C  C114  1  0.63842000  0.50159000  0.26579000  1
  C  C115  1  0.63842000  0.99841000  0.76579000  1
  C  C116  1  0.64662000  0.61808000  0.17670000  1
  C  C117  1  0.64662000  0.88192000  0.67670000  1
  C  C118  1  0.66182000  0.53560000  0.61566000  1
  C  C119  1  0.66182000  0.96440000  0.11566000  1
  C  C120  1  0.71062000  0.03695000  0.72173000  1
  C  C121  1  0.71062000  0.46305000  0.22173000  1
  C  C122  1  0.71905000  0.57976000  0.13312000  1
  C  C123  1  0.71905000  0.92024000  0.63312000  1
  C  C124  1  0.74740000  0.00321000  0.15727000  1
  C  C125  1  0.74740000  0.49679000  0.65727000  1
  C  C126  1  0.75260000  0.50321000  0.15727000  1
  C  C127  1  0.75260000  0.99679000  0.65727000  1
  C  C128  1  0.78095000  0.07976000  0.13312000  1
  C  C129  1  0.78095000  0.42024000  0.63312000  1
  C  C130  1  0.78938000  0.53695000  0.72173000  1
  C  C131  1  0.78938000  0.96305000  0.22173000  1
  C  C132  1  0.83818000  0.03560000  0.61566000  1
  C  C133  1  0.83818000  0.46440000  0.11566000  1
  C  C134  1  0.85338000  0.11808000  0.17670000  1
  C  C135  1  0.85338000  0.38192000  0.67670000  1
  C  C136  1  0.86158000  0.00159000  0.26579000  1
  C  C137  1  0.86158000  0.49841000  0.76579000  1
  C  C138  1  0.89053000  0.07972000  0.24457000  1
  C  C139  1  0.89053000  0.42028000  0.74457000  1
  C  C140  1  0.89229000  0.20039000  0.15169000  1
  C  C141  1  0.89229000  0.29961000  0.65169000  1
  C  C142  1  0.90939000  0.53946000  0.83615000  1
  C  C143  1  0.90939000  0.96054000  0.33615000  1
  C  C144  1  0.91843000  0.69380000  0.10873000  1
  C  C145  1  0.91843000  0.80620000  0.60873000  1
  C  C146  1  0.95185000  0.68729000  0.02286000  1
  C  C147  1  0.95185000  0.81271000  0.52286000  1
  O  O148  1  0.00420000  0.62877000  0.00144000  1
  O  O149  1  0.00420000  0.87123000  0.50144000  1
  O  O150  1  0.04746000  0.73516000  0.30384000  1
  O  O151  1  0.04746000  0.76484000  0.80384000  1
  O  O152  1  0.06128000  0.50731000  0.11069000  1
  O  O153  1  0.06128000  0.99269000  0.61069000  1
  O  O154  1  0.06753000  0.24182000  0.52760000  1
  O  O155  1  0.06753000  0.25818000  0.02760000  1
  O  O156  1  0.08225000  0.11670000  0.66622000  1
  O  O157  1  0.08225000  0.38330000  0.16622000  1
  O  O158  1  0.12640000  0.59738000  0.84994000  1
  O  O159  1  0.12640000  0.90262000  0.34994000  1
  O  O160  1  0.13306000  0.50046000  0.94737000  1
  O  O161  1  0.13306000  0.99954000  0.44737000  1
  O  O162  1  0.13326000  0.73145000  0.41405000  1
  O  O163  1  0.13326000  0.76855000  0.91405000  1
  O  O164  1  0.36674000  0.23145000  0.41405000  1
  O  O165  1  0.36674000  0.26855000  0.91405000  1
  O  O166  1  0.36694000  0.00046000  0.94737000  1
  O  O167  1  0.36694000  0.49954000  0.44737000  1
  O  O168  1  0.37360000  0.09738000  0.84994000  1
  O  O169  1  0.37360000  0.40262000  0.34994000  1
  O  O170  1  0.41775000  0.61670000  0.66622000  1
  O  O171  1  0.41775000  0.88330000  0.16622000  1
  O  O172  1  0.43247000  0.74182000  0.52760000  1
  O  O173  1  0.43247000  0.75818000  0.02760000  1
  O  O174  1  0.43872000  0.00731000  0.11069000  1
  O  O175  1  0.43872000  0.49269000  0.61069000  1
  O  O176  1  0.45254000  0.23516000  0.30384000  1
  O  O177  1  0.45254000  0.26484000  0.80384000  1
  O  O178  1  0.49580000  0.12877000  0.00144000  1
  O  O179  1  0.49580000  0.37123000  0.50144000  1
  O  O180  1  0.50420000  0.62877000  0.49856000  1
  O  O181  1  0.50420000  0.87123000  0.99856000  1
  O  O182  1  0.54746000  0.73516000  0.19616000  1
  O  O183  1  0.54746000  0.76484000  0.69616000  1
  O  O184  1  0.56128000  0.50731000  0.38931000  1
  O  O185  1  0.56128000  0.99269000  0.88931000  1
  O  O186  1  0.56753000  0.24182000  0.97240000  1
  O  O187  1  0.56753000  0.25818000  0.47240000  1
  O  O188  1  0.58225000  0.11670000  0.83378000  1
  O  O189  1  0.58225000  0.38330000  0.33378000  1
  O  O190  1  0.62640000  0.59738000  0.65006000  1
  O  O191  1  0.62640000  0.90262000  0.15006000  1
  O  O192  1  0.63306000  0.50046000  0.55263000  1
  O  O193  1  0.63306000  0.99954000  0.05263000  1
  O  O194  1  0.63326000  0.73145000  0.08595000  1
  O  O195  1  0.63326000  0.76855000  0.58595000  1
  O  O196  1  0.86674000  0.23145000  0.08595000  1
  O  O197  1  0.86674000  0.26855000  0.58595000  1
  O  O198  1  0.86694000  0.00046000  0.55263000  1
  O  O199  1  0.86694000  0.49954000  0.05263000  1
  O  O200  1  0.87360000  0.09738000  0.65006000  1
  O  O201  1  0.87360000  0.40262000  0.15006000  1
  O  O202  1  0.91775000  0.61670000  0.83378000  1
  O  O203  1  0.91775000  0.88330000  0.33378000  1
  O  O204  1  0.93247000  0.74182000  0.97240000  1
  O  O205  1  0.93247000  0.75818000  0.47240000  1
  O  O206  1  0.93872000  0.00731000  0.38931000  1
  O  O207  1  0.93872000  0.49269000  0.88931000  1
  O  O208  1  0.95254000  0.23516000  0.19616000  1
  O  O209  1  0.95254000  0.26484000  0.69616000  1
  O  O210  1  0.99580000  0.12877000  0.49856000  1
  O  O211  1  0.99580000  0.37123000  0.99856000  1
