# generated using pymatgen
data_ZnH10C20(NO3)2
_symmetry_space_group_name_H-M   'P 1'
_cell_length_a   15.28200000
_cell_length_b   15.43600000
_cell_length_c   24.60967971
_cell_angle_alpha   106.57908338
_cell_angle_beta   108.08814257
_cell_angle_gamma   90.00000000
_symmetry_Int_Tables_number   1
_chemical_formula_structural   ZnH10C20(NO3)2
_chemical_formula_sum   'Zn8 H80 C160 N16 O48'
_cell_volume   5263.87434340
_cell_formula_units_Z   8
loop_
 _symmetry_equiv_pos_site_id
 _symmetry_equiv_pos_as_xyz
  1  'x, y, z'
loop_
 _atom_site_type_symbol
 _atom_site_label
 _atom_site_symmetry_multiplicity
 _atom_site_fract_x
 _atom_site_fract_y
 _atom_site_fract_z
 _atom_site_occupancy
  Zn  Zn0  1  0.40993000  0.63281000  0.33136000  1
  Zn  Zn1  1  0.35326000  0.57209000  0.19880000  1
  Zn  Zn2  1  0.15446000  0.92791000  0.80120000  1
  Zn  Zn3  1  0.07857000  0.86719000  0.66864000  1
  Zn  Zn4  1  0.92143000  0.13281000  0.33136000  1
  Zn  Zn5  1  0.84554000  0.07209000  0.19880000  1
  Zn  Zn6  1  0.64674000  0.42791000  0.80120000  1
  Zn  Zn7  1  0.59007000  0.36719000  0.66864000  1
  H  H8  1  0.16910000  0.78980000  0.16320000  1
  H  H9  1  0.61080000  0.44790000  0.57700000  1
  H  H10  1  0.47390000  0.80030000  0.43680000  1
  H  H11  1  0.50210000  0.15350000  0.46080000  1
  H  H12  1  0.33050000  0.37010000  0.28900000  1
  H  H13  1  0.89700000  0.60160000  0.83380000  1
  H  H14  1  0.27600000  0.32260000  0.18340000  1
  H  H15  1  0.75060000  0.14930000  0.65640000  1
  H  H16  1  0.93680000  0.10160000  0.83380000  1
  H  H17  1  0.58750000  0.40930000  0.47520000  1
  H  H18  1  0.79850000  0.53890000  0.65200000  1
  H  H19  1  0.23830000  0.60770000  0.08500000  1
  H  H20  1  0.00590000  0.71020000  0.83680000  1
  H  H21  1  0.85350000  0.03890000  0.65200000  1
  H  H22  1  0.22130000  0.95040000  0.01760000  1
  H  H23  1  0.20370000  0.54960000  0.98240000  1
  H  H24  1  0.15330000  0.89230000  0.91500000  1
  H  H25  1  0.90580000  0.64930000  0.65640000  1
  H  H26  1  0.61780000  0.44110000  0.36800000  1
  H  H27  1  0.09260000  0.17740000  0.81660000  1
  H  H28  1  0.38860000  0.40880000  0.11240000  1
  H  H29  1  0.64630000  0.83200000  0.36860000  1
  H  H30  1  0.59940000  0.04610000  0.28680000  1
  H  H31  1  0.04150000  0.12990000  0.71100000  1
  H  H32  1  0.51850000  0.34940000  0.18600000  1
  H  H33  1  0.35520000  0.34100000  0.00920000  1
  H  H34  1  0.72230000  0.33200000  0.36860000  1
  H  H35  1  0.34600000  0.15900000  0.99080000  1
  H  H36  1  0.53990000  0.99530000  0.18160000  1
  H  H37  1  0.56230000  0.74140000  0.18720000  1
  H  H38  1  0.75020000  0.94110000  0.36800000  1
  H  H39  1  0.27620000  0.09120000  0.88760000  1
  H  H40  1  0.96620000  0.94790000  0.57700000  1
  H  H41  1  0.68740000  0.54610000  0.28680000  1
  H  H42  1  0.88770000  0.90930000  0.47520000  1
  H  H43  1  0.62490000  0.24140000  0.18720000  1
  H  H44  1  0.64170000  0.49530000  0.18160000  1
  H  H45  1  0.03710000  0.69970000  0.56320000  1
  H  H46  1  0.66750000  0.84940000  0.18600000  1
  H  H47  1  0.95870000  0.65350000  0.46080000  1
  H  H48  1  0.04130000  0.34650000  0.53920000  1
  H  H49  1  0.33250000  0.15060000  0.81400000  1
  H  H50  1  0.96290000  0.30030000  0.43680000  1
  H  H51  1  0.35830000  0.50470000  0.81840000  1
  H  H52  1  0.37510000  0.75860000  0.81280000  1
  H  H53  1  0.11230000  0.09070000  0.52480000  1
  H  H54  1  0.31260000  0.45390000  0.71320000  1
  H  H55  1  0.03380000  0.05210000  0.42300000  1
  H  H56  1  0.72380000  0.90880000  0.11240000  1
  H  H57  1  0.24980000  0.05890000  0.63200000  1
  H  H58  1  0.43770000  0.25860000  0.81280000  1
  H  H59  1  0.46010000  0.00470000  0.81840000  1
  H  H60  1  0.65400000  0.84100000  0.00920000  1
  H  H61  1  0.27770000  0.66800000  0.63140000  1
  H  H62  1  0.64480000  0.65900000  0.99080000  1
  H  H63  1  0.48150000  0.65060000  0.81400000  1
  H  H64  1  0.95850000  0.87010000  0.28900000  1
  H  H65  1  0.40060000  0.95390000  0.71320000  1
  H  H66  1  0.35370000  0.16800000  0.63140000  1
  H  H67  1  0.61140000  0.59120000  0.88760000  1
  H  H68  1  0.90740000  0.82260000  0.18340000  1
  H  H69  1  0.38220000  0.55890000  0.63200000  1
  H  H70  1  0.09420000  0.35070000  0.34360000  1
  H  H71  1  0.84670000  0.10770000  0.08500000  1
  H  H72  1  0.79630000  0.45040000  0.01760000  1
  H  H73  1  0.77870000  0.04960000  0.98240000  1
  H  H74  1  0.14650000  0.96110000  0.34800000  1
  H  H75  1  0.99410000  0.28980000  0.16320000  1
  H  H76  1  0.76170000  0.39230000  0.91500000  1
  H  H77  1  0.20150000  0.46110000  0.34800000  1
  H  H78  1  0.41250000  0.59070000  0.52480000  1
  H  H79  1  0.06320000  0.89840000  0.16620000  1
  H  H80  1  0.24940000  0.85070000  0.34360000  1
  H  H81  1  0.72400000  0.67740000  0.81660000  1
  H  H82  1  0.10300000  0.39840000  0.16620000  1
  H  H83  1  0.66950000  0.62990000  0.71100000  1
  H  H84  1  0.49790000  0.84650000  0.53920000  1
  H  H85  1  0.52610000  0.19970000  0.56320000  1
  H  H86  1  0.38920000  0.55210000  0.42300000  1
  H  H87  1  0.83090000  0.21020000  0.83680000  1
  C  C88  1  0.46129000  0.75720000  0.45498000  1
  C  C89  1  0.75853000  0.49680000  0.74106000  1
  C  C90  1  0.27950000  0.73350000  0.25220000  1
  C  C91  1  0.58777000  0.38740000  0.55294000  1
  C  C92  1  0.78228000  0.19150000  0.74656000  1
  C  C93  1  0.83679000  0.17630000  0.79958000  1
  C  C94  1  0.52297000  0.21490000  0.48374000  1
  C  C95  1  0.44462000  0.30070000  0.36424000  1
  C  C96  1  0.53796000  0.27740000  0.45692000  1
  C  C97  1  0.57351000  0.36540000  0.49242000  1
  C  C98  1  0.35166000  0.31760000  0.26752000  1
  C  C99  1  0.83487000  0.56110000  0.74314000  1
  C  C100  1  0.78897000  0.13980000  0.69234000  1
  C  C101  1  0.89813000  0.61160000  0.79766000  1
  C  C102  1  0.89953000  0.11160000  0.79766000  1
  C  C103  1  0.31833000  0.28870000  0.20406000  1
  C  C104  1  0.41332000  0.27110000  0.29784000  1
  C  C105  1  0.83939000  0.57460000  0.68958000  1
  C  C106  1  0.85019000  0.07460000  0.68958000  1
  C  C107  1  0.96279000  0.67630000  0.79958000  1
  C  C108  1  0.90827000  0.06110000  0.74314000  1
  C  C109  1  0.34664000  0.21250000  0.17248000  1
  C  C110  1  0.44896000  0.19510000  0.26672000  1
  C  C111  1  0.55116000  0.17750000  0.36332000  1
  C  C112  1  0.26374000  0.55380000  0.06948000  1
  C  C113  1  0.30531000  0.17870000  0.10642000  1
  C  C114  1  0.41434000  0.16400000  0.20348000  1
  C  C115  1  0.90337000  0.63980000  0.69234000  1
  C  C116  1  0.49017000  0.47630000  0.27554000  1
  C  C117  1  0.96428000  0.69150000  0.74656000  1
  C  C118  1  0.51679000  0.14850000  0.29738000  1
  C  C119  1  0.24204000  0.51950000  0.00828000  1
  C  C120  1  0.98253000  0.99680000  0.74106000  1
  C  C121  1  0.23376000  0.98050000  0.99172000  1
  C  C122  1  0.52132000  0.70980000  0.27704000  1
  C  C123  1  0.19426000  0.94620000  0.93052000  1
  C  C124  1  0.35083000  0.43770000  0.08546000  1
  C  C125  1  0.44768000  0.08760000  0.17236000  1
  C  C126  1  0.29186000  0.05990000  0.01452000  1
  C  C127  1  0.02730000  0.76650000  0.74780000  1
  C  C128  1  0.55760000  0.40610000  0.27700000  1
  C  C129  1  0.55159000  0.07560000  0.26598000  1
  C  C130  1  0.61909000  0.40040000  0.33118000  1
  C  C131  1  0.27734000  0.44010000  0.98548000  1
  C  C132  1  0.40580000  0.05060000  0.10640000  1
  C  C133  1  0.19889000  0.32130000  0.89358000  1
  C  C134  1  0.33171000  0.39670000  0.02402000  1
  C  C135  1  0.51610000  0.04560000  0.20320000  1
  C  C136  1  0.59262000  0.77680000  0.27784000  1
  C  C137  1  0.11427000  0.21130000  0.79594000  1
  C  C138  1  0.65004000  0.83610000  0.33148000  1
  C  C139  1  0.30769000  0.10330000  0.97598000  1
  C  C140  1  0.56004000  0.34620000  0.22308000  1
  C  C141  1  0.17416000  0.28750000  0.82752000  1
  C  C142  1  0.68144000  0.33610000  0.33148000  1
  C  C143  1  0.26537000  0.06230000  0.91454000  1
  C  C144  1  0.08414000  0.18240000  0.73248000  1
  C  C145  1  0.60042000  0.78220000  0.22384000  1
  C  C146  1  0.71209000  0.90040000  0.33118000  1
  C  C147  1  0.62342000  0.28220000  0.22384000  1
  C  C148  1  0.29940000  0.44940000  0.89360000  1
  C  C149  1  0.68522000  0.27680000  0.27784000  1
  C  C150  1  0.96517000  0.88740000  0.55294000  1
  C  C151  1  0.11548000  0.22890000  0.70216000  1
  C  C152  1  0.21086000  0.33600000  0.79652000  1
  C  C153  1  0.91891000  0.86540000  0.49242000  1
  C  C154  1  0.66304000  0.84620000  0.22308000  1
  C  C155  1  0.71940000  0.90610000  0.27700000  1
  C  C156  1  0.08038000  0.19930000  0.63576000  1
  C  C157  1  0.27532000  0.41240000  0.82764000  1
  C  C158  1  0.71439000  0.57560000  0.26598000  1
  C  C159  1  0.81216000  0.67750000  0.36332000  1
  C  C160  1  0.18224000  0.30490000  0.73328000  1
  C  C161  1  0.00631000  0.74280000  0.54502000  1
  C  C162  1  0.91896000  0.77740000  0.45692000  1
  C  C163  1  0.96077000  0.71490000  0.48374000  1
  C  C164  1  0.75572000  0.20980000  0.27704000  1
  C  C165  1  0.78059000  0.64850000  0.29738000  1
  C  C166  1  0.68710000  0.54560000  0.20320000  1
  C  C167  1  0.21463000  0.02370000  0.72446000  1
  C  C168  1  0.78537000  0.97630000  0.27554000  1
  C  C169  1  0.31290000  0.45440000  0.79680000  1
  C  C170  1  0.21941000  0.35150000  0.70262000  1
  C  C171  1  0.24428000  0.79020000  0.72296000  1
  C  C172  1  0.03923000  0.28510000  0.51626000  1
  C  C173  1  0.08104000  0.22260000  0.54308000  1
  C  C174  1  0.99369000  0.25720000  0.45498000  1
  C  C175  1  0.81776000  0.69510000  0.26672000  1
  C  C176  1  0.18784000  0.32250000  0.63668000  1
  C  C177  1  0.28561000  0.42440000  0.73402000  1
  C  C178  1  0.72468000  0.58760000  0.17236000  1
  C  C179  1  0.91962000  0.80070000  0.36424000  1
  C  C180  1  0.28060000  0.09390000  0.72300000  1
  C  C181  1  0.33696000  0.15380000  0.77692000  1
  C  C182  1  0.08109000  0.13460000  0.50758000  1
  C  C183  1  0.78914000  0.66400000  0.20348000  1
  C  C184  1  0.88452000  0.77110000  0.29784000  1
  C  C185  1  0.03483000  0.11260000  0.44706000  1
  C  C186  1  0.31478000  0.72320000  0.72216000  1
  C  C187  1  0.70060000  0.55060000  0.10640000  1
  C  C188  1  0.37658000  0.71780000  0.77616000  1
  C  C189  1  0.28791000  0.09960000  0.66882000  1
  C  C190  1  0.39958000  0.21780000  0.77616000  1
  C  C191  1  0.91586000  0.81760000  0.26752000  1
  C  C192  1  0.73463000  0.93770000  0.08546000  1
  C  C193  1  0.31856000  0.66390000  0.66852000  1
  C  C194  1  0.82584000  0.71250000  0.17248000  1
  C  C195  1  0.43996000  0.65380000  0.77692000  1
  C  C196  1  0.69231000  0.89670000  0.02402000  1
  C  C197  1  0.34996000  0.16390000  0.66852000  1
  C  C198  1  0.88573000  0.78870000  0.20406000  1
  C  C199  1  0.40738000  0.22320000  0.72216000  1
  C  C200  1  0.48390000  0.95440000  0.79680000  1
  C  C201  1  0.66829000  0.60330000  0.97598000  1
  C  C202  1  0.80111000  0.67870000  0.10642000  1
  C  C203  1  0.59420000  0.94940000  0.89360000  1
  C  C204  1  0.72266000  0.55990000  0.01452000  1
  C  C205  1  0.38091000  0.59960000  0.66882000  1
  C  C206  1  0.44841000  0.92440000  0.73402000  1
  C  C207  1  0.44240000  0.59390000  0.72300000  1
  C  C208  1  0.97270000  0.23350000  0.25220000  1
  C  C209  1  0.70814000  0.94010000  0.98548000  1
  C  C210  1  0.55232000  0.91240000  0.82764000  1
  C  C211  1  0.64917000  0.56230000  0.91454000  1
  C  C212  1  0.80574000  0.05380000  0.06948000  1
  C  C213  1  0.47868000  0.29020000  0.72296000  1
  C  C214  1  0.76624000  0.01950000  0.00828000  1
  C  C215  1  0.01747000  0.00320000  0.25894000  1
  C  C216  1  0.75796000  0.48050000  0.99172000  1
  C  C217  1  0.48321000  0.85150000  0.70262000  1
  C  C218  1  0.03572000  0.30850000  0.25344000  1
  C  C219  1  0.50983000  0.52370000  0.72446000  1
  C  C220  1  0.09663000  0.36020000  0.30766000  1
  C  C221  1  0.58566000  0.83600000  0.79652000  1
  C  C222  1  0.69469000  0.82130000  0.89358000  1
  C  C223  1  0.73626000  0.44620000  0.93052000  1
  C  C224  1  0.44884000  0.82250000  0.63668000  1
  C  C225  1  0.55104000  0.80490000  0.73328000  1
  C  C226  1  0.65336000  0.78750000  0.82752000  1
  C  C227  1  0.09173000  0.93890000  0.25686000  1
  C  C228  1  0.03721000  0.32370000  0.20042000  1
  C  C229  1  0.14981000  0.92540000  0.31042000  1
  C  C230  1  0.16061000  0.42540000  0.31042000  1
  C  C231  1  0.58668000  0.72890000  0.70216000  1
  C  C232  1  0.68167000  0.71130000  0.79594000  1
  C  C233  1  0.10047000  0.88840000  0.20234000  1
  C  C234  1  0.10187000  0.38840000  0.20234000  1
  C  C235  1  0.21103000  0.86020000  0.30766000  1
  C  C236  1  0.16513000  0.43890000  0.25686000  1
  C  C237  1  0.64834000  0.68240000  0.73248000  1
  C  C238  1  0.42649000  0.63460000  0.50758000  1
  C  C239  1  0.46204000  0.72260000  0.54308000  1
  C  C240  1  0.55538000  0.69930000  0.63576000  1
  C  C241  1  0.47703000  0.78510000  0.51626000  1
  C  C242  1  0.16321000  0.82370000  0.20042000  1
  C  C243  1  0.21772000  0.80850000  0.25344000  1
  C  C244  1  0.41223000  0.61260000  0.44706000  1
  C  C245  1  0.72050000  0.26650000  0.74780000  1
  C  C246  1  0.24147000  0.50320000  0.25894000  1
  C  C247  1  0.53871000  0.24280000  0.54502000  1
  N  N248  1  0.42913000  0.67210000  0.42026000  1
  N  N249  1  0.51383000  0.25270000  0.39286000  1
  N  N250  1  0.31855000  0.51570000  0.10830000  1
  N  N251  1  0.33619000  0.09790000  0.07818000  1
  N  N252  1  0.21025000  0.98430000  0.89170000  1
  N  N253  1  0.25801000  0.40210000  0.92182000  1
  N  N254  1  0.00887000  0.82790000  0.57974000  1
  N  N255  1  0.87903000  0.75270000  0.39286000  1
  N  N256  1  0.12097000  0.24730000  0.60714000  1
  N  N257  1  0.99113000  0.17210000  0.42026000  1
  N  N258  1  0.74199000  0.59790000  0.07818000  1
  N  N259  1  0.78975000  0.01570000  0.10830000  1
  N  N260  1  0.66381000  0.90210000  0.92182000  1
  N  N261  1  0.68145000  0.48430000  0.89170000  1
  N  N262  1  0.48617000  0.74730000  0.60714000  1
  N  N263  1  0.57087000  0.32790000  0.57974000  1
  O  O264  1  0.70435000  0.45460000  0.68990000  1
  O  O265  1  0.41351000  0.36250000  0.39282000  1
  O  O266  1  0.32505000  0.72270000  0.30150000  1
  O  O267  1  0.24640000  0.50630000  0.20960000  1
  O  O268  1  0.27911000  0.68290000  0.20102000  1
  O  O269  1  0.48877000  0.52740000  0.32534000  1
  O  O270  1  0.24658000  0.21490000  0.07816000  1
  O  O271  1  0.51460000  0.70980000  0.32700000  1
  O  O272  1  0.43856000  0.47930000  0.22472000  1
  O  O273  1  0.60841000  0.13870000  0.39242000  1
  O  O274  1  0.47031000  0.65990000  0.22702000  1
  O  O275  1  0.03680000  0.99370000  0.79040000  1
  O  O276  1  0.16842000  0.28510000  0.92184000  1
  O  O277  1  0.07809000  0.81710000  0.79898000  1
  O  O278  1  0.98555000  0.95460000  0.68990000  1
  O  O279  1  0.02355000  0.77730000  0.69850000  1
  O  O280  1  0.42926000  0.98300000  0.07652000  1
  O  O281  1  0.78401000  0.63870000  0.39242000  1
  O  O282  1  0.02069000  0.13750000  0.60718000  1
  O  O283  1  0.35274000  0.51700000  0.92348000  1
  O  O284  1  0.21384000  0.02070000  0.77528000  1
  O  O285  1  0.24329000  0.84010000  0.77298000  1
  O  O286  1  0.81240000  0.20980000  0.32700000  1
  O  O287  1  0.16343000  0.97260000  0.67466000  1
  O  O288  1  0.83657000  0.02740000  0.32534000  1
  O  O289  1  0.18760000  0.79020000  0.67300000  1
  O  O290  1  0.75671000  0.15990000  0.22702000  1
  O  O291  1  0.78616000  0.97930000  0.22472000  1
  O  O292  1  0.64726000  0.48300000  0.07652000  1
  O  O293  1  0.97931000  0.86250000  0.39282000  1
  O  O294  1  0.21599000  0.36130000  0.60758000  1
  O  O295  1  0.57074000  0.01700000  0.92348000  1
  O  O296  1  0.97645000  0.22270000  0.30150000  1
  O  O297  1  0.01445000  0.04540000  0.31010000  1
  O  O298  1  0.92191000  0.18290000  0.20102000  1
  O  O299  1  0.83158000  0.71490000  0.07816000  1
  O  O300  1  0.96320000  0.00630000  0.20960000  1
  O  O301  1  0.52969000  0.34010000  0.77298000  1
  O  O302  1  0.39159000  0.86130000  0.60758000  1
  O  O303  1  0.56144000  0.52070000  0.77528000  1
  O  O304  1  0.48540000  0.29020000  0.67300000  1
  O  O305  1  0.75342000  0.78510000  0.92184000  1
  O  O306  1  0.51123000  0.47260000  0.67466000  1
  O  O307  1  0.72089000  0.31710000  0.79898000  1
  O  O308  1  0.75360000  0.49370000  0.79040000  1
  O  O309  1  0.67495000  0.27730000  0.69850000  1
  O  O310  1  0.58649000  0.63750000  0.60718000  1
  O  O311  1  0.29565000  0.54540000  0.31010000  1
