# generated using pymatgen
data_VCoPH14C15N3O7
_symmetry_space_group_name_H-M   'P 1'
_cell_length_a   8.77340000
_cell_length_b   15.50700000
_cell_length_c   17.26400000
_cell_angle_alpha   90.00000000
_cell_angle_beta   90.00000000
_cell_angle_gamma   93.94000000
_symmetry_Int_Tables_number   1
_chemical_formula_structural   VCoPH14C15N3O7
_chemical_formula_sum   'V4 Co4 P4 H56 C60 N12 O28'
_cell_volume   2343.20074785
_cell_formula_units_Z   4
loop_
 _symmetry_equiv_pos_site_id
 _symmetry_equiv_pos_as_xyz
  1  'x, y, z'
loop_
 _atom_site_type_symbol
 _atom_site_label
 _atom_site_symmetry_multiplicity
 _atom_site_fract_x
 _atom_site_fract_y
 _atom_site_fract_z
 _atom_site_occupancy
  V  V0  1  0.05877000  0.16584000  0.48200000  1
  V  V1  1  0.05877000  0.66584000  0.01800000  1
  V  V2  1  0.94123000  0.33416000  0.98200000  1
  V  V3  1  0.94123000  0.83416000  0.51800000  1
  Co  Co4  1  0.19178000  0.36555000  0.23958000  1
  Co  Co5  1  0.19178000  0.86555000  0.26042000  1
  Co  Co6  1  0.80822000  0.13445000  0.73958000  1
  Co  Co7  1  0.80822000  0.63445000  0.76042000  1
  P  P8  1  0.05624000  0.48980000  0.10682000  1
  P  P9  1  0.05624000  0.98980000  0.39318000  1
  P  P10  1  0.94376000  0.01020000  0.60682000  1
  P  P11  1  0.94376000  0.51020000  0.89318000  1
  H  H12  1  0.06350000  0.43530000  0.71850000  1
  H  H13  1  0.06350000  0.93530000  0.78150000  1
  H  H14  1  0.12880000  0.17390000  0.20960000  1
  H  H15  1  0.12880000  0.67390000  0.29040000  1
  H  H16  1  0.16090000  0.14790000  0.74640000  1
  H  H17  1  0.16090000  0.64790000  0.75360000  1
  H  H18  1  0.23460000  0.47900000  0.00520000  1
  H  H19  1  0.23460000  0.97900000  0.49480000  1
  H  H20  1  0.25910000  0.01010000  0.69530000  1
  H  H21  1  0.25910000  0.51010000  0.80470000  1
  H  H22  1  0.29070000  0.02990000  0.17590000  1
  H  H23  1  0.29070000  0.52990000  0.32410000  1
  H  H24  1  0.31300000  0.09490000  0.33300000  1
  H  H25  1  0.31300000  0.59490000  0.16700000  1
  H  H26  1  0.32050000  0.47720000  0.08720000  1
  H  H27  1  0.32050000  0.97720000  0.41280000  1
  H  H28  1  0.36400000  0.25150000  0.75040000  1
  H  H29  1  0.36400000  0.75150000  0.74960000  1
  H  H30  1  0.38530000  0.07250000  0.55110000  1
  H  H31  1  0.38530000  0.57250000  0.94890000  1
  H  H32  1  0.44900000  0.14880000  0.37670000  1
  H  H33  1  0.44900000  0.64880000  0.12330000  1
  H  H34  1  0.46330000  0.11310000  0.69220000  1
  H  H35  1  0.46330000  0.61310000  0.80780000  1
  H  H36  1  0.48640000  0.13760000  0.16840000  1
  H  H37  1  0.48640000  0.63760000  0.33160000  1
  H  H38  1  0.49710000  0.12530000  0.49200000  1
  H  H39  1  0.49710000  0.62530000  0.00800000  1
  H  H40  1  0.50290000  0.37470000  0.99200000  1
  H  H41  1  0.50290000  0.87470000  0.50800000  1
  H  H42  1  0.51360000  0.36240000  0.66840000  1
  H  H43  1  0.51360000  0.86240000  0.83160000  1
  H  H44  1  0.53670000  0.38690000  0.19220000  1
  H  H45  1  0.53670000  0.88690000  0.30780000  1
  H  H46  1  0.55100000  0.35120000  0.87670000  1
  H  H47  1  0.55100000  0.85120000  0.62330000  1
  H  H48  1  0.61470000  0.42750000  0.05110000  1
  H  H49  1  0.61470000  0.92750000  0.44890000  1
  H  H50  1  0.63600000  0.24850000  0.25040000  1
  H  H51  1  0.63600000  0.74850000  0.24960000  1
  H  H52  1  0.67950000  0.02280000  0.58720000  1
  H  H53  1  0.67950000  0.52280000  0.91280000  1
  H  H54  1  0.68700000  0.40510000  0.83300000  1
  H  H55  1  0.68700000  0.90510000  0.66700000  1
  H  H56  1  0.70930000  0.47010000  0.67590000  1
  H  H57  1  0.70930000  0.97010000  0.82410000  1
  H  H58  1  0.74090000  0.48990000  0.19530000  1
  H  H59  1  0.74090000  0.98990000  0.30470000  1
  H  H60  1  0.76540000  0.02100000  0.50520000  1
  H  H61  1  0.76540000  0.52100000  0.99480000  1
  H  H62  1  0.83910000  0.35210000  0.24640000  1
  H  H63  1  0.83910000  0.85210000  0.25360000  1
  H  H64  1  0.87120000  0.32610000  0.70960000  1
  H  H65  1  0.87120000  0.82610000  0.79040000  1
  H  H66  1  0.93650000  0.06470000  0.21850000  1
  H  H67  1  0.93650000  0.56470000  0.28150000  1
  C  C68  1  0.02740000  0.18890000  0.21910000  1
  C  C69  1  0.02740000  0.68890000  0.28090000  1
  C  C70  1  0.08670000  0.37650000  0.72320000  1
  C  C71  1  0.08670000  0.87650000  0.77680000  1
  C  C72  1  0.14150000  0.20700000  0.73980000  1
  C  C73  1  0.14150000  0.70700000  0.76020000  1
  C  C74  1  0.23630000  0.35500000  0.73420000  1
  C  C75  1  0.23630000  0.85500000  0.76580000  1
  C  C76  1  0.24140000  0.00550000  0.44260000  1
  C  C77  1  0.24140000  0.50550000  0.05740000  1
  C  C78  1  0.26300000  0.26840000  0.74270000  1
  C  C79  1  0.26300000  0.76840000  0.75730000  1
  C  C80  1  0.26520000  0.22110000  0.35440000  1
  C  C81  1  0.26520000  0.72110000  0.14560000  1
  C  C82  1  0.33660000  0.13760000  0.37470000  1
  C  C83  1  0.33660000  0.63760000  0.12530000  1
  C  C84  1  0.35100000  0.00000000  0.72190000  1
  C  C85  1  0.35100000  0.50000000  0.77810000  1
  C  C86  1  0.35810000  0.20430000  0.55310000  1
  C  C87  1  0.35810000  0.70430000  0.94690000  1
  C  C88  1  0.36390000  0.42370000  0.73700000  1
  C  C89  1  0.36390000  0.92370000  0.76300000  1
  C  C90  1  0.38290000  0.02230000  0.20310000  1
  C  C91  1  0.38290000  0.52230000  0.29690000  1
  C  C92  1  0.39180000  0.12010000  0.51280000  1
  C  C93  1  0.39180000  0.62010000  0.98720000  1
  C  C94  1  0.47380000  0.06100000  0.72010000  1
  C  C95  1  0.47380000  0.56100000  0.77990000  1
  C  C96  1  0.49930000  0.08690000  0.19800000  1
  C  C97  1  0.49930000  0.58690000  0.30200000  1
  C  C98  1  0.50070000  0.41310000  0.69800000  1
  C  C99  1  0.50070000  0.91310000  0.80200000  1
  C  C100  1  0.52620000  0.43900000  0.22010000  1
  C  C101  1  0.52620000  0.93900000  0.27990000  1
  C  C102  1  0.60820000  0.37990000  0.01280000  1
  C  C103  1  0.60820000  0.87990000  0.48720000  1
  C  C104  1  0.61710000  0.47770000  0.70310000  1
  C  C105  1  0.61710000  0.97770000  0.79690000  1
  C  C106  1  0.63610000  0.07630000  0.23700000  1
  C  C107  1  0.63610000  0.57630000  0.26300000  1
  C  C108  1  0.64190000  0.29570000  0.05310000  1
  C  C109  1  0.64190000  0.79570000  0.44690000  1
  C  C110  1  0.64900000  0.00000000  0.27810000  1
  C  C111  1  0.64900000  0.50000000  0.22190000  1
  C  C112  1  0.66340000  0.36240000  0.87470000  1
  C  C113  1  0.66340000  0.86240000  0.62530000  1
  C  C114  1  0.73480000  0.27890000  0.85440000  1
  C  C115  1  0.73480000  0.77890000  0.64560000  1
  C  C116  1  0.73700000  0.23160000  0.24270000  1
  C  C117  1  0.73700000  0.73160000  0.25730000  1
  C  C118  1  0.75860000  0.49450000  0.94260000  1
  C  C119  1  0.75860000  0.99450000  0.55740000  1
  C  C120  1  0.76370000  0.14500000  0.23420000  1
  C  C121  1  0.76370000  0.64500000  0.26580000  1
  C  C122  1  0.85850000  0.29300000  0.23980000  1
  C  C123  1  0.85850000  0.79300000  0.26020000  1
  C  C124  1  0.91330000  0.12350000  0.22320000  1
  C  C125  1  0.91330000  0.62350000  0.27680000  1
  C  C126  1  0.97260000  0.31110000  0.71910000  1
  C  C127  1  0.97260000  0.81110000  0.78090000  1
  N  N128  1  0.00280000  0.27273000  0.22802000  1
  N  N129  1  0.00280000  0.77273000  0.27198000  1
  N  N130  1  0.28370000  0.09954000  0.44939000  1
  N  N131  1  0.28370000  0.59954000  0.05061000  1
  N  N132  1  0.39290000  0.44975000  0.25577000  1
  N  N133  1  0.39290000  0.94975000  0.24423000  1
  N  N134  1  0.60710000  0.05025000  0.75577000  1
  N  N135  1  0.60710000  0.55025000  0.74423000  1
  N  N136  1  0.71630000  0.40046000  0.94939000  1
  N  N137  1  0.71630000  0.90046000  0.55061000  1
  N  N138  1  0.99720000  0.22727000  0.72802000  1
  N  N139  1  0.99720000  0.72727000  0.77198000  1
  O  O140  1  0.01290000  0.42274000  0.90311000  1
  O  O141  1  0.01290000  0.92274000  0.59689000  1
  O  O142  1  0.04210000  0.08096000  0.56552000  1
  O  O143  1  0.04210000  0.58096000  0.93448000  1
  O  O144  1  0.08180000  0.46690000  0.19068000  1
  O  O145  1  0.08180000  0.96690000  0.30932000  1
  O  O146  1  0.14900000  0.23947000  0.39396000  1
  O  O147  1  0.14900000  0.73947000  0.10604000  1
  O  O148  1  0.22420000  0.23063000  0.54514000  1
  O  O149  1  0.22420000  0.73063000  0.95486000  1
  O  O150  1  0.31750000  0.26557000  0.29931000  1
  O  O151  1  0.31750000  0.76557000  0.20069000  1
  O  O152  1  0.46030000  0.24160000  0.59281000  1
  O  O153  1  0.46030000  0.74160000  0.90719000  1
  O  O154  1  0.53970000  0.25840000  0.09281000  1
  O  O155  1  0.53970000  0.75840000  0.40719000  1
  O  O156  1  0.68250000  0.23443000  0.79931000  1
  O  O157  1  0.68250000  0.73443000  0.70069000  1
  O  O158  1  0.77580000  0.26937000  0.04514000  1
  O  O159  1  0.77580000  0.76937000  0.45486000  1
  O  O160  1  0.85100000  0.26053000  0.89396000  1
  O  O161  1  0.85100000  0.76053000  0.60604000  1
  O  O162  1  0.91820000  0.03310000  0.69068000  1
  O  O163  1  0.91820000  0.53310000  0.80932000  1
  O  O164  1  0.95790000  0.41904000  0.06552000  1
  O  O165  1  0.95790000  0.91904000  0.43448000  1
  O  O166  1  0.98710000  0.07726000  0.40311000  1
  O  O167  1  0.98710000  0.57726000  0.09689000  1
