# generated using pymatgen
data_Mn3P2H24(C14O5)3
_symmetry_space_group_name_H-M   'P 1'
_cell_length_a   15.25100000
_cell_length_b   21.50410000
_cell_length_c   22.80802191
_cell_angle_alpha   118.12657291
_cell_angle_beta   107.65090255
_cell_angle_gamma   90.00000000
_symmetry_Int_Tables_number   1
_chemical_formula_structural   Mn3P2H24(C14O5)3
_chemical_formula_sum   'Mn12 P8 H96 C168 O60'
_cell_volume   6194.59494947
_cell_formula_units_Z   4
loop_
 _symmetry_equiv_pos_site_id
 _symmetry_equiv_pos_as_xyz
  1  'x, y, z'
loop_
 _atom_site_type_symbol
 _atom_site_label
 _atom_site_symmetry_multiplicity
 _atom_site_fract_x
 _atom_site_fract_y
 _atom_site_fract_z
 _atom_site_occupancy
  Mn  Mn0  1  0.98155000  0.53736000  0.93372000  1
  Mn  Mn1  1  0.88798000  0.73466000  0.56358000  1
  Mn  Mn2  1  0.86009000  0.22404000  0.53222000  1
  Mn  Mn3  1  0.63991000  0.69182000  0.46778000  1
  Mn  Mn4  1  0.61202000  0.17108000  0.43642000  1
  Mn  Mn5  1  0.51845000  0.60364000  0.06628000  1
  Mn  Mn6  1  0.48155000  0.39636000  0.93372000  1
  Mn  Mn7  1  0.38798000  0.82892000  0.56358000  1
  Mn  Mn8  1  0.36009000  0.30818000  0.53222000  1
  Mn  Mn9  1  0.13991000  0.77596000  0.46778000  1
  Mn  Mn10  1  0.11202000  0.26534000  0.43642000  1
  Mn  Mn11  1  0.01845000  0.46264000  0.06628000  1
  P  P12  1  0.99063000  0.31955000  0.31594000  1
  P  P13  1  0.97893000  0.17750000  0.66088000  1
  P  P14  1  0.52107000  0.51662000  0.33912000  1
  P  P15  1  0.50937000  0.00361000  0.68406000  1
  P  P16  1  0.49063000  0.99639000  0.31594000  1
  P  P17  1  0.47893000  0.48338000  0.66088000  1
  P  P18  1  0.02107000  0.82250000  0.33912000  1
  P  P19  1  0.00937000  0.68045000  0.68406000  1
  H  H20  1  0.99950000  0.39420000  0.23740000  1
  H  H21  1  0.99210000  0.23380000  0.04600000  1
  H  H22  1  0.98700000  0.18940000  0.19860000  1
  H  H23  1  0.98650000  0.15100000  0.08480000  1
  H  H24  1  0.98610000  0.12070000  0.75620000  1
  H  H25  1  0.98310000  0.17270000  0.87200000  1
  H  H26  1  0.97430000  0.29340000  0.93340000  1
  H  H27  1  0.95610000  0.31000000  0.76000000  1
  H  H28  1  0.93220000  0.79980000  0.41920000  1
  H  H29  1  0.91430000  0.88300000  0.53600000  1
  H  H30  1  0.91020000  0.93300000  0.38540000  1
  H  H31  1  0.90390000  0.28250000  0.39040000  1
  H  H32  1  0.90080000  0.43910000  0.38420000  1
  H  H33  1  0.89520000  0.38780000  0.51660000  1
  H  H34  1  0.87430000  0.95850000  0.71700000  1
  H  H35  1  0.84540000  0.06820000  0.79360000  1
  H  H36  1  0.84310000  0.58550000  0.63280000  1
  H  H37  1  0.84090000  0.77980000  0.22420000  1
  H  H38  1  0.84040000  0.42800000  0.70420000  1
  H  H39  1  0.82160000  0.07290000  0.61080000  1
  H  H40  1  0.81140000  0.53270000  0.79040000  1
  H  H41  1  0.80780000  0.30750000  0.21780000  1
  H  H42  1  0.79530000  0.94880000  0.56000000  1
  H  H43  1  0.79270000  0.46220000  0.56220000  1
  H  H44  1  0.70730000  0.90000000  0.43780000  1
  H  H45  1  0.70470000  0.38880000  0.44000000  1
  H  H46  1  0.69220000  0.08970000  0.78220000  1
  H  H47  1  0.68860000  0.74230000  0.20960000  1
  H  H48  1  0.67840000  0.46210000  0.38920000  1
  H  H49  1  0.65960000  0.72380000  0.29580000  1
  H  H50  1  0.65910000  0.55560000  0.77580000  1
  H  H51  1  0.65690000  0.95270000  0.36720000  1
  H  H52  1  0.65460000  0.27460000  0.20640000  1
  H  H53  1  0.62570000  0.24150000  0.28300000  1
  H  H54  1  0.60480000  0.87120000  0.48340000  1
  H  H55  1  0.59920000  0.05490000  0.61580000  1
  H  H56  1  0.59610000  0.89210000  0.60960000  1
  H  H57  1  0.58980000  0.54760000  0.61460000  1
  H  H58  1  0.58570000  0.34700000  0.46400000  1
  H  H59  1  0.56780000  0.38060000  0.58080000  1
  H  H60  1  0.54390000  0.55000000  0.24000000  1
  H  H61  1  0.52570000  0.36000000  0.06660000  1
  H  H62  1  0.51690000  0.30070000  0.12800000  1
  H  H63  1  0.51390000  0.36450000  0.24380000  1
  H  H64  1  0.51350000  0.06620000  0.91520000  1
  H  H65  1  0.51300000  0.99080000  0.80140000  1
  H  H66  1  0.50790000  0.18780000  0.95400000  1
  H  H67  1  0.50050000  0.15680000  0.76260000  1
  H  H68  1  0.49950000  0.84320000  0.23740000  1
  H  H69  1  0.49210000  0.81220000  0.04600000  1
  H  H70  1  0.48700000  0.00920000  0.19860000  1
  H  H71  1  0.48650000  0.93380000  0.08480000  1
  H  H72  1  0.48610000  0.63550000  0.75620000  1
  H  H73  1  0.48310000  0.69930000  0.87200000  1
  H  H74  1  0.47430000  0.64000000  0.93340000  1
  H  H75  1  0.45610000  0.45000000  0.76000000  1
  H  H76  1  0.43220000  0.61940000  0.41920000  1
  H  H77  1  0.41430000  0.65300000  0.53600000  1
  H  H78  1  0.41020000  0.45240000  0.38540000  1
  H  H79  1  0.40390000  0.10790000  0.39040000  1
  H  H80  1  0.40080000  0.94510000  0.38420000  1
  H  H81  1  0.39520000  0.12880000  0.51660000  1
  H  H82  1  0.37430000  0.75850000  0.71700000  1
  H  H83  1  0.34540000  0.72540000  0.79360000  1
  H  H84  1  0.34310000  0.04730000  0.63280000  1
  H  H85  1  0.34090000  0.44440000  0.22420000  1
  H  H86  1  0.34040000  0.27620000  0.70420000  1
  H  H87  1  0.32160000  0.53790000  0.61080000  1
  H  H88  1  0.31140000  0.25770000  0.79040000  1
  H  H89  1  0.30780000  0.91030000  0.21780000  1
  H  H90  1  0.29530000  0.61120000  0.56000000  1
  H  H91  1  0.29270000  0.10000000  0.56220000  1
  H  H92  1  0.20730000  0.53780000  0.43780000  1
  H  H93  1  0.20470000  0.05120000  0.44000000  1
  H  H94  1  0.19220000  0.69250000  0.78220000  1
  H  H95  1  0.18860000  0.46730000  0.20960000  1
  H  H96  1  0.17840000  0.92710000  0.38920000  1
  H  H97  1  0.15960000  0.57200000  0.29580000  1
  H  H98  1  0.15910000  0.22020000  0.77580000  1
  H  H99  1  0.15690000  0.41450000  0.36720000  1
  H  H100  1  0.15460000  0.93180000  0.20640000  1
  H  H101  1  0.12570000  0.04150000  0.28300000  1
  H  H102  1  0.10480000  0.61220000  0.48340000  1
  H  H103  1  0.09920000  0.56090000  0.61580000  1
  H  H104  1  0.09610000  0.71750000  0.60960000  1
  H  H105  1  0.08980000  0.06700000  0.61460000  1
  H  H106  1  0.08570000  0.11700000  0.46400000  1
  H  H107  1  0.06780000  0.20020000  0.58080000  1
  H  H108  1  0.04390000  0.69000000  0.24000000  1
  H  H109  1  0.02570000  0.70660000  0.06660000  1
  H  H110  1  0.01690000  0.82730000  0.12800000  1
  H  H111  1  0.01390000  0.87930000  0.24380000  1
  H  H112  1  0.01350000  0.84900000  0.91520000  1
  H  H113  1  0.01300000  0.81060000  0.80140000  1
  H  H114  1  0.00790000  0.76620000  0.95400000  1
  H  H115  1  0.00050000  0.60580000  0.76260000  1
  C  C116  1  0.99900000  0.32223000  0.13834000  1
  C  C117  1  0.99740000  0.34496000  0.20664000  1
  C  C118  1  0.99340000  0.62481000  0.88604000  1
  C  C119  1  0.99330000  0.24976000  0.09286000  1
  C  C120  1  0.99260000  0.29598000  0.22954000  1
  C  C121  1  0.99250000  0.53278000  0.43792000  1
  C  C122  1  0.98930000  0.22325000  0.18322000  1
  C  C123  1  0.98920000  0.20041000  0.11580000  1
  C  C124  1  0.98673000  0.03070000  0.42698000  1
  C  C125  1  0.97950000  0.16941000  0.78020000  1
  C  C126  1  0.97900000  0.20084000  0.84960000  1
  C  C127  1  0.97560000  0.58486000  0.63040000  1
  C  C128  1  0.97260000  0.27219000  0.88586000  1
  C  C129  1  0.97030000  0.21011000  0.74690000  1
  C  C130  1  0.97010000  0.95688000  0.39632000  1
  C  C131  1  0.96330000  0.31330000  0.85200000  1
  C  C132  1  0.96300000  0.45926000  0.39550000  1
  C  C133  1  0.96230000  0.28224000  0.78288000  1
  C  C134  1  0.95980000  0.08233000  0.61862000  1
  C  C135  1  0.95840000  0.39102000  0.89126000  1
  C  C136  1  0.92570000  0.93365000  0.55676000  1
  C  C137  1  0.92510000  0.57985000  0.46636000  1
  C  C138  1  0.91590000  0.43795000  0.54594000  1
  C  C139  1  0.90833000  0.07181000  0.44240000  1
  C  C140  1  0.90120000  0.79367000  0.32322000  1
  C  C141  1  0.88470000  0.55530000  0.61468000  1
  C  C142  1  0.88317000  0.78608000  0.37572000  1
  C  C143  1  0.87050000  0.04667000  0.60160000  1
  C  C144  1  0.87040000  0.29680000  0.30478000  1
  C  C145  1  0.85520000  0.97304000  0.57124000  1
  C  C146  1  0.85470000  0.48226000  0.57278000  1
  C  C147  1  0.85320000  0.27941000  0.35200000  1
  C  C148  1  0.82860000  0.77566000  0.26066000  1
  C  C149  1  0.81190000  0.96689000  0.71106000  1
  C  C150  1  0.79640000  0.29511000  0.24994000  1
  C  C151  1  0.79450000  0.03196000  0.75692000  1
  C  C152  1  0.79320000  0.75832000  0.36530000  1
  C  C153  1  0.77890000  0.43881000  0.69690000  1
  C  C154  1  0.77700000  0.74199000  0.41894000  1
  C  C155  1  0.76200000  0.25745000  0.34362000  1
  C  C156  1  0.76150000  0.50056000  0.74874000  1
  C  C157  1  0.75320000  0.84170000  0.60722000  1
  C  C158  1  0.74680000  0.23448000  0.39278000  1
  C  C159  1  0.73850000  0.75182000  0.25126000  1
  C  C160  1  0.73800000  0.91383000  0.65638000  1
  C  C161  1  0.72300000  0.32305000  0.58106000  1
  C  C162  1  0.72110000  0.74191000  0.30310000  1
  C  C163  1  0.70680000  0.39302000  0.63470000  1
  C  C164  1  0.70550000  0.27504000  0.24308000  1
  C  C165  1  0.70360000  0.04517000  0.75006000  1
  C  C166  1  0.68810000  0.25583000  0.28894000  1
  C  C167  1  0.67140000  0.51500000  0.73934000  1
  C  C168  1  0.64680000  0.92741000  0.64800000  1
  C  C169  1  0.64530000  0.90948000  0.42722000  1
  C  C170  1  0.64480000  0.40180000  0.42876000  1
  C  C171  1  0.62960000  0.99202000  0.69522000  1
  C  C172  1  0.62950000  0.44507000  0.39840000  1
  C  C173  1  0.61683000  0.41036000  0.62428000  1
  C  C174  1  0.61530000  0.94062000  0.38532000  1
  C  C175  1  0.59880000  0.47045000  0.67678000  1
  C  C176  1  0.59167000  0.62941000  0.55760000  1
  C  C177  1  0.58410000  0.89201000  0.45406000  1
  C  C178  1  0.57490000  0.11349000  0.53364000  1
  C  C179  1  0.57430000  0.37689000  0.44324000  1
  C  C180  1  0.54160000  0.49976000  0.10874000  1
  C  C181  1  0.54020000  0.46371000  0.38138000  1
  C  C182  1  0.53770000  0.49936000  0.21712000  1
  C  C183  1  0.53700000  0.06376000  0.60450000  1
  C  C184  1  0.53670000  0.46130000  0.14800000  1
  C  C185  1  0.52990000  0.56056000  0.60368000  1
  C  C186  1  0.52970000  0.46321000  0.25310000  1
  C  C187  1  0.52740000  0.38633000  0.11414000  1
  C  C188  1  0.52440000  0.95446000  0.36960000  1
  C  C189  1  0.52100000  0.35124000  0.15040000  1
  C  C190  1  0.52050000  0.38921000  0.21980000  1
  C  C191  1  0.51327000  0.60372000  0.57302000  1
  C  C192  1  0.51080000  0.08461000  0.88420000  1
  C  C193  1  0.51070000  0.04003000  0.81678000  1
  C  C194  1  0.50750000  0.09486000  0.56208000  1
  C  C195  1  0.50740000  0.06644000  0.77046000  1
  C  C196  1  0.50670000  0.15690000  0.90714000  1
  C  C197  1  0.50660000  0.73877000  0.11396000  1
  C  C198  1  0.50260000  0.13832000  0.79336000  1
  C  C199  1  0.50100000  0.18389000  0.86166000  1
  C  C200  1  0.49900000  0.81611000  0.13834000  1
  C  C201  1  0.49740000  0.86168000  0.20664000  1
  C  C202  1  0.49340000  0.26123000  0.88604000  1
  C  C203  1  0.49330000  0.84310000  0.09286000  1
  C  C204  1  0.49260000  0.93356000  0.22954000  1
  C  C205  1  0.49250000  0.90514000  0.43792000  1
  C  C206  1  0.48930000  0.95997000  0.18322000  1
  C  C207  1  0.48920000  0.91539000  0.11580000  1
  C  C208  1  0.48673000  0.39628000  0.42698000  1
  C  C209  1  0.47950000  0.61079000  0.78020000  1
  C  C210  1  0.47900000  0.64876000  0.84960000  1
  C  C211  1  0.47560000  0.04554000  0.63040000  1
  C  C212  1  0.47260000  0.61367000  0.88586000  1
  C  C213  1  0.47030000  0.53679000  0.74690000  1
  C  C214  1  0.47010000  0.43944000  0.39632000  1
  C  C215  1  0.46330000  0.53870000  0.85200000  1
  C  C216  1  0.46300000  0.93624000  0.39550000  1
  C  C217  1  0.46230000  0.50064000  0.78288000  1
  C  C218  1  0.45980000  0.53629000  0.61862000  1
  C  C219  1  0.45840000  0.50024000  0.89126000  1
  C  C220  1  0.42570000  0.62311000  0.55676000  1
  C  C221  1  0.42510000  0.88651000  0.46636000  1
  C  C222  1  0.41590000  0.10799000  0.54594000  1
  C  C223  1  0.40833000  0.37059000  0.44240000  1
  C  C224  1  0.40120000  0.52955000  0.32322000  1
  C  C225  1  0.38470000  0.05938000  0.61468000  1
  C  C226  1  0.38317000  0.58964000  0.37572000  1
  C  C227  1  0.37050000  0.55493000  0.60160000  1
  C  C228  1  0.37040000  0.00798000  0.30478000  1
  C  C229  1  0.35520000  0.59820000  0.57124000  1
  C  C230  1  0.35470000  0.09052000  0.57278000  1
  C  C231  1  0.35320000  0.07259000  0.35200000  1
  C  C232  1  0.32860000  0.48500000  0.26066000  1
  C  C233  1  0.31190000  0.74417000  0.71106000  1
  C  C234  1  0.29640000  0.95483000  0.24994000  1
  C  C235  1  0.29450000  0.72496000  0.75692000  1
  C  C236  1  0.29320000  0.60698000  0.36530000  1
  C  C237  1  0.27890000  0.25809000  0.69690000  1
  C  C238  1  0.27700000  0.67695000  0.41894000  1
  C  C239  1  0.26200000  0.08617000  0.34362000  1
  C  C240  1  0.26150000  0.24818000  0.74874000  1
  C  C241  1  0.25320000  0.76552000  0.60722000  1
  C  C242  1  0.24680000  0.15830000  0.39278000  1
  C  C243  1  0.23850000  0.49944000  0.25126000  1
  C  C244  1  0.23800000  0.74255000  0.65638000  1
  C  C245  1  0.22300000  0.25801000  0.58106000  1
  C  C246  1  0.22110000  0.56119000  0.30310000  1
  C  C247  1  0.20680000  0.24168000  0.63470000  1
  C  C248  1  0.20550000  0.96804000  0.24308000  1
  C  C249  1  0.20360000  0.70489000  0.75006000  1
  C  C250  1  0.18810000  0.03311000  0.28894000  1
  C  C251  1  0.17140000  0.22434000  0.73934000  1
  C  C252  1  0.14680000  0.72059000  0.64800000  1
  C  C253  1  0.14530000  0.51774000  0.42722000  1
  C  C254  1  0.14480000  0.02696000  0.42876000  1
  C  C255  1  0.12960000  0.70320000  0.69522000  1
  C  C256  1  0.12950000  0.95333000  0.39840000  1
  C  C257  1  0.11683000  0.21392000  0.62428000  1
  C  C258  1  0.11530000  0.44470000  0.38532000  1
  C  C259  1  0.09880000  0.20633000  0.67678000  1
  C  C260  1  0.09167000  0.92819000  0.55760000  1
  C  C261  1  0.08410000  0.56205000  0.45406000  1
  C  C262  1  0.07490000  0.42015000  0.53364000  1
  C  C263  1  0.07430000  0.06635000  0.44324000  1
  C  C264  1  0.04160000  0.60898000  0.10874000  1
  C  C265  1  0.04020000  0.91767000  0.38138000  1
  C  C266  1  0.03770000  0.71776000  0.21712000  1
  C  C267  1  0.03700000  0.54074000  0.60450000  1
  C  C268  1  0.03670000  0.68670000  0.14800000  1
  C  C269  1  0.02990000  0.04312000  0.60368000  1
  C  C270  1  0.02970000  0.78989000  0.25310000  1
  C  C271  1  0.02740000  0.72781000  0.11414000  1
  C  C272  1  0.02440000  0.41514000  0.36960000  1
  C  C273  1  0.02100000  0.79916000  0.15040000  1
  C  C274  1  0.02050000  0.83059000  0.21980000  1
  C  C275  1  0.01327000  0.96930000  0.57302000  1
  C  C276  1  0.01080000  0.79959000  0.88420000  1
  C  C277  1  0.01070000  0.77675000  0.81678000  1
  C  C278  1  0.00750000  0.46722000  0.56208000  1
  C  C279  1  0.00740000  0.70402000  0.77046000  1
  C  C280  1  0.00670000  0.75024000  0.90714000  1
  C  C281  1  0.00660000  0.37519000  0.11396000  1
  C  C282  1  0.00260000  0.65504000  0.79336000  1
  C  C283  1  0.00100000  0.67777000  0.86166000  1
  O  O284  1  0.98964000  0.56007000  0.84546000  1
  O  O285  1  0.98820000  0.64662000  0.94594000  1
  O  O286  1  0.97040000  0.42016000  0.95476000  1
  O  O287  1  0.95566000  0.64650000  0.50544000  1
  O  O288  1  0.94629000  0.71970000  0.65430000  1
  O  O289  1  0.94549000  0.42497000  0.85724000  1
  O  O290  1  0.92753000  0.13959000  0.47152000  1
  O  O291  1  0.91329000  0.20631000  0.62052000  1
  O  O292  1  0.84738000  0.75177000  0.47102000  1
  O  O293  1  0.84326000  0.55052000  0.44818000  1
  O  O294  1  0.83250000  0.82477000  0.62642000  1
  O  O295  1  0.83088000  0.03801000  0.42640000  1
  O  O296  1  0.81347000  0.25045000  0.44814000  1
  O  O297  1  0.80456000  0.31129000  0.59400000  1
  O  O298  1  0.76268000  0.65264000  0.51556000  1
  O  O299  1  0.73732000  0.13708000  0.48444000  1
  O  O300  1  0.69544000  0.71729000  0.40600000  1
  O  O301  1  0.68653000  0.80231000  0.55186000  1
  O  O302  1  0.66912000  0.61161000  0.57360000  1
  O  O303  1  0.66750000  0.19835000  0.37358000  1
  O  O304  1  0.65674000  0.10234000  0.55182000  1
  O  O305  1  0.65262000  0.28075000  0.52898000  1
  O  O306  1  0.58671000  0.58579000  0.37948000  1
  O  O307  1  0.57247000  0.66807000  0.52848000  1
  O  O308  1  0.55451000  0.56773000  0.14276000  1
  O  O309  1  0.55371000  0.06540000  0.34570000  1
  O  O310  1  0.54434000  0.14106000  0.49456000  1
  O  O311  1  0.52960000  0.46540000  0.04524000  1
  O  O312  1  0.51180000  0.70068000  0.05406000  1
  O  O313  1  0.51036000  0.71461000  0.15454000  1
  O  O314  1  0.48964000  0.28539000  0.84546000  1
  O  O315  1  0.48820000  0.29932000  0.94594000  1
  O  O316  1  0.47040000  0.53460000  0.95476000  1
  O  O317  1  0.45566000  0.85894000  0.50544000  1
  O  O318  1  0.44629000  0.93460000  0.65430000  1
  O  O319  1  0.44549000  0.43227000  0.85724000  1
  O  O320  1  0.42753000  0.33193000  0.47152000  1
  O  O321  1  0.41329000  0.41421000  0.62052000  1
  O  O322  1  0.34738000  0.71925000  0.47102000  1
  O  O323  1  0.34326000  0.89766000  0.44818000  1
  O  O324  1  0.33250000  0.80165000  0.62642000  1
  O  O325  1  0.33088000  0.38839000  0.42640000  1
  O  O326  1  0.31347000  0.19769000  0.44814000  1
  O  O327  1  0.30456000  0.28271000  0.59400000  1
  O  O328  1  0.26268000  0.86292000  0.51556000  1
  O  O329  1  0.23732000  0.34736000  0.48444000  1
  O  O330  1  0.19544000  0.68871000  0.40600000  1
  O  O331  1  0.18653000  0.74955000  0.55186000  1
  O  O332  1  0.16912000  0.96199000  0.57360000  1
  O  O333  1  0.16750000  0.17523000  0.37358000  1
  O  O334  1  0.15674000  0.44948000  0.55182000  1
  O  O335  1  0.15262000  0.24823000  0.52898000  1
  O  O336  1  0.08671000  0.79369000  0.37948000  1
  O  O337  1  0.07247000  0.86041000  0.52848000  1
  O  O338  1  0.05451000  0.57503000  0.14276000  1
  O  O339  1  0.05371000  0.28030000  0.34570000  1
  O  O340  1  0.04434000  0.35350000  0.49456000  1
  O  O341  1  0.02960000  0.57984000  0.04524000  1
  O  O342  1  0.01180000  0.35338000  0.05406000  1
  O  O343  1  0.01036000  0.43993000  0.15454000  1
