# generated using pymatgen
data_Al(C3O2)2
_symmetry_space_group_name_H-M   'P 1'
_cell_length_a   16.84397747
_cell_length_b   16.84397747
_cell_length_c   16.84397747
_cell_angle_alpha   77.58297458
_cell_angle_beta   77.58297458
_cell_angle_gamma   77.58297458
_symmetry_Int_Tables_number   1
_chemical_formula_structural   Al(C3O2)2
_chemical_formula_sum   'Al12 C72 O48'
_cell_volume   4486.06186521
_cell_formula_units_Z   12
loop_
 _symmetry_equiv_pos_site_id
 _symmetry_equiv_pos_as_xyz
  1  'x, y, z'
loop_
 _atom_site_type_symbol
 _atom_site_label
 _atom_site_symmetry_multiplicity
 _atom_site_fract_x
 _atom_site_fract_y
 _atom_site_fract_z
 _atom_site_occupancy
  Al  Al0  1  0.20190000  0.55881000  0.69315000  1
  Al  Al1  1  0.20190000  0.69315000  0.55881000  1
  Al  Al2  1  0.55881000  0.69315000  0.20190000  1
  Al  Al3  1  0.55881000  0.20190000  0.69315000  1
  Al  Al4  1  0.30685000  0.44119000  0.79810000  1
  Al  Al5  1  0.30685000  0.79810000  0.44119000  1
  Al  Al6  1  0.69315000  0.55881000  0.20190000  1
  Al  Al7  1  0.69315000  0.20190000  0.55881000  1
  Al  Al8  1  0.44119000  0.30685000  0.79810000  1
  Al  Al9  1  0.44119000  0.79810000  0.30685000  1
  Al  Al10  1  0.79810000  0.30685000  0.44119000  1
  Al  Al11  1  0.79810000  0.44119000  0.30685000  1
  C  C12  1  0.50000000  0.86092000  0.13908000  1
  C  C13  1  0.50000000  0.93397000  0.06603000  1
  C  C14  1  0.50000000  0.06603000  0.93397000  1
  C  C15  1  0.50000000  0.13908000  0.86092000  1
  C  C16  1  0.02560000  0.45934000  0.57469000  1
  C  C17  1  0.02560000  0.57469000  0.45934000  1
  C  C18  1  0.04755000  0.53568000  0.53568000  1
  C  C19  1  0.10103000  0.57473000  0.57473000  1
  C  C20  1  0.86092000  0.13908000  0.50000000  1
  C  C21  1  0.86092000  0.50000000  0.13908000  1
  C  C22  1  0.54498000  0.92338000  0.98931000  1
  C  C23  1  0.54498000  0.98931000  0.92338000  1
  C  C24  1  0.62800000  0.77800000  0.29770000  1
  C  C25  1  0.62800000  0.29770000  0.77800000  1
  C  C26  1  0.29770000  0.62800000  0.77800000  1
  C  C27  1  0.29770000  0.77800000  0.62800000  1
  C  C28  1  0.52968000  0.52968000  0.31968000  1
  C  C29  1  0.52968000  0.31968000  0.52968000  1
  C  C30  1  0.90577000  0.27412000  0.27412000  1
  C  C31  1  0.93397000  0.06603000  0.50000000  1
  C  C32  1  0.93397000  0.50000000  0.06603000  1
  C  C33  1  0.92338000  0.98931000  0.54498000  1
  C  C34  1  0.92338000  0.54498000  0.98931000  1
  C  C35  1  0.45934000  0.57469000  0.02560000  1
  C  C36  1  0.45934000  0.02560000  0.57469000  1
  C  C37  1  0.42531000  0.54066000  0.97440000  1
  C  C38  1  0.42531000  0.97440000  0.54066000  1
  C  C39  1  0.27412000  0.27412000  0.90577000  1
  C  C40  1  0.27412000  0.90577000  0.27412000  1
  C  C41  1  0.22200000  0.37200000  0.70230000  1
  C  C42  1  0.22200000  0.70230000  0.37200000  1
  C  C43  1  0.68032000  0.47032000  0.47032000  1
  C  C44  1  0.57473000  0.57473000  0.10103000  1
  C  C45  1  0.57473000  0.10103000  0.57473000  1
  C  C46  1  0.53568000  0.53568000  0.04755000  1
  C  C47  1  0.53568000  0.04755000  0.53568000  1
  C  C48  1  0.01069000  0.07662000  0.45502000  1
  C  C49  1  0.01069000  0.45502000  0.07662000  1
  C  C50  1  0.98931000  0.92338000  0.54498000  1
  C  C51  1  0.98931000  0.54498000  0.92338000  1
  C  C52  1  0.46432000  0.46432000  0.95245000  1
  C  C53  1  0.46432000  0.95245000  0.46432000  1
  C  C54  1  0.42527000  0.42527000  0.89897000  1
  C  C55  1  0.42527000  0.89897000  0.42527000  1
  C  C56  1  0.31968000  0.52968000  0.52968000  1
  C  C57  1  0.77800000  0.62800000  0.29770000  1
  C  C58  1  0.77800000  0.29770000  0.62800000  1
  C  C59  1  0.72588000  0.72588000  0.09423000  1
  C  C60  1  0.72588000  0.09423000  0.72588000  1
  C  C61  1  0.57469000  0.45934000  0.02560000  1
  C  C62  1  0.57469000  0.02560000  0.45934000  1
  C  C63  1  0.54066000  0.42531000  0.97440000  1
  C  C64  1  0.54066000  0.97440000  0.42531000  1
  C  C65  1  0.07662000  0.01069000  0.45502000  1
  C  C66  1  0.07662000  0.45502000  0.01069000  1
  C  C67  1  0.06603000  0.93397000  0.50000000  1
  C  C68  1  0.06603000  0.50000000  0.93397000  1
  C  C69  1  0.09423000  0.72588000  0.72588000  1
  C  C70  1  0.47032000  0.47032000  0.68032000  1
  C  C71  1  0.47032000  0.68032000  0.47032000  1
  C  C72  1  0.70230000  0.22200000  0.37200000  1
  C  C73  1  0.70230000  0.37200000  0.22200000  1
  C  C74  1  0.37200000  0.22200000  0.70230000  1
  C  C75  1  0.37200000  0.70230000  0.22200000  1
  C  C76  1  0.45502000  0.01069000  0.07662000  1
  C  C77  1  0.45502000  0.07662000  0.01069000  1
  C  C78  1  0.13908000  0.86092000  0.50000000  1
  C  C79  1  0.13908000  0.50000000  0.86092000  1
  C  C80  1  0.89897000  0.42527000  0.42527000  1
  C  C81  1  0.95245000  0.46432000  0.46432000  1
  C  C82  1  0.97440000  0.42531000  0.54066000  1
  C  C83  1  0.97440000  0.54066000  0.42531000  1
  O  O84  1  0.84024000  0.32469000  0.32469000  1
  O  O85  1  0.11668000  0.53618000  0.64176000  1
  O  O86  1  0.11668000  0.64176000  0.53618000  1
  O  O87  1  0.55218000  0.75833000  0.28303000  1
  O  O88  1  0.55218000  0.28303000  0.75833000  1
  O  O89  1  0.20237000  0.45311000  0.87962000  1
  O  O90  1  0.20237000  0.87962000  0.45311000  1
  O  O91  1  0.87962000  0.20237000  0.45311000  1
  O  O92  1  0.87962000  0.45311000  0.20237000  1
  O  O93  1  0.54689000  0.79763000  0.12038000  1
  O  O94  1  0.54689000  0.12038000  0.79763000  1
  O  O95  1  0.28303000  0.55218000  0.75833000  1
  O  O96  1  0.28303000  0.75833000  0.55218000  1
  O  O97  1  0.53618000  0.64176000  0.11668000  1
  O  O98  1  0.53618000  0.11668000  0.64176000  1
  O  O99  1  0.24167000  0.44782000  0.71697000  1
  O  O100  1  0.24167000  0.71697000  0.44782000  1
  O  O101  1  0.58584000  0.58584000  0.26349000  1
  O  O102  1  0.58584000  0.26349000  0.58584000  1
  O  O103  1  0.26349000  0.58584000  0.58584000  1
  O  O104  1  0.35824000  0.46382000  0.88332000  1
  O  O105  1  0.35824000  0.88332000  0.46382000  1
  O  O106  1  0.32469000  0.32469000  0.84024000  1
  O  O107  1  0.32469000  0.84024000  0.32469000  1
  O  O108  1  0.67531000  0.67531000  0.15976000  1
  O  O109  1  0.67531000  0.15976000  0.67531000  1
  O  O110  1  0.64176000  0.53618000  0.11668000  1
  O  O111  1  0.64176000  0.11668000  0.53618000  1
  O  O112  1  0.73651000  0.41416000  0.41416000  1
  O  O113  1  0.41416000  0.41416000  0.73651000  1
  O  O114  1  0.41416000  0.73651000  0.41416000  1
  O  O115  1  0.75833000  0.55218000  0.28303000  1
  O  O116  1  0.75833000  0.28303000  0.55218000  1
  O  O117  1  0.46382000  0.35824000  0.88332000  1
  O  O118  1  0.46382000  0.88332000  0.35824000  1
  O  O119  1  0.71697000  0.24167000  0.44782000  1
  O  O120  1  0.71697000  0.44782000  0.24167000  1
  O  O121  1  0.45311000  0.20237000  0.87962000  1
  O  O122  1  0.45311000  0.87962000  0.20237000  1
  O  O123  1  0.12038000  0.54689000  0.79763000  1
  O  O124  1  0.12038000  0.79763000  0.54689000  1
  O  O125  1  0.79763000  0.54689000  0.12038000  1
  O  O126  1  0.79763000  0.12038000  0.54689000  1
  O  O127  1  0.44782000  0.24167000  0.71697000  1
  O  O128  1  0.44782000  0.71697000  0.24167000  1
  O  O129  1  0.88332000  0.35824000  0.46382000  1
  O  O130  1  0.88332000  0.46382000  0.35824000  1
  O  O131  1  0.15976000  0.67531000  0.67531000  1
