# generated using pymatgen
data_V2P2H7C3O7
_symmetry_space_group_name_H-M   'P 1'
_cell_length_a   9.05021940
_cell_length_b   9.05021940
_cell_length_c   18.60400000
_cell_angle_alpha   80.90007393
_cell_angle_beta   80.90007393
_cell_angle_gamma   68.03332146
_symmetry_Int_Tables_number   1
_chemical_formula_structural   V2P2H7C3O7
_chemical_formula_sum   'V8 P8 H28 C12 O28'
_cell_volume   1387.19956505
_cell_formula_units_Z   4
loop_
 _symmetry_equiv_pos_site_id
 _symmetry_equiv_pos_as_xyz
  1  'x, y, z'
loop_
 _atom_site_type_symbol
 _atom_site_label
 _atom_site_symmetry_multiplicity
 _atom_site_fract_x
 _atom_site_fract_y
 _atom_site_fract_z
 _atom_site_occupancy
  C  C0  1  0.37810000  0.67710000  0.12680000  1
  C  C1  1  0.67710000  0.37810000  0.62680000  1
  C  C2  1  0.30770000  0.79770000  0.35570000  1
  C  C3  1  0.79770000  0.30770000  0.85570000  1
  C  C4  1  0.39310000  0.84170000  0.11020000  1
  C  C5  1  0.84170000  0.39310000  0.61020000  1
  C  C6  1  0.60690000  0.15830000  0.88980000  1
  C  C7  1  0.15830000  0.60690000  0.38980000  1
  C  C8  1  0.69230000  0.20230000  0.64430000  1
  C  C9  1  0.20230000  0.69230000  0.14430000  1
  C  C10  1  0.62190000  0.32290000  0.87320000  1
  C  C11  1  0.32290000  0.62190000  0.37320000  1
  H  H12  1  0.42570000  0.61710000  0.08490000  1
  H  H13  1  0.61710000  0.42570000  0.58490000  1
  H  H14  1  0.43610000  0.61850000  0.16820000  1
  H  H15  1  0.61850000  0.43610000  0.66820000  1
  H  H16  1  0.24370000  0.84450000  0.31510000  1
  H  H17  1  0.84450000  0.24370000  0.81510000  1
  H  H18  1  0.24950000  0.85370000  0.39780000  1
  H  H19  1  0.85370000  0.24950000  0.89780000  1
  H  H20  1  0.32150000  0.90510000  0.07400000  1
  H  H21  1  0.90510000  0.32150000  0.57400000  1
  H  H22  1  0.35810000  0.89510000  0.15450000  1
  H  H23  1  0.89510000  0.35810000  0.65450000  1
  H  H24  1  0.51200000  0.90400000  0.80200000  1
  H  H25  1  0.90400000  0.51200000  0.30200000  1
  H  H26  1  0.48800000  0.09600000  0.19800000  1
  H  H27  1  0.09600000  0.48800000  0.69800000  1
  H  H28  1  0.64190000  0.10490000  0.84550000  1
  H  H29  1  0.10490000  0.64190000  0.34550000  1
  H  H30  1  0.67850000  0.09490000  0.92600000  1
  H  H31  1  0.09490000  0.67850000  0.42600000  1
  H  H32  1  0.75050000  0.14630000  0.60220000  1
  H  H33  1  0.14630000  0.75050000  0.10220000  1
  H  H34  1  0.75630000  0.15550000  0.68490000  1
  H  H35  1  0.15550000  0.75630000  0.18490000  1
  H  H36  1  0.56390000  0.38150000  0.83180000  1
  H  H37  1  0.38150000  0.56390000  0.33180000  1
  H  H38  1  0.57430000  0.38290000  0.91510000  1
  H  H39  1  0.38290000  0.57430000  0.41510000  1
  O  O40  1  0.56783333  0.76543333  0.25990000  1
  O  O41  1  0.76543333  0.56783333  0.75990000  1
  O  O42  1  0.60010000  0.75190000  0.39451000  1
  O  O43  1  0.75190000  0.60010000  0.89451000  1
  O  O44  1  0.55690000  0.84150000  0.80890000  1
  O  O45  1  0.84150000  0.55690000  0.30890000  1
  O  O46  1  0.40180000  0.99820000  0.92300000  1
  O  O47  1  0.99820000  0.40180000  0.42300000  1
  O  O48  1  0.63610000  0.77970000  0.00090000  1
  O  O49  1  0.77970000  0.63610000  0.50090000  1
  O  O50  1  0.71220000  0.71320000  0.12562000  1
  O  O51  1  0.71320000  0.71220000  0.62562000  1
  O  O52  1  0.45600000  0.01240000  0.32760000  1
  O  O53  1  0.01240000  0.45600000  0.82760000  1
  O  O54  1  0.54400000  0.98760000  0.67240000  1
  O  O55  1  0.98760000  0.54400000  0.17240000  1
  O  O56  1  0.28780000  0.28680000  0.87438000  1
  O  O57  1  0.28680000  0.28780000  0.37438000  1
  O  O58  1  0.36390000  0.22030000  0.99910000  1
  O  O59  1  0.22030000  0.36390000  0.49910000  1
  O  O60  1  0.59820000  0.00180000  0.07700000  1
  O  O61  1  0.00180000  0.59820000  0.57700000  1
  O  O62  1  0.44310000  0.15850000  0.19110000  1
  O  O63  1  0.15850000  0.44310000  0.69110000  1
  O  O64  1  0.39990000  0.24810000  0.60549000  1
  O  O65  1  0.24810000  0.39990000  0.10549000  1
  O  O66  1  0.43220000  0.23460000  0.74010000  1
  O  O67  1  0.23460000  0.43220000  0.24010000  1
  P  P68  1  0.49273000  0.83247000  0.33314000  1
  P  P69  1  0.83247000  0.49273000  0.83314000  1
  P  P70  1  0.59172000  0.83680000  0.07702000  1
  P  P71  1  0.83680000  0.59172000  0.57702000  1
  P  P72  1  0.40828000  0.16320000  0.92298000  1
  P  P73  1  0.16320000  0.40828000  0.42298000  1
  P  P74  1  0.50727000  0.16753000  0.66686000  1
  P  P75  1  0.16753000  0.50727000  0.16686000  1
  V  V76  1  0.54491000  0.77305000  0.91415000  1
  V  V77  1  0.77305000  0.54491000  0.41415000  1
  V  V78  1  0.70095000  0.79269000  0.71865000  1
  V  V79  1  0.79269000  0.70095000  0.21865000  1
  V  V80  1  0.29905000  0.20731000  0.28135000  1
  V  V81  1  0.20731000  0.29905000  0.78135000  1
  V  V82  1  0.45509000  0.22695000  0.08585000  1
  V  V83  1  0.22695000  0.45509000  0.58585000  1
