# generated using pymatgen
data_FeCoH2(CO)6
_symmetry_space_group_name_H-M   'P 1'
_cell_length_a   10.84616191
_cell_length_b   10.84616191
_cell_length_c   10.87300000
_cell_angle_alpha   81.08107298
_cell_angle_beta   81.08107298
_cell_angle_gamma   79.34262472
_symmetry_Int_Tables_number   1
_chemical_formula_structural   FeCoH2(CO)6
_chemical_formula_sum   'Fe3 Co3 H6 C18 O18'
_cell_volume   1231.26504959
_cell_formula_units_Z   3
loop_
 _symmetry_equiv_pos_site_id
 _symmetry_equiv_pos_as_xyz
  1  'x, y, z'
loop_
 _atom_site_type_symbol
 _atom_site_label
 _atom_site_symmetry_multiplicity
 _atom_site_fract_x
 _atom_site_fract_y
 _atom_site_fract_z
 _atom_site_occupancy
  C  C0  1  0.42820000  0.57320000  0.59750000  1
  C  C1  1  0.32790000  0.67510000  0.56740000  1
  C  C2  1  0.48070000  0.54610000  0.72230000  1
  C  C3  1  0.84120000  0.33120000  0.08190000  1
  C  C4  1  0.00220000  0.21060000  0.22950000  1
  C  C5  1  0.96650000  0.29910000  0.13360000  1
  C  C6  1  0.63770000  0.71530000  0.89530000  1
  C  C7  1  0.13460000  0.22060000  0.23460000  1
  C  C8  1  0.16380000  0.30540000  0.14290000  1
  C  C9  1  0.69460000  0.83620000  0.85710000  1
  C  C10  1  0.77940000  0.86540000  0.76540000  1
  C  C11  1  0.28470000  0.36230000  0.10470000  1
  C  C12  1  0.70090000  0.03350000  0.86640000  1
  C  C13  1  0.78940000  0.99780000  0.77050000  1
  C  C14  1  0.66880000  0.15880000  0.91810000  1
  C  C15  1  0.45390000  0.51930000  0.27770000  1
  C  C16  1  0.32490000  0.67210000  0.43260000  1
  C  C17  1  0.42680000  0.57180000  0.40250000  1
  Co  Co18  1  0.43230000  0.56770000  0.00000000  1
  Co  Co19  1  0.69950000  0.43210000  0.87660000  1
  Co  Co20  1  0.56790000  0.30050000  0.12340000  1
  Fe  Fe21  1  0.41950000  0.58050000  0.00000000  1
  Fe  Fe22  1  0.69580000  0.43460000  0.85780000  1
  Fe  Fe23  1  0.56540000  0.30420000  0.14220000  1
  H  H24  1  0.27640000  0.73080000  0.62110000  1
  H  H25  1  0.95270000  0.15450000  0.28180000  1
  H  H26  1  0.18770000  0.17410000  0.29340000  1
  H  H27  1  0.82590000  0.81230000  0.70660000  1
  H  H28  1  0.84550000  0.04730000  0.71820000  1
  H  H29  1  0.26920000  0.72360000  0.37890000  1
  O  O30  1  0.48290000  0.51710000  0.50000000  1
  O  O31  1  0.56810000  0.43190000  0.00000000  1
  O  O32  1  0.41500000  0.60200000  0.80950000  1
  O  O33  1  0.75860000  0.27640000  0.14160000  1
  O  O34  1  0.57870000  0.45870000  0.72600000  1
  O  O35  1  0.83830000  0.40970000  0.97970000  1
  O  O36  1  0.54230000  0.71470000  0.97180000  1
  O  O37  1  0.84700000  0.42400000  0.71580000  1
  O  O38  1  0.70400000  0.62340000  0.83600000  1
  O  O39  1  0.06250000  0.36030000  0.07840000  1
  O  O40  1  0.63970000  0.93750000  0.92160000  1
  O  O41  1  0.37660000  0.29600000  0.16400000  1
  O  O42  1  0.57600000  0.15300000  0.28420000  1
  O  O43  1  0.28530000  0.45770000  0.02820000  1
  O  O44  1  0.59030000  0.16170000  0.02030000  1
  O  O45  1  0.54130000  0.42130000  0.27400000  1
  O  O46  1  0.72360000  0.24140000  0.85840000  1
  O  O47  1  0.39800000  0.58500000  0.19050000  1
