# generated using pymatgen
data_MnGa(PO4)2
_symmetry_space_group_name_H-M   'P 1'
_cell_length_a   10.03919137
_cell_length_b   10.03919137
_cell_length_c   16.73560000
_cell_angle_alpha   90.00000000
_cell_angle_beta   90.00000000
_cell_angle_gamma   120.00126113
_symmetry_Int_Tables_number   1
_chemical_formula_structural   MnGa(PO4)2
_chemical_formula_sum   'Mn6 Ga6 P12 O48'
_cell_volume   1460.70953912
_cell_formula_units_Z   6
loop_
 _symmetry_equiv_pos_site_id
 _symmetry_equiv_pos_as_xyz
  1  'x, y, z'
loop_
 _atom_site_type_symbol
 _atom_site_label
 _atom_site_symmetry_multiplicity
 _atom_site_fract_x
 _atom_site_fract_y
 _atom_site_fract_z
 _atom_site_occupancy
  Ga  Ga0  1  0.84290000  0.15710000  0.25000000  1
  Ga  Ga1  1  0.15710000  0.84290000  0.75000000  1
  Ga  Ga2  1  0.68620000  0.84320000  0.41670000  1
  Ga  Ga3  1  0.84320000  0.68620000  0.58330000  1
  Ga  Ga4  1  0.31380000  0.15680000  0.91670000  1
  Ga  Ga5  1  0.15680000  0.31380000  0.08330000  1
  Mn  Mn6  1  0.54080000  0.45920000  0.25000000  1
  Mn  Mn7  1  0.45920000  0.54080000  0.75000000  1
  Mn  Mn8  1  0.54100000  0.08160000  0.58330000  1
  Mn  Mn9  1  0.08160000  0.54100000  0.41670000  1
  Mn  Mn10  1  0.45900000  0.91840000  0.08330000  1
  Mn  Mn11  1  0.91840000  0.45900000  0.91670000  1
  O  O12  1  0.76030000  0.20710000  0.33430000  1
  O  O13  1  0.20710000  0.76030000  0.66570000  1
  O  O14  1  0.82140000  0.04760000  0.42520000  1
  O  O15  1  0.04760000  0.82140000  0.57480000  1
  O  O16  1  0.49810000  0.37010000  0.13200000  1
  O  O17  1  0.37010000  0.49810000  0.86800000  1
  O  O18  1  0.67890000  0.08350000  0.04020000  1
  O  O19  1  0.08350000  0.67890000  0.95980000  1
  O  O20  1  0.62940000  0.12880000  0.46560000  1
  O  O21  1  0.12880000  0.62940000  0.53440000  1
  O  O22  1  0.77320000  0.95180000  0.24070000  1
  O  O23  1  0.95180000  0.77320000  0.75930000  1
  O  O24  1  0.40350000  0.32050000  0.70730000  1
  O  O25  1  0.32050000  0.40350000  0.29270000  1
  O  O26  1  0.44640000  0.23980000  0.00110000  1
  O  O27  1  0.23980000  0.44640000  0.99890000  1
  O  O28  1  0.44680000  0.20740000  0.83240000  1
  O  O29  1  0.20740000  0.44680000  0.16760000  1
  O  O30  1  0.49910000  0.12810000  0.70180000  1
  O  O31  1  0.12810000  0.49910000  0.29820000  1
  O  O32  1  0.77290000  0.82110000  0.59180000  1
  O  O33  1  0.82110000  0.77290000  0.40820000  1
  O  O34  1  0.59610000  0.91610000  0.62680000  1
  O  O35  1  0.91610000  0.59610000  0.37320000  1
  O  O36  1  0.40390000  0.08390000  0.12680000  1
  O  O37  1  0.08390000  0.40390000  0.87320000  1
  O  O38  1  0.22710000  0.17890000  0.09180000  1
  O  O39  1  0.17890000  0.22710000  0.90820000  1
  O  O40  1  0.50090000  0.87190000  0.20180000  1
  O  O41  1  0.87190000  0.50090000  0.79820000  1
  O  O42  1  0.55320000  0.79260000  0.33240000  1
  O  O43  1  0.79260000  0.55320000  0.66760000  1
  O  O44  1  0.55360000  0.76020000  0.50110000  1
  O  O45  1  0.76020000  0.55360000  0.49890000  1
  O  O46  1  0.59650000  0.67950000  0.20730000  1
  O  O47  1  0.67950000  0.59650000  0.79270000  1
  O  O48  1  0.22680000  0.04820000  0.74070000  1
  O  O49  1  0.04820000  0.22680000  0.25930000  1
  O  O50  1  0.37060000  0.87120000  0.96560000  1
  O  O51  1  0.87120000  0.37060000  0.03440000  1
  O  O52  1  0.32110000  0.91650000  0.54020000  1
  O  O53  1  0.91650000  0.32110000  0.45980000  1
  O  O54  1  0.50190000  0.62990000  0.63200000  1
  O  O55  1  0.62990000  0.50190000  0.36800000  1
  O  O56  1  0.17860000  0.95240000  0.92520000  1
  O  O57  1  0.95240000  0.17860000  0.07480000  1
  O  O58  1  0.23970000  0.79290000  0.83430000  1
  O  O59  1  0.79290000  0.23970000  0.16570000  1
  P  P60  1  0.78050000  0.17930000  0.42420000  1
  P  P61  1  0.17930000  0.78050000  0.57580000  1
  P  P62  1  0.39880000  0.21960000  0.09070000  1
  P  P63  1  0.21960000  0.39880000  0.90930000  1
  P  P64  1  0.39880000  0.17920000  0.74230000  1
  P  P65  1  0.17920000  0.39880000  0.25770000  1
  P  P66  1  0.60120000  0.82080000  0.24230000  1
  P  P67  1  0.82080000  0.60120000  0.75770000  1
  P  P68  1  0.60120000  0.78040000  0.59070000  1
  P  P69  1  0.78040000  0.60120000  0.40930000  1
  P  P70  1  0.21950000  0.82070000  0.92420000  1
  P  P71  1  0.82070000  0.21950000  0.07580000  1
