# generated using pymatgen
data_LaH8(C4O5)2
_symmetry_space_group_name_H-M   'P 1'
_cell_length_a   13.44167139
_cell_length_b   13.44180000
_cell_length_c   13.44180000
_cell_angle_alpha   94.77470000
_cell_angle_beta   117.28266592
_cell_angle_gamma   117.28266592
_symmetry_Int_Tables_number   1
_chemical_formula_structural   LaH8(C4O5)2
_chemical_formula_sum   'La4 H32 C32 O40'
_cell_volume   1781.17098509
_cell_formula_units_Z   4
loop_
 _symmetry_equiv_pos_site_id
 _symmetry_equiv_pos_as_xyz
  1  'x, y, z'
loop_
 _atom_site_type_symbol
 _atom_site_label
 _atom_site_symmetry_multiplicity
 _atom_site_fract_x
 _atom_site_fract_y
 _atom_site_fract_z
 _atom_site_occupancy
  La  La0  1  0.23600000  0.37500000  0.11100000  1
  La  La1  1  0.26400000  0.88900000  0.12500000  1
  La  La2  1  0.73600000  0.86100000  0.62500000  1
  La  La3  1  0.76400000  0.87500000  0.13900000  1
  H  H4  1  0.02410000  0.91830000  0.50520000  1
  H  H5  1  0.04770000  0.48520000  0.82810000  1
  H  H6  1  0.05230000  0.64820000  0.25210000  1
  H  H7  1  0.07370000  0.56790000  0.18280000  1
  H  H8  1  0.08690000  0.83170000  0.35580000  1
  H  H9  1  0.10390000  0.10180000  0.65410000  1
  H  H10  1  0.11490000  0.18210000  0.75580000  1
  H  H11  1  0.15710000  0.96960000  0.42190000  1
  H  H12  1  0.34290000  0.56250000  0.51480000  1
  H  H13  1  0.38510000  0.81720000  0.89090000  1
  H  H14  1  0.39610000  0.74790000  0.80020000  1
  H  H15  1  0.41310000  0.49480000  0.51890000  1
  H  H16  1  0.42630000  0.24420000  0.35910000  1
  H  H17  1  0.44770000  0.34590000  0.44980000  1
  H  H18  1  0.45230000  0.18750000  0.03040000  1
  H  H19  1  0.47590000  0.64420000  0.73110000  1
  H  H20  1  0.52410000  0.25520000  0.16830000  1
  H  H21  1  0.54770000  0.57810000  0.73520000  1
  H  H22  1  0.55230000  0.00210000  0.89820000  1
  H  H23  1  0.57370000  0.93280000  0.81790000  1
  H  H24  1  0.58690000  0.10580000  0.08170000  1
  H  H25  1  0.60390000  0.40410000  0.35180000  1
  H  H26  1  0.61490000  0.50580000  0.43210000  1
  H  H27  1  0.65710000  0.17190000  0.21960000  1
  H  H28  1  0.84290000  0.26480000  0.81250000  1
  H  H29  1  0.88510000  0.64090000  0.06720000  1
  H  H30  1  0.89610000  0.55020000  0.99790000  1
  H  H31  1  0.91310000  0.26890000  0.74480000  1
  H  H32  1  0.92630000  0.10910000  0.49420000  1
  H  H33  1  0.94770000  0.19980000  0.59590000  1
  H  H34  1  0.95230000  0.78040000  0.43750000  1
  H  H35  1  0.97590000  0.48110000  0.89420000  1
  C  C36  1  0.05110000  0.48130000  0.90120000  1
  C  C37  1  0.06690000  0.10030000  0.70160000  1
  C  C38  1  0.08010000  0.89990000  0.34880000  1
  C  C39  1  0.08190000  0.92450000  0.24120000  1
  C  C40  1  0.08310000  0.02130000  0.77340000  1
  C  C41  1  0.10130000  0.64970000  0.21660000  1
  C  C42  1  0.18330000  0.59070000  0.00880000  1
  C  C43  1  0.24790000  0.22660000  0.30970000  1
  C  C44  1  0.25210000  0.72870000  0.31180000  1
  C  C45  1  0.31670000  0.15740000  0.07550000  1
  C  C46  1  0.39870000  0.29840000  0.36530000  1
  C  C47  1  0.41690000  0.68820000  0.94030000  1
  C  C48  1  0.41810000  0.59260000  0.40930000  1
  C  C49  1  0.41990000  0.56980000  0.51870000  1
  C  C50  1  0.43310000  0.78340000  0.88470000  1
  C  C51  1  0.44890000  0.18020000  0.10010000  1
  C  C52  1  0.55110000  0.65120000  0.73130000  1
  C  C53  1  0.56690000  0.45160000  0.35030000  1
  C  C54  1  0.58010000  0.09880000  0.14990000  1
  C  C55  1  0.58190000  0.99120000  0.17450000  1
  C  C56  1  0.58310000  0.52340000  0.27130000  1
  C  C57  1  0.60130000  0.96660000  0.89970000  1
  C  C58  1  0.68330000  0.75880000  0.84070000  1
  C  C59  1  0.74790000  0.05970000  0.47660000  1
  C  C60  1  0.75210000  0.06180000  0.97870000  1
  C  C61  1  0.81670000  0.82550000  0.40740000  1
  C  C62  1  0.89870000  0.11530000  0.54840000  1
  C  C63  1  0.91690000  0.69030000  0.93820000  1
  C  C64  1  0.91810000  0.15930000  0.84260000  1
  C  C65  1  0.91990000  0.26870000  0.81980000  1
  C  C66  1  0.93310000  0.63470000  0.03340000  1
  C  C67  1  0.94890000  0.85010000  0.43020000  1
  O  O68  1  0.01260000  0.79710000  0.97010000  1
  O  O69  1  0.01890000  0.18090000  0.94020000  1
  O  O70  1  0.04020000  0.37500000  0.91520000  1
  O  O71  1  0.07210000  0.69710000  0.12500000  1
  O  O72  1  0.17300000  0.21550000  0.20290000  1
  O  O73  1  0.18030000  0.94460000  0.24070000  1
  O  O74  1  0.19070000  0.02960000  0.81870000  1
  O  O75  1  0.20390000  0.68960000  0.00930000  1
  O  O76  1  0.21090000  0.18130000  0.37200000  1
  O  O77  1  0.24070000  0.05980000  0.07870000  1
  O  O78  1  0.25930000  0.56910000  0.08800000  1
  O  O79  1  0.28910000  0.72040000  0.41110000  1
  O  O80  1  0.29610000  0.23570000  0.05540000  1
  O  O81  1  0.30930000  0.58890000  0.87800000  1
  O  O82  1  0.31970000  0.51430000  0.31040000  1
  O  O83  1  0.32700000  0.79250000  0.27990000  1
  O  O84  1  0.42790000  0.37500000  0.30290000  1
  O  O85  1  0.45980000  0.08480000  0.12500000  1
  O  O86  1  0.48110000  0.91200000  0.17130000  1
  O  O87  1  0.48740000  0.53450000  0.20750000  1
  O  O88  1  0.51260000  0.72010000  0.04710000  1
  O  O89  1  0.51890000  0.69020000  0.43090000  1
  O  O90  1  0.54020000  0.66520000  0.62500000  1
  O  O91  1  0.57210000  0.87500000  0.94710000  1
  O  O92  1  0.67300000  0.95290000  0.46550000  1
  O  O93  1  0.68030000  0.99070000  0.19460000  1
  O  O94  1  0.69070000  0.56870000  0.27960000  1
  O  O95  1  0.70390000  0.75930000  0.93960000  1
  O  O96  1  0.71090000  0.12200000  0.43130000  1
  O  O97  1  0.74070000  0.82870000  0.30980000  1
  O  O98  1  0.75930000  0.83800000  0.81910000  1
  O  O99  1  0.78910000  0.16110000  0.97040000  1
  O  O100  1  0.79610000  0.80540000  0.48570000  1
  O  O101  1  0.80930000  0.62800000  0.83890000  1
  O  O102  1  0.81970000  0.06040000  0.76430000  1
  O  O103  1  0.82700000  0.02990000  0.04250000  1
  O  O104  1  0.92790000  0.05290000  0.62500000  1
  O  O105  1  0.95980000  0.87500000  0.33480000  1
  O  O106  1  0.98110000  0.92130000  0.16200000  1
  O  O107  1  0.98740000  0.95750000  0.78450000  1
