# generated using pymatgen
data_Cd3Si2H32(C7O2)8
_symmetry_space_group_name_H-M   'P 1'
_cell_length_a   15.62060000
_cell_length_b   15.90540000
_cell_length_c   22.84960000
_cell_angle_alpha   90.00000000
_cell_angle_beta   90.00000000
_cell_angle_gamma   119.41000000
_symmetry_Int_Tables_number   1
_chemical_formula_structural   Cd3Si2H32(C7O2)8
_chemical_formula_sum   'Cd6 Si4 H64 C112 O32'
_cell_volume   4945.41727182
_cell_formula_units_Z   2
loop_
 _symmetry_equiv_pos_site_id
 _symmetry_equiv_pos_as_xyz
  1  'x, y, z'
loop_
 _atom_site_type_symbol
 _atom_site_label
 _atom_site_symmetry_multiplicity
 _atom_site_fract_x
 _atom_site_fract_y
 _atom_site_fract_z
 _atom_site_occupancy
  Cd  Cd0  1  0.14957000  0.82876000  0.62997000  1
  Cd  Cd1  1  0.23505000  0.00000000  0.50000000  1
  Cd  Cd2  1  0.32081000  0.17124000  0.37003000  1
  Cd  Cd3  1  0.67919000  0.82876000  0.87003000  1
  Cd  Cd4  1  0.76495000  0.00000000  0.00000000  1
  Cd  Cd5  1  0.85043000  0.17124000  0.12996000  1
  Si  Si6  1  0.16709000  0.80472000  0.05103000  1
  Si  Si7  1  0.36237000  0.19528000  0.94897000  1
  Si  Si8  1  0.63763000  0.80472000  0.44897000  1
  Si  Si9  1  0.83291000  0.19528000  0.55103000  1
  H  H10  1  0.00160000  0.37000000  0.50460000  1
  H  H11  1  0.00390000  0.85100000  0.87890000  1
  H  H12  1  0.00640000  0.83660000  0.08240000  1
  H  H13  1  0.03400000  0.15400000  0.96470000  1
  H  H14  1  0.07930000  0.53560000  0.52440000  1
  H  H15  1  0.10050000  0.77120000  0.17390000  1
  H  H16  1  0.11710000  0.51320000  0.15380000  1
  H  H17  1  0.12000000  0.15400000  0.53530000  1
  H  H18  1  0.13090000  0.84180000  0.92620000  1
  H  H19  1  0.13890000  0.86800000  0.25920000  1
  H  H20  1  0.15290000  0.14900000  0.12110000  1
  H  H21  1  0.16980000  0.16340000  0.91760000  1
  H  H22  1  0.19490000  0.67880000  0.13400000  1
  H  H23  1  0.21950000  0.78040000  0.93160000  1
  H  H24  1  0.24850000  0.90360000  0.83230000  1
  H  H25  1  0.27090000  0.13200000  0.74080000  1
  H  H26  1  0.28910000  0.15820000  0.07380000  1
  H  H27  1  0.31280000  0.99720000  0.08600000  1
  H  H28  1  0.31560000  0.00280000  0.91400000  1
  H  H29  1  0.32930000  0.22880000  0.82610000  1
  H  H30  1  0.34490000  0.09640000  0.16770000  1
  H  H31  1  0.36090000  0.79880000  0.88470000  1
  H  H32  1  0.36840000  0.37000000  0.99540000  1
  H  H33  1  0.37570000  0.89080000  0.08060000  1
  H  H34  1  0.39210000  0.90920000  0.46620000  1
  H  H35  1  0.39610000  0.51320000  0.34620000  1
  H  H36  1  0.43790000  0.79880000  0.61530000  1
  H  H37  1  0.43910000  0.21960000  0.06840000  1
  H  H38  1  0.45630000  0.53560000  0.97560000  1
  H  H39  1  0.48290000  0.09080000  0.53380000  1
  H  H40  1  0.48390000  0.67880000  0.36600000  1
  H  H41  1  0.48490000  0.10920000  0.91940000  1
  H  H42  1  0.51510000  0.89080000  0.41940000  1
  H  H43  1  0.51610000  0.32120000  0.86600000  1
  H  H44  1  0.51710000  0.90920000  0.03380000  1
  H  H45  1  0.54370000  0.46440000  0.47560000  1
  H  H46  1  0.56090000  0.78040000  0.56840000  1
  H  H47  1  0.56210000  0.20120000  0.11530000  1
  H  H48  1  0.60390000  0.48680000  0.84620000  1
  H  H49  1  0.60790000  0.09080000  0.96620000  1
  H  H50  1  0.62430000  0.10920000  0.58060000  1
  H  H51  1  0.63160000  0.63000000  0.49540000  1
  H  H52  1  0.63910000  0.20120000  0.38470000  1
  H  H53  1  0.65510000  0.90360000  0.66770000  1
  H  H54  1  0.67070000  0.77120000  0.32610000  1
  H  H55  1  0.68440000  0.99720000  0.41400000  1
  H  H56  1  0.68720000  0.00280000  0.58600000  1
  H  H57  1  0.71090000  0.84180000  0.57380000  1
  H  H58  1  0.72910000  0.86800000  0.24080000  1
  H  H59  1  0.75150000  0.09640000  0.33230000  1
  H  H60  1  0.78050000  0.21960000  0.43160000  1
  H  H61  1  0.80510000  0.32120000  0.63400000  1
  H  H62  1  0.83020000  0.83660000  0.41760000  1
  H  H63  1  0.84710000  0.85100000  0.62110000  1
  H  H64  1  0.86110000  0.13200000  0.75920000  1
  H  H65  1  0.86910000  0.15820000  0.42620000  1
  H  H66  1  0.88000000  0.84600000  0.03530000  1
  H  H67  1  0.88290000  0.48680000  0.65380000  1
  H  H68  1  0.89950000  0.22880000  0.67390000  1
  H  H69  1  0.92070000  0.46440000  0.02440000  1
  H  H70  1  0.96600000  0.84600000  0.46470000  1
  H  H71  1  0.99360000  0.16340000  0.58240000  1
  H  H72  1  0.99610000  0.14900000  0.37890000  1
  H  H73  1  0.99840000  0.63000000  0.00460000  1
  C  C74  1  0.00590000  0.83880000  0.04080000  1
  C  C75  1  0.00650000  0.85100000  0.92040000  1
  C  C76  1  0.01101000  0.86602000  0.57680000  1
  C  C77  1  0.01163000  0.47326000  0.09096000  1
  C  C78  1  0.02258000  0.60636000  0.03489000  1
  C  C79  1  0.02361000  0.49202000  0.54664000  1
  C  C80  1  0.04603000  0.63466000  0.60400000  1
  C  C81  1  0.06171000  0.13982000  0.45256000  1
  C  C82  1  0.06720000  0.15200000  0.51360000  1
  C  C83  1  0.07811000  0.13982000  0.04744000  1
  C  C84  1  0.07990000  0.84180000  0.94880000  1
  C  C85  1  0.08181000  0.83282000  0.00907000  1
  C  C86  1  0.08480000  0.15200000  0.98640000  1
  C  C87  1  0.09305000  0.53690000  0.12353000  1
  C  C88  1  0.10400000  0.67000000  0.06745000  1
  C  C89  1  0.13924000  0.63528000  0.11177000  1
  C  C90  1  0.14499000  0.13398000  0.42320000  1
  C  C91  1  0.14984000  0.83728000  0.17240000  1
  C  C92  1  0.15550000  0.14900000  0.07960000  1
  C  C93  1  0.16710000  0.16120000  0.95920000  1
  C  C94  1  0.17291000  0.89522000  0.22370000  1
  C  C95  1  0.19784000  0.87568000  0.12070000  1
  C  C96  1  0.21553000  0.94686000  0.72455000  1
  C  C97  1  0.23810000  0.15820000  0.05120000  1
  C  C98  1  0.24471000  0.99082000  0.22165000  1
  C  C99  1  0.24899000  0.16718000  0.99093000  1
  C  C100  1  0.25389000  0.00918000  0.77835000  1
  C  C101  1  0.26571000  0.96982000  0.83050000  1
  C  C102  1  0.26867000  0.05314000  0.27545000  1
  C  C103  1  0.27468000  0.97176000  0.12050000  1
  C  C104  1  0.27769000  0.10478000  0.77630000  1
  C  C105  1  0.27995000  0.80656000  0.95232000  1
  C  C106  1  0.28431000  0.83386000  0.01051000  1
  C  C107  1  0.29589000  0.03018000  0.16950000  1
  C  C108  1  0.30292000  0.02824000  0.87950000  1
  C  C109  1  0.31256000  0.16272000  0.82760000  1
  C  C110  1  0.32133000  0.86466000  0.57380000  1
  C  C111  1  0.32216000  0.12432000  0.87930000  1
  C  C112  1  0.36395000  0.81752000  0.92448000  1
  C  C113  1  0.37269000  0.87214000  0.04086000  1
  C  C114  1  0.40347000  0.85580000  0.54516000  1
  C  C115  1  0.41137000  0.36534000  0.39600000  1
  C  C116  1  0.41622000  0.39364000  0.96511000  1
  C  C117  1  0.42642000  0.88312000  0.48697000  1
  C  C118  1  0.43400000  0.33000000  0.93255000  1
  C  C119  1  0.44385000  0.53690000  0.37647000  1
  C  C120  1  0.45045000  0.16614000  0.98949000  1
  C  C121  1  0.45233000  0.85580000  0.95484000  1
  C  C122  1  0.45357000  0.81752000  0.57552000  1
  C  C123  1  0.45667000  0.13534000  0.42620000  1
  C  C124  1  0.45670000  0.88312000  0.01303000  1
  C  C125  1  0.46163000  0.47326000  0.40904000  1
  C  C126  1  0.46841000  0.49202000  0.95336000  1
  C  C127  1  0.47339000  0.19344000  0.04768000  1
  C  C128  1  0.49604000  0.63528000  0.38823000  1
  C  C129  1  0.49945000  0.87214000  0.45914000  1
  C  C130  1  0.50055000  0.12786000  0.95914000  1
  C  C131  1  0.50396000  0.36472000  0.88823000  1
  C  C132  1  0.52661000  0.80656000  0.54768000  1
  C  C133  1  0.53159000  0.50798000  0.45336000  1
  C  C134  1  0.53837000  0.52674000  0.90904000  1
  C  C135  1  0.54330000  0.11688000  0.51303000  1
  C  C136  1  0.54333000  0.86466000  0.92620000  1
  C  C137  1  0.54643000  0.18248000  0.07552000  1
  C  C138  1  0.54767000  0.14420000  0.45484000  1
  C  C139  1  0.54955000  0.83386000  0.48949000  1
  C  C140  1  0.55615000  0.46310000  0.87647000  1
  C  C141  1  0.56600000  0.67000000  0.43255000  1
  C  C142  1  0.57358000  0.11688000  0.98697000  1
  C  C143  1  0.58378000  0.60636000  0.46511000  1
  C  C144  1  0.58863000  0.63466000  0.89600000  1
  C  C145  1  0.59653000  0.14420000  0.04516000  1
  C  C146  1  0.62731000  0.12786000  0.54086000  1
  C  C147  1  0.63605000  0.18248000  0.42448000  1
  C  C148  1  0.67784000  0.87568000  0.37930000  1
  C  C149  1  0.67867000  0.13534000  0.07380000  1
  C  C150  1  0.68744000  0.83728000  0.32760000  1
  C  C151  1  0.69708000  0.97176000  0.37950000  1
  C  C152  1  0.70411000  0.96982000  0.66950000  1
  C  C153  1  0.71569000  0.16614000  0.51051000  1
  C  C154  1  0.72005000  0.19344000  0.45232000  1
  C  C155  1  0.72231000  0.89522000  0.27630000  1
  C  C156  1  0.72532000  0.02824000  0.62050000  1
  C  C157  1  0.73133000  0.94686000  0.77545000  1
  C  C158  1  0.73429000  0.03018000  0.33050000  1
  C  C159  1  0.74611000  0.99082000  0.27835000  1
  C  C160  1  0.75101000  0.83282000  0.49093000  1
  C  C161  1  0.75529000  0.00918000  0.72165000  1
  C  C162  1  0.76190000  0.84180000  0.55120000  1
  C  C163  1  0.78447000  0.05314000  0.22455000  1
  C  C164  1  0.80216000  0.12432000  0.62070000  1
  C  C165  1  0.82709000  0.10478000  0.72370000  1
  C  C166  1  0.83290000  0.83880000  0.45920000  1
  C  C167  1  0.84450000  0.85100000  0.57960000  1
  C  C168  1  0.85016000  0.16272000  0.67240000  1
  C  C169  1  0.85501000  0.86602000  0.92320000  1
  C  C170  1  0.86076000  0.36472000  0.61177000  1
  C  C171  1  0.89600000  0.33000000  0.56745000  1
  C  C172  1  0.90695000  0.46310000  0.62353000  1
  C  C173  1  0.91520000  0.84800000  0.48640000  1
  C  C174  1  0.91819000  0.16718000  0.50907000  1
  C  C175  1  0.92010000  0.15820000  0.44880000  1
  C  C176  1  0.92189000  0.86018000  0.54744000  1
  C  C177  1  0.93280000  0.84800000  0.01360000  1
  C  C178  1  0.93829000  0.86018000  0.95256000  1
  C  C179  1  0.95397000  0.36534000  0.10400000  1
  C  C180  1  0.97639000  0.50798000  0.04664000  1
  C  C181  1  0.97742000  0.39364000  0.53489000  1
  C  C182  1  0.98837000  0.52674000  0.59096000  1
  C  C183  1  0.98899000  0.13398000  0.07680000  1
  C  C184  1  0.99350000  0.14900000  0.42040000  1
  C  C185  1  0.99410000  0.16120000  0.54080000  1
  O  O186  1  0.00244000  0.82846000  0.62636000  1
  O  O187  1  0.04473000  0.66106000  0.65600000  1
  O  O188  1  0.08750000  0.69360000  0.56180000  1
  O  O189  1  0.09128000  0.90356000  0.54990000  1
  O  O190  1  0.17040000  0.85740000  0.73020000  1
  O  O191  1  0.17398000  0.17154000  0.37364000  1
  O  O192  1  0.18772000  0.09644000  0.45010000  1
  O  O193  1  0.23090000  0.98660000  0.67544000  1
  O  O194  1  0.24430000  0.01340000  0.32456000  1
  O  O195  1  0.27680000  0.90020000  0.54989000  1
  O  O196  1  0.29551000  0.82822000  0.62477000  1
  O  O197  1  0.31300000  0.14260000  0.26980000  1
  O  O198  1  0.37660000  0.09980000  0.45011000  1
  O  O199  1  0.38367000  0.33894000  0.34400000  1
  O  O200  1  0.39390000  0.30640000  0.43820000  1
  O  O201  1  0.46729000  0.17178000  0.37523000  1
  O  O202  1  0.53271000  0.82822000  0.87523000  1
  O  O203  1  0.60610000  0.69360000  0.93820000  1
  O  O204  1  0.61633000  0.66106000  0.84400000  1
  O  O205  1  0.62340000  0.90020000  0.95011000  1
  O  O206  1  0.68700000  0.85740000  0.76980000  1
  O  O207  1  0.70449000  0.17178000  0.12477000  1
  O  O208  1  0.72320000  0.09980000  0.04989000  1
  O  O209  1  0.75570000  0.98660000  0.82456000  1
  O  O210  1  0.76910000  0.01340000  0.17544000  1
  O  O211  1  0.81228000  0.90356000  0.95010000  1
  O  O212  1  0.82602000  0.82846000  0.87364000  1
  O  O213  1  0.82960000  0.14260000  0.23020000  1
  O  O214  1  0.90872000  0.09644000  0.04990000  1
  O  O215  1  0.91250000  0.30640000  0.06180000  1
  O  O216  1  0.95527000  0.33894000  0.15600000  1
  O  O217  1  0.99756000  0.17154000  0.12636000  1
