# generated using pymatgen
data_Mg3H12C24O25
_symmetry_space_group_name_H-M   'P 1'
_cell_length_a   16.06420000
_cell_length_b   16.21220000
_cell_length_c   16.21220000
_cell_angle_alpha   120.00000000
_cell_angle_beta   90.00000000
_cell_angle_gamma   90.00000000
_symmetry_Int_Tables_number   1
_chemical_formula_structural   Mg3H12C24O25
_chemical_formula_sum   'Mg6 H24 C48 O50'
_cell_volume   3656.56787681
_cell_formula_units_Z   2
loop_
 _symmetry_equiv_pos_site_id
 _symmetry_equiv_pos_as_xyz
  1  'x, y, z'
loop_
 _atom_site_type_symbol
 _atom_site_label
 _atom_site_symmetry_multiplicity
 _atom_site_fract_x
 _atom_site_fract_y
 _atom_site_fract_z
 _atom_site_occupancy
  Mg  Mg0  1  0.75000000  0.73819000  0.26181000  1
  Mg  Mg1  1  0.75000000  0.73819000  0.47638000  1
  Mg  Mg2  1  0.75000000  0.52362000  0.26181000  1
  Mg  Mg3  1  0.25000000  0.47638000  0.73819000  1
  Mg  Mg4  1  0.25000000  0.26181000  0.52362000  1
  Mg  Mg5  1  0.25000000  0.26181000  0.73819000  1
  H  H6  1  0.90360000  0.89320000  0.30630000  1
  H  H7  1  0.59640000  0.89320000  0.30630000  1
  H  H8  1  0.90360000  0.89320000  0.58690000  1
  H  H9  1  0.59640000  0.89320000  0.58690000  1
  H  H10  1  0.90360000  0.69370000  0.10680000  1
  H  H11  1  0.59640000  0.69370000  0.10680000  1
  H  H12  1  0.90360000  0.69370000  0.58690000  1
  H  H13  1  0.59640000  0.69370000  0.58690000  1
  H  H14  1  0.40360000  0.58690000  0.69370000  1
  H  H15  1  0.09640000  0.58690000  0.69370000  1
  H  H16  1  0.40360000  0.58690000  0.89320000  1
  H  H17  1  0.09640000  0.58690000  0.89320000  1
  H  H18  1  0.90360000  0.41310000  0.10680000  1
  H  H19  1  0.59640000  0.41310000  0.10680000  1
  H  H20  1  0.90360000  0.41310000  0.30630000  1
  H  H21  1  0.59640000  0.41310000  0.30630000  1
  H  H22  1  0.40360000  0.30630000  0.41310000  1
  H  H23  1  0.09640000  0.30630000  0.41310000  1
  H  H24  1  0.40360000  0.30630000  0.89320000  1
  H  H25  1  0.09640000  0.30630000  0.89320000  1
  H  H26  1  0.40360000  0.10680000  0.41310000  1
  H  H27  1  0.09640000  0.10680000  0.41310000  1
  H  H28  1  0.40360000  0.10680000  0.69370000  1
  H  H29  1  0.09640000  0.10680000  0.69370000  1
  C  C30  1  0.96812000  0.96636000  0.40943000  1
  C  C31  1  0.53188000  0.96636000  0.40943000  1
  C  C32  1  0.96812000  0.96636000  0.55693000  1
  C  C33  1  0.53188000  0.96636000  0.55693000  1
  C  C34  1  0.93626000  0.93120000  0.46560000  1
  C  C35  1  0.56374000  0.93120000  0.46560000  1
  C  C36  1  0.86867000  0.85800000  0.42900000  1
  C  C37  1  0.63133000  0.85800000  0.42900000  1
  C  C38  1  0.96812000  0.59057000  0.03364000  1
  C  C39  1  0.53188000  0.59057000  0.03364000  1
  C  C40  1  0.96812000  0.59057000  0.55693000  1
  C  C41  1  0.53188000  0.59057000  0.55693000  1
  C  C42  1  0.86867000  0.57100000  0.14200000  1
  C  C43  1  0.63133000  0.57100000  0.14200000  1
  C  C44  1  0.86867000  0.57100000  0.42900000  1
  C  C45  1  0.63133000  0.57100000  0.42900000  1
  C  C46  1  0.46812000  0.55693000  0.59057000  1
  C  C47  1  0.03188000  0.55693000  0.59057000  1
  C  C48  1  0.46812000  0.55693000  0.96636000  1
  C  C49  1  0.03188000  0.55693000  0.96636000  1
  C  C50  1  0.93626000  0.53440000  0.06880000  1
  C  C51  1  0.56374000  0.53440000  0.06880000  1
  C  C52  1  0.93626000  0.53440000  0.46560000  1
  C  C53  1  0.56374000  0.53440000  0.46560000  1
  C  C54  1  0.43626000  0.46560000  0.53440000  1
  C  C55  1  0.06374000  0.46560000  0.53440000  1
  C  C56  1  0.43626000  0.46560000  0.93120000  1
  C  C57  1  0.06374000  0.46560000  0.93120000  1
  C  C58  1  0.96812000  0.44307000  0.03364000  1
  C  C59  1  0.53188000  0.44307000  0.03364000  1
  C  C60  1  0.96812000  0.44307000  0.40943000  1
  C  C61  1  0.53188000  0.44307000  0.40943000  1
  C  C62  1  0.36867000  0.42900000  0.57100000  1
  C  C63  1  0.13133000  0.42900000  0.57100000  1
  C  C64  1  0.36867000  0.42900000  0.85800000  1
  C  C65  1  0.13133000  0.42900000  0.85800000  1
  C  C66  1  0.46812000  0.40943000  0.44307000  1
  C  C67  1  0.03188000  0.40943000  0.44307000  1
  C  C68  1  0.46812000  0.40943000  0.96636000  1
  C  C69  1  0.03188000  0.40943000  0.96636000  1
  C  C70  1  0.36867000  0.14200000  0.57100000  1
  C  C71  1  0.13133000  0.14200000  0.57100000  1
  C  C72  1  0.43626000  0.06880000  0.53440000  1
  C  C73  1  0.06374000  0.06880000  0.53440000  1
  C  C74  1  0.46812000  0.03364000  0.44307000  1
  C  C75  1  0.03188000  0.03364000  0.44307000  1
  C  C76  1  0.46812000  0.03364000  0.59057000  1
  C  C77  1  0.03188000  0.03364000  0.59057000  1
  O  O78  1  0.94170000  0.93670000  0.32010000  1
  O  O79  1  0.55830000  0.93670000  0.32010000  1
  O  O80  1  0.94170000  0.93670000  0.61660000  1
  O  O81  1  0.55830000  0.93670000  0.61660000  1
  O  O82  1  0.84173000  0.83069000  0.34659000  1
  O  O83  1  0.65827000  0.83069000  0.34659000  1
  O  O84  1  0.84173000  0.83069000  0.48410000  1
  O  O85  1  0.65827000  0.83069000  0.48410000  1
  O  O86  1  0.94170000  0.67990000  0.06330000  1
  O  O87  1  0.55830000  0.67990000  0.06330000  1
  O  O88  1  0.94170000  0.67990000  0.61660000  1
  O  O89  1  0.55830000  0.67990000  0.61660000  1
  O  O90  1  0.75000000  0.66666667  0.33333333  1
  O  O91  1  0.84173000  0.65341000  0.16931000  1
  O  O92  1  0.65827000  0.65341000  0.16931000  1
  O  O93  1  0.84173000  0.65341000  0.48410000  1
  O  O94  1  0.65827000  0.65341000  0.48410000  1
  O  O95  1  0.44170000  0.61660000  0.67990000  1
  O  O96  1  0.05830000  0.61660000  0.67990000  1
  O  O97  1  0.44170000  0.61660000  0.93670000  1
  O  O98  1  0.05830000  0.61660000  0.93670000  1
  O  O99  1  0.84173000  0.51590000  0.16931000  1
  O  O100  1  0.65827000  0.51590000  0.16931000  1
  O  O101  1  0.84173000  0.51590000  0.34659000  1
  O  O102  1  0.65827000  0.51590000  0.34659000  1
  O  O103  1  0.34173000  0.48410000  0.65341000  1
  O  O104  1  0.15827000  0.48410000  0.65341000  1
  O  O105  1  0.34173000  0.48410000  0.83069000  1
  O  O106  1  0.15827000  0.48410000  0.83069000  1
  O  O107  1  0.94170000  0.38340000  0.06330000  1
  O  O108  1  0.55830000  0.38340000  0.06330000  1
  O  O109  1  0.94170000  0.38340000  0.32010000  1
  O  O110  1  0.55830000  0.38340000  0.32010000  1
  O  O111  1  0.34173000  0.34659000  0.51590000  1
  O  O112  1  0.15827000  0.34659000  0.51590000  1
  O  O113  1  0.34173000  0.34659000  0.83069000  1
  O  O114  1  0.15827000  0.34659000  0.83069000  1
  O  O115  1  0.25000000  0.33333333  0.66666667  1
  O  O116  1  0.44170000  0.32010000  0.38340000  1
  O  O117  1  0.05830000  0.32010000  0.38340000  1
  O  O118  1  0.44170000  0.32010000  0.93670000  1
  O  O119  1  0.05830000  0.32010000  0.93670000  1
  O  O120  1  0.34173000  0.16931000  0.51590000  1
  O  O121  1  0.15827000  0.16931000  0.51590000  1
  O  O122  1  0.34173000  0.16931000  0.65341000  1
  O  O123  1  0.15827000  0.16931000  0.65341000  1
  O  O124  1  0.44170000  0.06330000  0.38340000  1
  O  O125  1  0.05830000  0.06330000  0.38340000  1
  O  O126  1  0.44170000  0.06330000  0.67990000  1
  O  O127  1  0.05830000  0.06330000  0.67990000  1
