# generated using pymatgen
data_SmH3C7NO4
_symmetry_space_group_name_H-M   'P 1'
_cell_length_a   15.60320000
_cell_length_b   17.09701547
_cell_length_c   17.81439496
_cell_angle_alpha   77.67518803
_cell_angle_beta   64.02761052
_cell_angle_gamma   62.85051710
_symmetry_Int_Tables_number   1
_chemical_formula_structural   SmH3C7NO4
_chemical_formula_sum   'Sm8 H24 C56 N8 O32'
_cell_volume   3801.07141479
_cell_formula_units_Z   8
loop_
 _symmetry_equiv_pos_site_id
 _symmetry_equiv_pos_as_xyz
  1  'x, y, z'
loop_
 _atom_site_type_symbol
 _atom_site_label
 _atom_site_symmetry_multiplicity
 _atom_site_fract_x
 _atom_site_fract_y
 _atom_site_fract_z
 _atom_site_occupancy
  C  C0  1  0.82830000  0.85960000  0.07160000  1
  C  C1  1  0.24050000  0.35960000  0.57160000  1
  C  C2  1  0.70110000  0.88820000  0.00600000  1
  C  C3  1  0.40470000  0.38820000  0.50600000  1
  C  C4  1  0.79670000  0.83820000  0.01300000  1
  C  C5  1  0.35210000  0.33820000  0.51300000  1
  C  C6  1  0.68140000  0.86620000  0.94740000  1
  C  C7  1  0.50500000  0.36620000  0.44740000  1
  C  C8  1  0.09250000  0.54910000  0.15430000  1
  C  C9  1  0.20410000  0.04910000  0.65430000  1
  C  C10  1  0.75710000  0.79490000  0.89570000  1
  C  C11  1  0.55230000  0.29490000  0.39570000  1
  C  C12  1  0.12410000  0.82850000  0.84650000  1
  C  C13  1  0.20090000  0.32850000  0.34650000  1
  C  C14  1  0.85160000  0.74780000  0.90600000  1
  C  C15  1  0.49460000  0.24780000  0.40600000  1
  C  C16  1  0.16370000  0.97990000  0.67030000  1
  C  C17  1  0.18610000  0.47990000  0.17030000  1
  C  C18  1  0.13090000  0.86870000  0.76170000  1
  C  C19  1  0.23870000  0.36870000  0.26170000  1
  C  C20  1  0.13710000  0.95880000  0.61600000  1
  C  C21  1  0.28810000  0.45880000  0.11600000  1
  C  C22  1  0.10890000  0.84110000  0.70790000  1
  C  C23  1  0.34210000  0.34110000  0.20790000  1
  C  C24  1  0.94040000  0.67050000  0.85350000  1
  C  C25  1  0.53560000  0.17050000  0.35350000  1
  C  C26  1  0.11100000  0.88770000  0.63370000  1
  C  C27  1  0.36760000  0.38770000  0.13370000  1
  C  C28  1  0.88900000  0.11230000  0.36630000  1
  C  C29  1  0.63240000  0.61230000  0.86630000  1
  C  C30  1  0.05960000  0.32950000  0.14650000  1
  C  C31  1  0.46440000  0.82950000  0.64650000  1
  C  C32  1  0.89110000  0.15890000  0.29210000  1
  C  C33  1  0.65790000  0.65890000  0.79210000  1
  C  C34  1  0.86290000  0.04120000  0.38400000  1
  C  C35  1  0.71190000  0.54120000  0.88400000  1
  C  C36  1  0.86910000  0.13130000  0.23830000  1
  C  C37  1  0.76130000  0.63130000  0.73830000  1
  C  C38  1  0.83630000  0.02010000  0.32970000  1
  C  C39  1  0.81390000  0.52010000  0.82970000  1
  C  C40  1  0.14840000  0.25220000  0.09400000  1
  C  C41  1  0.50540000  0.75220000  0.59400000  1
  C  C42  1  0.87590000  0.17150000  0.15350000  1
  C  C43  1  0.79910000  0.67150000  0.65350000  1
  C  C44  1  0.24290000  0.20510000  0.10430000  1
  C  C45  1  0.44770000  0.70510000  0.60430000  1
  C  C46  1  0.90750000  0.45090000  0.84570000  1
  C  C47  1  0.79590000  0.95090000  0.34570000  1
  C  C48  1  0.31860000  0.13380000  0.05260000  1
  C  C49  1  0.49500000  0.63380000  0.55260000  1
  C  C50  1  0.20330000  0.16180000  0.98700000  1
  C  C51  1  0.64790000  0.66180000  0.48700000  1
  C  C52  1  0.29890000  0.11180000  0.99400000  1
  C  C53  1  0.59530000  0.61180000  0.49400000  1
  C  C54  1  0.17170000  0.14040000  0.92840000  1
  C  C55  1  0.75950000  0.64040000  0.42840000  1
  H  H56  1  0.65010000  0.93690000  0.04130000  1
  H  H57  1  0.37170000  0.43690000  0.54130000  1
  H  H58  1  0.61620000  0.89960000  0.94200000  1
  H  H59  1  0.54220000  0.39960000  0.44200000  1
  H  H60  1  0.74470000  0.77910000  0.85470000  1
  H  H61  1  0.62150000  0.27910000  0.35470000  1
  H  H62  1  0.13650000  0.99280000  0.56640000  1
  H  H63  1  0.30430000  0.49280000  0.06640000  1
  H  H64  1  0.90520000  0.12880000  0.40440000  1
  H  H65  1  0.56160000  0.62880000  0.90440000  1
  H  H66  1  0.09280000  0.79110000  0.72130000  1
  H  H67  1  0.39480000  0.29110000  0.22130000  1
  H  H68  1  0.90720000  0.20890000  0.27870000  1
  H  H69  1  0.60520000  0.70890000  0.77870000  1
  H  H70  1  0.09480000  0.87120000  0.59560000  1
  H  H71  1  0.43840000  0.37120000  0.09560000  1
  H  H72  1  0.86350000  0.00720000  0.43360000  1
  H  H73  1  0.69570000  0.50720000  0.93360000  1
  H  H74  1  0.25530000  0.22090000  0.14530000  1
  H  H75  1  0.37850000  0.72090000  0.64530000  1
  H  H76  1  0.38380000  0.10040000  0.05800000  1
  H  H77  1  0.45780000  0.60040000  0.55800000  1
  H  H78  1  0.34990000  0.06310000  0.95870000  1
  H  H79  1  0.62830000  0.56310000  0.45870000  1
  N  N80  1  0.87120000  0.76770000  0.96390000  1
  N  N81  1  0.39720000  0.26770000  0.46390000  1
  N  N82  1  0.16110000  0.93480000  0.74180000  1
  N  N83  1  0.16230000  0.43480000  0.24180000  1
  N  N84  1  0.83890000  0.06520000  0.25820000  1
  N  N85  1  0.83770000  0.56520000  0.75820000  1
  N  N86  1  0.12880000  0.23230000  0.03610000  1
  N  N87  1  0.60280000  0.73230000  0.53610000  1
  O  O88  1  0.80790000  0.57350000  0.38430000  1
  O  O89  1  0.23430000  0.07350000  0.88430000  1
  O  O90  1  0.91930000  0.81050000  0.06950000  1
  O  O91  1  0.20070000  0.31050000  0.56950000  1
  O  O92  1  0.00450000  0.55190000  0.20490000  1
  O  O93  1  0.23870000  0.05190000  0.70490000  1
  O  O94  1  0.10390000  0.35000000  0.38200000  1
  O  O95  1  0.16410000  0.85000000  0.88200000  1
  O  O96  1  0.10910000  0.59590000  0.09050000  1
  O  O97  1  0.20450000  0.09590000  0.59050000  1
  O  O98  1  0.07790000  0.77890000  0.87590000  1
  O  O99  1  0.26730000  0.27890000  0.37590000  1
  O  O100  1  0.06900000  0.35030000  0.20490000  1
  O  O101  1  0.37580000  0.85030000  0.70490000  1
  O  O102  1  0.01960000  0.63350000  0.87130000  1
  O  O103  1  0.47560000  0.13350000  0.37130000  1
  O  O104  1  0.98040000  0.36650000  0.12870000  1
  O  O105  1  0.52440000  0.86650000  0.62870000  1
  O  O106  1  0.93100000  0.64970000  0.79510000  1
  O  O107  1  0.62420000  0.14970000  0.29510000  1
  O  O108  1  0.92210000  0.22110000  0.12410000  1
  O  O109  1  0.73270000  0.72110000  0.62410000  1
  O  O110  1  0.89090000  0.40410000  0.90950000  1
  O  O111  1  0.79550000  0.90410000  0.40950000  1
  O  O112  1  0.89610000  0.65000000  0.61800000  1
  O  O113  1  0.83590000  0.15000000  0.11800000  1
  O  O114  1  0.99550000  0.44810000  0.79510000  1
  O  O115  1  0.76130000  0.94810000  0.29510000  1
  O  O116  1  0.08070000  0.18950000  0.93050000  1
  O  O117  1  0.79930000  0.68950000  0.43050000  1
  O  O118  1  0.19210000  0.42650000  0.61570000  1
  O  O119  1  0.76570000  0.92650000  0.11570000  1
  Sm  Sm120  1  0.97438000  0.45393000  0.32525000  1
  Sm  Sm121  1  0.24644000  0.95393000  0.82525000  1
  Sm  Sm122  1  0.04105000  0.67726000  0.98570000  1
  Sm  Sm123  1  0.29599000  0.17726000  0.48570000  1
  Sm  Sm124  1  0.95895000  0.32274000  0.01430000  1
  Sm  Sm125  1  0.70401000  0.82274000  0.51430000  1
  Sm  Sm126  1  0.02562000  0.54607000  0.67475000  1
  Sm  Sm127  1  0.75356000  0.04607000  0.17475000  1
