# generated using pymatgen
data_Ga5(P2O9)2
_symmetry_space_group_name_H-M   'P 1'
_cell_length_a   7.18765000
_cell_length_b   10.17600000
_cell_length_c   11.94100000
_cell_angle_alpha   90.00000000
_cell_angle_beta   90.00000000
_cell_angle_gamma   91.10200000
_symmetry_Int_Tables_number   1
_chemical_formula_structural   Ga5(P2O9)2
_chemical_formula_sum   'Ga10 P8 O36'
_cell_volume   873.22142705
_cell_formula_units_Z   2
loop_
 _symmetry_equiv_pos_site_id
 _symmetry_equiv_pos_as_xyz
  1  'x, y, z'
loop_
 _atom_site_type_symbol
 _atom_site_label
 _atom_site_symmetry_multiplicity
 _atom_site_fract_x
 _atom_site_fract_y
 _atom_site_fract_z
 _atom_site_occupancy
  Ga  Ga0  1  0.82474000  0.34273000  0.36480500  1
  Ga  Ga1  1  0.82187000  0.32866000  0.62932500  1
  Ga  Ga2  1  0.82474000  0.84273000  0.13519500  1
  Ga  Ga3  1  0.82187000  0.82866000  0.87067500  1
  Ga  Ga4  1  0.50000000  0.50000000  0.50000000  1
  Ga  Ga5  1  0.50000000  0.00000000  1.00000000  1
  Ga  Ga6  1  0.17813000  0.67134000  0.37067500  1
  Ga  Ga7  1  0.17526000  0.65727000  0.63519500  1
  Ga  Ga8  1  0.17813000  0.17134000  0.12932500  1
  Ga  Ga9  1  0.17526000  0.15727000  0.86480500  1
  O  O10  1  0.92350000  0.19165000  0.13280000  1
  O  O11  1  0.92000000  0.17400000  0.86010000  1
  O  O12  1  0.92350000  0.69165000  0.36720000  1
  O  O13  1  0.92000000  0.67400000  0.63990000  1
  O  O14  1  0.79290000  0.48635000  0.27045000  1
  O  O15  1  0.79290000  0.98635000  0.22955000  1
  O  O16  1  0.78730000  0.96605000  0.76735000  1
  O  O17  1  0.78730000  0.46605000  0.73265000  1
  O  O18  1  0.73660000  0.39925000  0.49930000  1
  O  O19  1  0.73660000  0.89925000  0.00070000  1
  O  O20  1  0.71220000  0.68400000  0.80735000  1
  O  O21  1  0.71220000  0.18400000  0.69265000  1
  O  O22  1  0.70710000  0.70570000  0.20420000  1
  O  O23  1  0.70710000  0.20570000  0.29580000  1
  O  O24  1  0.58960000  0.12940000  0.11025000  1
  O  O25  1  0.58960000  0.62940000  0.38975000  1
  O  O26  1  0.58350000  0.11655000  0.87860000  1
  O  O27  1  0.58350000  0.61655000  0.62140000  1
  O  O28  1  0.41650000  0.88345000  0.12140000  1
  O  O29  1  0.41650000  0.38345000  0.37860000  1
  O  O30  1  0.41040000  0.87060000  0.88975000  1
  O  O31  1  0.41040000  0.37060000  0.61025000  1
  O  O32  1  0.29290000  0.29430000  0.79580000  1
  O  O33  1  0.29290000  0.79430000  0.70420000  1
  O  O34  1  0.28780000  0.31600000  0.19265000  1
  O  O35  1  0.28780000  0.81600000  0.30735000  1
  O  O36  1  0.26340000  0.60075000  0.50070000  1
  O  O37  1  0.26340000  0.10075000  0.99930000  1
  O  O38  1  0.21270000  0.03395000  0.23265000  1
  O  O39  1  0.21270000  0.53395000  0.26735000  1
  O  O40  1  0.20710000  0.51365000  0.72955000  1
  O  O41  1  0.20710000  0.01365000  0.77045000  1
  O  O42  1  0.08000000  0.82600000  0.13990000  1
  O  O43  1  0.07650000  0.80835000  0.86720000  1
  O  O44  1  0.08000000  0.32600000  0.36010000  1
  O  O45  1  0.07650000  0.30835000  0.63280000  1
  P  P46  1  0.75298000  0.12689500  0.19052000  1
  P  P47  1  0.75298000  0.62689500  0.30948000  1
  P  P48  1  0.75066000  0.10954500  0.80157500  1
  P  P49  1  0.75066000  0.60954500  0.69842500  1
  P  P50  1  0.24934000  0.89045500  0.19842500  1
  P  P51  1  0.24934000  0.39045500  0.30157500  1
  P  P52  1  0.24702000  0.87310500  0.80948000  1
  P  P53  1  0.24702000  0.37310500  0.69052000  1
