# generated using pymatgen
data_CuH9C14NO4
_symmetry_space_group_name_H-M   'P 1'
_cell_length_a   16.67270000
_cell_length_b   17.59160000
_cell_length_c   18.73402151
_cell_angle_alpha   77.82664960
_cell_angle_beta   63.57756763
_cell_angle_gamma   61.71350000
_symmetry_Int_Tables_number   1
_chemical_formula_structural   CuH9C14NO4
_chemical_formula_sum   'Cu8 H72 C112 N8 O32'
_cell_volume   4333.10679847
_cell_formula_units_Z   8
loop_
 _symmetry_equiv_pos_site_id
 _symmetry_equiv_pos_as_xyz
  1  'x, y, z'
loop_
 _atom_site_type_symbol
 _atom_site_label
 _atom_site_symmetry_multiplicity
 _atom_site_fract_x
 _atom_site_fract_y
 _atom_site_fract_z
 _atom_site_occupancy
  Cu  Cu0  1  0.94700000  0.06312000  0.05220000  1
  Cu  Cu1  1  0.43768000  0.56312000  0.55220000  1
  Cu  Cu2  1  0.99920000  0.56312000  0.94780000  1
  Cu  Cu3  1  0.01012000  0.93688000  0.55220000  1
  Cu  Cu4  1  0.98988000  0.06312000  0.44780000  1
  Cu  Cu5  1  0.00080000  0.43688000  0.05220000  1
  Cu  Cu6  1  0.56232000  0.43688000  0.44780000  1
  Cu  Cu7  1  0.05300000  0.93688000  0.94780000  1
  H  H8  1  0.88190000  0.79000000  0.06100000  1
  H  H9  1  0.22580000  0.45400000  0.71360000  1
  H  H10  1  0.39320000  0.29460000  0.52520000  1
  H  H11  1  0.70350000  0.99660000  0.20540000  1
  H  H12  1  0.76890000  0.73400000  0.12800000  1
  H  H13  1  0.12730000  0.38200000  0.76860000  1
  H  H14  1  0.67980000  0.54600000  0.21360000  1
  H  H15  1  0.11570000  0.25000000  0.76860000  1
  H  H16  1  0.63190000  0.73620000  0.25000000  1
  H  H17  1  0.94290000  0.29000000  0.93900000  1
  H  H18  1  0.10410000  0.11800000  0.76860000  1
  H  H19  1  0.29170000  0.22580000  0.57820000  1
  H  H20  1  0.49710000  0.73400000  0.37200000  1
  H  H21  1  0.58900000  0.94200000  0.27020000  1
  H  H22  1  0.50930000  0.61800000  0.26860000  1
  H  H23  1  0.06060000  0.04600000  0.71360000  1
  H  H24  1  0.89690000  0.23400000  0.87200000  1
  H  H25  1  0.32810000  0.79000000  0.43900000  1
  H  H26  1  0.68780000  0.70540000  0.02520000  1
  H  H27  1  0.13010000  0.27420000  0.57820000  1
  H  H28  1  0.90890000  0.49660000  0.79460000  1
  H  H29  1  0.40550000  0.50340000  0.29460000  1
  H  H30  1  0.46900000  0.94200000  0.22980000  1
  H  H31  1  0.71300000  0.20540000  0.97480000  1
  H  H32  1  0.89340000  0.04600000  0.78640000  1
  H  H33  1  0.23290000  0.71000000  0.43900000  1
  H  H34  1  0.36570000  0.75000000  0.26860000  1
  H  H35  1  0.88190000  0.23620000  0.75000000  1
  H  H36  1  0.08160000  0.20540000  0.52520000  1
  H  H37  1  0.51750000  0.77420000  0.07820000  1
  H  H38  1  0.29990000  0.99660000  0.29460000  1
  H  H39  1  0.85920000  0.44200000  0.72980000  1
  H  H40  1  0.30120000  0.55800000  0.22980000  1
  H  H41  1  0.59570000  0.27420000  0.92180000  1
  H  H42  1  0.77790000  0.11800000  0.73140000  1
  H  H43  1  0.13090000  0.76600000  0.37200000  1
  H  H44  1  0.86910000  0.23400000  0.62800000  1
  H  H45  1  0.22210000  0.88200000  0.26860000  1
  H  H46  1  0.40430000  0.72580000  0.07820000  1
  H  H47  1  0.69880000  0.44200000  0.77020000  1
  H  H48  1  0.14080000  0.55800000  0.27020000  1
  H  H49  1  0.70010000  0.00340000  0.70540000  1
  H  H50  1  0.48250000  0.22580000  0.92180000  1
  H  H51  1  0.91840000  0.79460000  0.47480000  1
  H  H52  1  0.11810000  0.76380000  0.25000000  1
  H  H53  1  0.63430000  0.25000000  0.73140000  1
  H  H54  1  0.76710000  0.29000000  0.56100000  1
  H  H55  1  0.10660000  0.95400000  0.21360000  1
  H  H56  1  0.28700000  0.79460000  0.02520000  1
  H  H57  1  0.53100000  0.05800000  0.77020000  1
  H  H58  1  0.59450000  0.49660000  0.70540000  1
  H  H59  1  0.09110000  0.50340000  0.20540000  1
  H  H60  1  0.86990000  0.72580000  0.42180000  1
  H  H61  1  0.31220000  0.29460000  0.97480000  1
  H  H62  1  0.67190000  0.21000000  0.56100000  1
  H  H63  1  0.10310000  0.76600000  0.12800000  1
  H  H64  1  0.93940000  0.95400000  0.28640000  1
  H  H65  1  0.49070000  0.38200000  0.73140000  1
  H  H66  1  0.41100000  0.05800000  0.72980000  1
  H  H67  1  0.50290000  0.26600000  0.62800000  1
  H  H68  1  0.70830000  0.77420000  0.42180000  1
  H  H69  1  0.89590000  0.88200000  0.23140000  1
  H  H70  1  0.05710000  0.71000000  0.06100000  1
  H  H71  1  0.36810000  0.26380000  0.75000000  1
  H  H72  1  0.88430000  0.75000000  0.23140000  1
  H  H73  1  0.32020000  0.45400000  0.78640000  1
  H  H74  1  0.87270000  0.61800000  0.23140000  1
  H  H75  1  0.23110000  0.26600000  0.87200000  1
  H  H76  1  0.29650000  0.00340000  0.79460000  1
  H  H77  1  0.60680000  0.70540000  0.47480000  1
  H  H78  1  0.77420000  0.54600000  0.28640000  1
  H  H79  1  0.11810000  0.21000000  0.93900000  1
  C  C80  1  0.38738000  0.42604000  0.57720000  1
  C  C81  1  0.87851000  0.93638000  0.08240000  1
  C  C82  1  0.32038000  0.38166000  0.61338000  1
  C  C83  1  0.80500000  0.90016000  0.12504000  1
  C  C84  1  0.82332000  0.82054000  0.10322000  1
  C  C85  1  0.23968000  0.40756000  0.68668000  1
  C  C86  1  0.33916000  0.31274000  0.57404000  1
  C  C87  1  0.71640000  0.94396000  0.18924000  1
  C  C88  1  0.18054000  0.36442000  0.71950000  1
  C  C89  1  0.75566000  0.78694000  0.14354000  1
  C  C90  1  0.81342000  0.57396000  0.07720000  1
  C  C91  1  0.27903000  0.27076000  0.60618000  1
  C  C92  1  0.19887000  0.29492000  0.68054000  1
  C  C93  1  0.96091000  0.43638000  0.91760000  1
  C  C94  1  0.64849000  0.91088000  0.22874000  1
  C  C95  1  0.66753000  0.83086000  0.20728000  1
  C  C96  1  0.64724000  0.59244000  0.18668000  1
  C  C97  1  0.92654000  0.32054000  0.89678000  1
  C  C98  1  0.09996000  0.13558000  0.71950000  1
  C  C99  1  0.70204000  0.61834000  0.11338000  1
  C  C100  1  0.39729000  0.56362000  0.41760000  1
  C  C101  1  0.45740000  0.78694000  0.35646000  1
  C  C102  1  0.89062000  0.07396000  0.92280000  1
  C  C103  1  0.93004000  0.40016000  0.87496000  1
  C  C104  1  0.12059000  0.20508000  0.68054000  1
  C  C105  1  0.50161000  0.83086000  0.29272000  1
  C  C106  1  0.54496000  0.63558000  0.21950000  1
  C  C107  1  0.07364000  0.09244000  0.68668000  1
  C  C108  1  0.89920000  0.28694000  0.85646000  1
  C  C109  1  0.35614000  0.82054000  0.39678000  1
  C  C110  1  0.65190000  0.68726000  0.07404000  1
  C  C111  1  0.11479000  0.22924000  0.60618000  1
  C  C112  1  0.90564000  0.44396000  0.81076000  1
  C  C113  1  0.44063000  0.91088000  0.27126000  1
  C  C114  1  0.33020000  0.59984000  0.37496000  1
  C  C115  1  0.81542000  0.11834000  0.88662000  1
  C  C116  1  0.06624000  0.11834000  0.61338000  1
  C  C117  1  0.49379000  0.70508000  0.18054000  1
  C  C118  1  0.29484000  0.90016000  0.37496000  1
  C  C119  1  0.87481000  0.33086000  0.79272000  1
  C  C120  1  0.08680000  0.18726000  0.57404000  1
  C  C121  1  0.34960000  0.55604000  0.31076000  1
  C  C122  1  0.54979000  0.72924000  0.10618000  1
  C  C123  1  0.72594000  0.18726000  0.92596000  1
  C  C124  1  0.33964000  0.94396000  0.31076000  1
  C  C125  1  0.87723000  0.41088000  0.77126000  1
  C  C126  1  0.83392000  0.09244000  0.81332000  1
  C  C127  1  0.24708000  0.67946000  0.39678000  1
  C  C128  1  0.03542000  0.07396000  0.57720000  1
  C  C129  1  0.18511000  0.93638000  0.41760000  1
  C  C130  1  0.28811000  0.58912000  0.27126000  1
  C  C131  1  0.65597000  0.22924000  0.89382000  1
  C  C132  1  0.76446000  0.13558000  0.78050000  1
  C  C133  1  0.18614000  0.71306000  0.35646000  1
  C  C134  1  0.32567000  0.79492000  0.18054000  1
  C  C135  1  0.79433000  0.33086000  0.70728000  1
  C  C136  1  0.20567000  0.66914000  0.29272000  1
  C  C137  1  0.67433000  0.20508000  0.81946000  1
  C  C138  1  0.81386000  0.28694000  0.64354000  1
  C  C139  1  0.23554000  0.86442000  0.21950000  1
  C  C140  1  0.34403000  0.77076000  0.10618000  1
  C  C141  1  0.71189000  0.41088000  0.72874000  1
  C  C142  1  0.81489000  0.06362000  0.58240000  1
  C  C143  1  0.96458000  0.92604000  0.42280000  1
  C  C144  1  0.75292000  0.32054000  0.60322000  1
  C  C145  1  0.16608000  0.90756000  0.18668000  1
  C  C146  1  0.12277000  0.58912000  0.22874000  1
  C  C147  1  0.66036000  0.05604000  0.68924000  1
  C  C148  1  0.27406000  0.81274000  0.07404000  1
  C  C149  1  0.45021000  0.27076000  0.89382000  1
  C  C150  1  0.65040000  0.44396000  0.68924000  1
  C  C151  1  0.91320000  0.81274000  0.42596000  1
  C  C152  1  0.12519000  0.66914000  0.20728000  1
  C  C153  1  0.70516000  0.09984000  0.62504000  1
  C  C154  1  0.50621000  0.29492000  0.81946000  1
  C  C155  1  0.93376000  0.88166000  0.38662000  1
  C  C156  1  0.18458000  0.88166000  0.11338000  1
  C  C157  1  0.66980000  0.40016000  0.62504000  1
  C  C158  1  0.55937000  0.08912000  0.72874000  1
  C  C159  1  0.09436000  0.55604000  0.18924000  1
  C  C160  1  0.88521000  0.77076000  0.39382000  1
  C  C161  1  0.34810000  0.31274000  0.92596000  1
  C  C162  1  0.64386000  0.17946000  0.60322000  1
  C  C163  1  0.10080000  0.71306000  0.14354000  1
  C  C164  1  0.92636000  0.90756000  0.31332000  1
  C  C165  1  0.45504000  0.36442000  0.78050000  1
  C  C166  1  0.49839000  0.16914000  0.70728000  1
  C  C167  1  0.87941000  0.79492000  0.31946000  1
  C  C168  1  0.06996000  0.59984000  0.12504000  1
  C  C169  1  0.10938000  0.92604000  0.07720000  1
  C  C170  1  0.54260000  0.21306000  0.64354000  1
  C  C171  1  0.60271000  0.43638000  0.58240000  1
  C  C172  1  0.29796000  0.38166000  0.88662000  1
  C  C173  1  0.90004000  0.86442000  0.28050000  1
  C  C174  1  0.07346000  0.67946000  0.10322000  1
  C  C175  1  0.35276000  0.40756000  0.81332000  1
  C  C176  1  0.33247000  0.16914000  0.79272000  1
  C  C177  1  0.35151000  0.08912000  0.77126000  1
  C  C178  1  0.03909000  0.56362000  0.08240000  1
  C  C179  1  0.80113000  0.70508000  0.31946000  1
  C  C180  1  0.72097000  0.72924000  0.39382000  1
  C  C181  1  0.18658000  0.42604000  0.92280000  1
  C  C182  1  0.24434000  0.21306000  0.85646000  1
  C  C183  1  0.81946000  0.63558000  0.28050000  1
  C  C184  1  0.28360000  0.05604000  0.81076000  1
  C  C185  1  0.66084000  0.68726000  0.42596000  1
  C  C186  1  0.76032000  0.59244000  0.31332000  1
  C  C187  1  0.17668000  0.17946000  0.89678000  1
  C  C188  1  0.19500000  0.09984000  0.87496000  1
  C  C189  1  0.67962000  0.61834000  0.38662000  1
  C  C190  1  0.12149000  0.06362000  0.91760000  1
  C  C191  1  0.61262000  0.57396000  0.42280000  1
  N  N192  1  0.14132000  0.25000000  0.71736000  1
  N  N193  1  0.60418000  0.79164000  0.25000000  1
  N  N194  1  0.39132000  0.75000000  0.21736000  1
  N  N195  1  0.85418000  0.29164000  0.75000000  1
  N  N196  1  0.14582000  0.70836000  0.25000000  1
  N  N197  1  0.60868000  0.25000000  0.78264000  1
  N  N198  1  0.39582000  0.20836000  0.75000000  1
  N  N199  1  0.85868000  0.75000000  0.28264000  1
  O  O200  1  0.46633000  0.39026000  0.51688000  1
  O  O201  1  0.86276000  0.00356000  0.11072000  1
  O  O202  1  0.95242000  0.89718000  0.02098000  1
  O  O203  1  0.36104000  0.49558000  0.60834000  1
  O  O204  1  0.85662000  0.50442000  0.10834000  1
  O  O205  1  0.97340000  0.39718000  0.97902000  1
  O  O206  1  0.85659000  0.60974000  0.01688000  1
  O  O207  1  0.47704000  0.49644000  0.38928000  1
  O  O208  1  0.97348000  0.50356000  0.88928000  1
  O  O209  1  0.96496000  0.00442000  0.89166000  1
  O  O210  1  0.87347000  0.10974000  0.98312000  1
  O  O211  1  0.37058000  0.60282000  0.47902000  1
  O  O212  1  0.03062000  0.00442000  0.60834000  1
  O  O213  1  0.15040000  0.89718000  0.47902000  1
  O  O214  1  0.01679000  0.10974000  0.51688000  1
  O  O215  1  0.13368000  0.00356000  0.38928000  1
  O  O216  1  0.86632000  0.99644000  0.61072000  1
  O  O217  1  0.98321000  0.89026000  0.48312000  1
  O  O218  1  0.84960000  0.10282000  0.52098000  1
  O  O219  1  0.96938000  0.99558000  0.39166000  1
  O  O220  1  0.62942000  0.39718000  0.52098000  1
  O  O221  1  0.12653000  0.89026000  0.01688000  1
  O  O222  1  0.03504000  0.99558000  0.10834000  1
  O  O223  1  0.02652000  0.49644000  0.11072000  1
  O  O224  1  0.52296000  0.50356000  0.61072000  1
  O  O225  1  0.14341000  0.39026000  0.98312000  1
  O  O226  1  0.02660000  0.60282000  0.02098000  1
  O  O227  1  0.14338000  0.49558000  0.89166000  1
  O  O228  1  0.63896000  0.50442000  0.39166000  1
  O  O229  1  0.04758000  0.10282000  0.97902000  1
  O  O230  1  0.13724000  0.99644000  0.88928000  1
  O  O231  1  0.53367000  0.60974000  0.48312000  1
