# generated using pymatgen
data_MgH8C13NO5
_symmetry_space_group_name_H-M   'P 1'
_cell_length_a   12.48417042
_cell_length_b   12.48417042
_cell_length_c   13.54656898
_cell_angle_alpha   114.35025009
_cell_angle_beta   116.10461217
_cell_angle_gamma   94.30940749
_symmetry_Int_Tables_number   1
_chemical_formula_structural   MgH8C13NO5
_chemical_formula_sum   'Mg4 H32 C52 N4 O20'
_cell_volume   1640.13157281
_cell_formula_units_Z   4
loop_
 _symmetry_equiv_pos_site_id
 _symmetry_equiv_pos_as_xyz
  1  'x, y, z'
loop_
 _atom_site_type_symbol
 _atom_site_label
 _atom_site_symmetry_multiplicity
 _atom_site_fract_x
 _atom_site_fract_y
 _atom_site_fract_z
 _atom_site_occupancy
  C  C0  1  0.61121000  0.61471000  0.00450000  1
  C  C1  1  0.88979000  0.39329000  0.50450000  1
  C  C2  1  0.50169000  0.54885000  0.98260000  1
  C  C3  1  0.93375000  0.48091000  0.48260000  1
  C  C4  1  0.61400000  0.70680000  0.97440000  1
  C  C5  1  0.76760000  0.36040000  0.47440000  1
  C  C6  1  0.39497000  0.58147000  0.92970000  1
  C  C7  1  0.84823000  0.53473000  0.42970000  1
  C  C8  1  0.37765000  0.99755000  0.55250000  1
  C  C9  1  0.05495000  0.17485000  0.05250000  1
  C  C10  1  0.40073000  0.67403000  0.90070000  1
  C  C11  1  0.72667000  0.49997000  0.40070000  1
  C  C12  1  0.37912000  0.06282000  0.49170000  1
  C  C13  1  0.92888000  0.11258000  0.99170000  1
  C  C14  1  0.42093000  0.98835000  0.74750000  1
  C  C15  1  0.25915000  0.32657000  0.24750000  1
  C  C16  1  0.73112000  0.06272000  0.99170000  1
  C  C17  1  0.42898000  0.26058000  0.49170000  1
  C  C18  1  0.41037000  0.05843000  0.67820000  1
  C  C19  1  0.11977000  0.26783000  0.17820000  1
  C  C20  1  0.86495000  0.14109000  0.05640000  1
  C  C21  1  0.41531000  0.19145000  0.55640000  1
  C  C22  1  0.44120000  0.18610000  0.74030000  1
  C  C23  1  0.05420000  0.29910000  0.24030000  1
  C  C24  1  0.92870000  0.23480000  0.18010000  1
  C  C25  1  0.44530000  0.25140000  0.68010000  1
  C  C26  1  0.07130000  0.76520000  0.81990000  1
  C  C27  1  0.55470000  0.74860000  0.31990000  1
  C  C28  1  0.55880000  0.81390000  0.25970000  1
  C  C29  1  0.94580000  0.70090000  0.75970000  1
  C  C30  1  0.13505000  0.85891000  0.94360000  1
  C  C31  1  0.58469000  0.80855000  0.44360000  1
  C  C32  1  0.58963000  0.94157000  0.32180000  1
  C  C33  1  0.88023000  0.73217000  0.82180000  1
  C  C34  1  0.26888000  0.93728000  0.00830000  1
  C  C35  1  0.57102000  0.73942000  0.50830000  1
  C  C36  1  0.57907000  0.01165000  0.25250000  1
  C  C37  1  0.74085000  0.67343000  0.75250000  1
  C  C38  1  0.62088000  0.93718000  0.50830000  1
  C  C39  1  0.07112000  0.88742000  0.00830000  1
  C  C40  1  0.59927000  0.32597000  0.09930000  1
  C  C41  1  0.27333000  0.50003000  0.59930000  1
  C  C42  1  0.62235000  0.00245000  0.44750000  1
  C  C43  1  0.94505000  0.82515000  0.94750000  1
  C  C44  1  0.60503000  0.41853000  0.07030000  1
  C  C45  1  0.15177000  0.46527000  0.57030000  1
  C  C46  1  0.38600000  0.29320000  0.02560000  1
  C  C47  1  0.23240000  0.63960000  0.52560000  1
  C  C48  1  0.49831000  0.45115000  0.01740000  1
  C  C49  1  0.06625000  0.51909000  0.51740000  1
  C  C50  1  0.38879000  0.38529000  0.99550000  1
  C  C51  1  0.11021000  0.60671000  0.49550000  1
  H  H52  1  0.68800000  0.74700000  0.97900000  1
  H  H53  1  0.73200000  0.29100000  0.47900000  1
  H  H54  1  0.05300000  0.64600000  0.45300000  1
  H  H55  1  0.30700000  0.40000000  0.95300000  1
  H  H56  1  0.35900000  0.90300000  0.50800000  1
  H  H57  1  0.10500000  0.14900000  0.00800000  1
  H  H58  1  0.35800000  0.01600000  0.39800000  1
  H  H59  1  0.88200000  0.04000000  0.89800000  1
  H  H60  1  0.87500000  0.60000000  0.41900000  1
  H  H61  1  0.31900000  0.54400000  0.91900000  1
  H  H62  1  0.33400000  0.70000000  0.86800000  1
  H  H63  1  0.66800000  0.53400000  0.36800000  1
  H  H64  1  0.53600000  0.76600000  0.17000000  1
  H  H65  1  0.90400000  0.63400000  0.67000000  1
  H  H66  1  0.10900000  0.74900000  0.77600000  1
  H  H67  1  0.52700000  0.66700000  0.27600000  1
  H  H68  1  0.89100000  0.25100000  0.22400000  1
  H  H69  1  0.47300000  0.33300000  0.72400000  1
  H  H70  1  0.46400000  0.23400000  0.83000000  1
  H  H71  1  0.09600000  0.36600000  0.33000000  1
  H  H72  1  0.66600000  0.30000000  0.13200000  1
  H  H73  1  0.33200000  0.46600000  0.63200000  1
  H  H74  1  0.12500000  0.40000000  0.58100000  1
  H  H75  1  0.68100000  0.45600000  0.08100000  1
  H  H76  1  0.64200000  0.98400000  0.60200000  1
  H  H77  1  0.11800000  0.96000000  0.10200000  1
  H  H78  1  0.64100000  0.09700000  0.49200000  1
  H  H79  1  0.89500000  0.85100000  0.99200000  1
  H  H80  1  0.94700000  0.35400000  0.54700000  1
  H  H81  1  0.69300000  0.60000000  0.04700000  1
  H  H82  1  0.31200000  0.25300000  0.02100000  1
  H  H83  1  0.26800000  0.70900000  0.52100000  1
  Mg  Mg84  1  0.55819000  0.80819000  0.75000000  1
  Mg  Mg85  1  0.44181000  0.19181000  0.25000000  1
  Mg  Mg86  1  0.50000000  1.00000000  0.00000000  1
  Mg  Mg87  1  0.50000000  0.50000000  0.50000000  1
  N  N88  1  0.50816000  0.73336000  0.92070000  1
  N  N89  1  0.68734000  0.41254000  0.42070000  1
  N  N90  1  0.49184000  0.26664000  0.07930000  1
  N  N91  1  0.31266000  0.58746000  0.57930000  1
  O  O92  1  0.41624000  0.87690000  0.69096000  1
  O  O93  1  0.31406000  0.27472000  0.19096000  1
  O  O94  1  0.68190000  0.98024000  0.87882000  1
  O  O95  1  0.39858000  0.19692000  0.37882000  1
  O  O96  1  0.51034000  0.82067000  0.88833000  1
  O  O97  1  0.56766000  0.37799000  0.38833000  1
  O  O98  1  0.68025000  0.08524000  0.05769000  1
  O  O99  1  0.47245000  0.37744000  0.55769000  1
  O  O100  1  0.43699000  0.04392000  0.85637000  1
  O  O101  1  0.31245000  0.41938000  0.35637000  1
  O  O102  1  0.56301000  0.95608000  0.14363000  1
  O  O103  1  0.68755000  0.58062000  0.64363000  1
  O  O104  1  0.31975000  0.91476000  0.94231000  1
  O  O105  1  0.52755000  0.62256000  0.44231000  1
  O  O106  1  0.48966000  0.17933000  0.11167000  1
  O  O107  1  0.43234000  0.62201000  0.61167000  1
  O  O108  1  0.31810000  0.01976000  0.12118000  1
  O  O109  1  0.60142000  0.80308000  0.62118000  1
  O  O110  1  0.58376000  0.12310000  0.30904000  1
  O  O111  1  0.68594000  0.72528000  0.80904000  1
