# generated using pymatgen
data_AlC8O5
_symmetry_space_group_name_H-M   'P 1'
_cell_length_a   6.61690000
_cell_length_b   9.43000000
_cell_length_c   9.46420000
_cell_angle_alpha   107.57700000
_cell_angle_beta   107.72500000
_cell_angle_gamma   93.20880000
_symmetry_Int_Tables_number   1
_chemical_formula_structural   AlC8O5
_chemical_formula_sum   'Al2 C16 O10'
_cell_volume   529.08299270
_cell_formula_units_Z   2
loop_
 _symmetry_equiv_pos_site_id
 _symmetry_equiv_pos_as_xyz
  1  'x, y, z'
loop_
 _atom_site_type_symbol
 _atom_site_label
 _atom_site_symmetry_multiplicity
 _atom_site_fract_x
 _atom_site_fract_y
 _atom_site_fract_z
 _atom_site_occupancy
  Al  Al0  1  0.00000000  0.00000000  0.00000000  1
  Al  Al1  1  0.50000000  0.00000000  0.00000000  1
  C  C2  1  0.11820000  0.90710000  0.44750000  1
  C  C3  1  0.11920000  0.15330000  0.62530000  1
  C  C4  1  0.17300000  0.10960000  0.76874000  1
  C  C5  1  0.25140000  0.04890000  0.55030000  1
  C  C6  1  0.27940000  0.43880000  0.44670000  1
  C  C7  1  0.34970000  0.56330000  0.60870000  1
  C  C8  1  0.36380000  0.23200000  0.23070000  1
  C  C9  1  0.44310000  0.34700000  0.39330000  1
  C  C10  1  0.55690000  0.65300000  0.60670000  1
  C  C11  1  0.63620000  0.76800000  0.76930000  1
  C  C12  1  0.65030000  0.43670000  0.39130000  1
  C  C13  1  0.72060000  0.56120000  0.55330000  1
  C  C14  1  0.74860000  0.95110000  0.44970000  1
  C  C15  1  0.82700000  0.89040000  0.23126000  1
  C  C16  1  0.88080000  0.84670000  0.37470000  1
  C  C17  1  0.88180000  0.09290000  0.55250000  1
  O  O18  1  0.03750000  0.08850000  0.83300000  1
  O  O19  1  0.17960000  0.17040000  0.16640000  1
  O  O20  1  0.25330000  0.93290000  0.01700000  1
  O  O21  1  0.36170000  0.10440000  0.84530000  1
  O  O22  1  0.49470000  0.17840000  0.17360000  1
  O  O23  1  0.50530000  0.82160000  0.82640000  1
  O  O24  1  0.63830000  0.89560000  0.15470000  1
  O  O25  1  0.74670000  0.06710000  0.98300000  1
  O  O26  1  0.82040000  0.82960000  0.83360000  1
  O  O27  1  0.96250000  0.91150000  0.16700000  1
