# generated using pymatgen
data_EuH12(C5O2)3
_symmetry_space_group_name_H-M   'P 1'
_cell_length_a   10.16500000
_cell_length_b   14.14400000
_cell_length_c   22.00500000
_cell_angle_alpha   91.55000000
_cell_angle_beta   90.00000000
_cell_angle_gamma   90.00000000
_symmetry_Int_Tables_number   1
_chemical_formula_structural   EuH12(C5O2)3
_chemical_formula_sum   'Eu8 H96 C120 O48'
_cell_volume   3162.58397778
_cell_formula_units_Z   8
loop_
 _symmetry_equiv_pos_site_id
 _symmetry_equiv_pos_as_xyz
  1  'x, y, z'
loop_
 _atom_site_type_symbol
 _atom_site_label
 _atom_site_symmetry_multiplicity
 _atom_site_fract_x
 _atom_site_fract_y
 _atom_site_fract_z
 _atom_site_occupancy
  Eu  Eu0  1  0.94220000  0.26737000  0.25940000  1
  Eu  Eu1  1  0.75060000  0.52511000  0.24940000  1
  Eu  Eu2  1  0.74940000  0.02511000  0.24940000  1
  Eu  Eu3  1  0.55780000  0.76737000  0.25940000  1
  Eu  Eu4  1  0.44220000  0.23263000  0.74060000  1
  Eu  Eu5  1  0.25060000  0.97489000  0.75060000  1
  Eu  Eu6  1  0.24940000  0.47489000  0.75060000  1
  Eu  Eu7  1  0.05780000  0.73263000  0.74060000  1
  H  H8  1  0.99290000  0.78800000  0.15760000  1
  H  H9  1  0.99040000  0.62820000  0.56700000  1
  H  H10  1  0.98880000  0.24310000  0.68520000  1
  H  H11  1  0.96640000  0.15920000  0.02250000  1
  H  H12  1  0.96050000  0.02920000  0.41200000  1
  H  H13  1  0.95640000  0.48650000  0.09440000  1
  H  H14  1  0.92030000  0.35470000  0.52800000  1
  H  H15  1  0.91290000  0.85380000  0.88480000  1
  H  H16  1  0.90510000  0.09580000  0.92880000  1
  H  H17  1  0.87640000  0.72220000  0.34120000  1
  H  H18  1  0.86290000  0.41280000  0.62610000  1
  H  H19  1  0.85770000  0.86930000  0.53350000  1
  H  H20  1  0.85320000  0.61630000  0.95320000  1
  H  H21  1  0.85230000  0.80060000  0.12960000  1
  H  H22  1  0.84840000  0.95010000  0.86780000  1
  H  H23  1  0.84040000  0.29010000  0.90310000  1
  H  H24  1  0.82760000  0.18610000  0.61430000  1
  H  H25  1  0.81630000  0.06270000  0.42480000  1
  H  H26  1  0.81530000  0.44500000  0.08430000  1
  H  H27  1  0.79920000  0.51350000  0.62130000  1
  H  H28  1  0.79620000  0.81260000  0.43840000  1
  H  H29  1  0.78660000  0.68720000  0.04360000  1
  H  H30  1  0.77320000  0.36340000  0.99290000  1
  H  H31  1  0.76870000  0.12930000  0.51880000  1
  H  H32  1  0.73130000  0.62930000  0.51880000  1
  H  H33  1  0.72680000  0.86340000  0.99290000  1
  H  H34  1  0.71340000  0.18720000  0.04360000  1
  H  H35  1  0.70380000  0.31260000  0.43840000  1
  H  H36  1  0.70080000  0.01350000  0.62130000  1
  H  H37  1  0.68470000  0.94500000  0.08430000  1
  H  H38  1  0.68370000  0.56270000  0.42480000  1
  H  H39  1  0.67240000  0.68610000  0.61430000  1
  H  H40  1  0.65960000  0.79010000  0.90310000  1
  H  H41  1  0.65160000  0.45010000  0.86780000  1
  H  H42  1  0.64770000  0.30060000  0.12960000  1
  H  H43  1  0.64680000  0.11630000  0.95320000  1
  H  H44  1  0.64230000  0.36930000  0.53350000  1
  H  H45  1  0.63710000  0.91280000  0.62610000  1
  H  H46  1  0.62360000  0.22220000  0.34120000  1
  H  H47  1  0.59490000  0.59580000  0.92880000  1
  H  H48  1  0.58710000  0.35380000  0.88480000  1
  H  H49  1  0.57970000  0.85470000  0.52800000  1
  H  H50  1  0.54360000  0.98650000  0.09440000  1
  H  H51  1  0.53950000  0.52920000  0.41200000  1
  H  H52  1  0.53360000  0.65920000  0.02250000  1
  H  H53  1  0.51120000  0.74310000  0.68520000  1
  H  H54  1  0.50960000  0.12820000  0.56700000  1
  H  H55  1  0.50710000  0.28800000  0.15760000  1
  H  H56  1  0.49290000  0.71200000  0.84240000  1
  H  H57  1  0.49040000  0.87180000  0.43300000  1
  H  H58  1  0.48880000  0.25690000  0.31480000  1
  H  H59  1  0.46640000  0.34080000  0.97750000  1
  H  H60  1  0.46050000  0.47080000  0.58800000  1
  H  H61  1  0.45640000  0.01350000  0.90560000  1
  H  H62  1  0.42030000  0.14530000  0.47200000  1
  H  H63  1  0.41290000  0.64620000  0.11520000  1
  H  H64  1  0.40510000  0.40420000  0.07120000  1
  H  H65  1  0.37640000  0.77780000  0.65880000  1
  H  H66  1  0.36290000  0.08720000  0.37390000  1
  H  H67  1  0.35770000  0.63070000  0.46650000  1
  H  H68  1  0.35320000  0.88370000  0.04680000  1
  H  H69  1  0.35230000  0.69940000  0.87040000  1
  H  H70  1  0.34840000  0.54990000  0.13220000  1
  H  H71  1  0.34040000  0.20990000  0.09690000  1
  H  H72  1  0.32760000  0.31390000  0.38570000  1
  H  H73  1  0.31630000  0.43730000  0.57520000  1
  H  H74  1  0.31530000  0.05500000  0.91570000  1
  H  H75  1  0.29920000  0.98650000  0.37870000  1
  H  H76  1  0.29620000  0.68740000  0.56160000  1
  H  H77  1  0.28660000  0.81280000  0.95640000  1
  H  H78  1  0.27320000  0.13660000  0.00710000  1
  H  H79  1  0.26870000  0.37070000  0.48120000  1
  H  H80  1  0.23130000  0.87070000  0.48120000  1
  H  H81  1  0.22680000  0.63660000  0.00710000  1
  H  H82  1  0.21340000  0.31280000  0.95640000  1
  H  H83  1  0.20380000  0.18740000  0.56160000  1
  H  H84  1  0.20080000  0.48650000  0.37870000  1
  H  H85  1  0.18470000  0.55500000  0.91570000  1
  H  H86  1  0.18370000  0.93730000  0.57520000  1
  H  H87  1  0.17240000  0.81390000  0.38570000  1
  H  H88  1  0.15960000  0.70990000  0.09690000  1
  H  H89  1  0.15160000  0.04990000  0.13220000  1
  H  H90  1  0.14770000  0.19940000  0.87040000  1
  H  H91  1  0.14680000  0.38370000  0.04680000  1
  H  H92  1  0.14230000  0.13070000  0.46650000  1
  H  H93  1  0.13710000  0.58720000  0.37390000  1
  H  H94  1  0.12360000  0.27780000  0.65880000  1
  H  H95  1  0.09490000  0.90420000  0.07120000  1
  H  H96  1  0.08710000  0.14620000  0.11520000  1
  H  H97  1  0.07970000  0.64530000  0.47200000  1
  H  H98  1  0.04360000  0.51350000  0.90560000  1
  H  H99  1  0.03950000  0.97080000  0.58800000  1
  H  H100  1  0.03360000  0.84080000  0.97750000  1
  H  H101  1  0.01120000  0.75690000  0.31480000  1
  H  H102  1  0.00960000  0.37180000  0.43300000  1
  H  H103  1  0.00710000  0.21200000  0.84240000  1
  C  C104  1  0.99380000  0.57640000  0.54020000  1
  C  C105  1  0.98000000  0.09520000  0.01368000  1
  C  C106  1  0.97720000  0.80910000  0.40159000  1
  C  C107  1  0.97240000  0.51650000  0.66988000  1
  C  C108  1  0.96640000  0.70730000  0.07969000  1
  C  C109  1  0.96470000  0.06410000  0.16477000  1
  C  C110  1  0.96320000  0.96170000  0.94336000  1
  C  C111  1  0.95240000  0.38060000  0.02995000  1
  C  C112  1  0.95200000  0.41350000  0.51690000  1
  C  C113  1  0.94860000  0.12430000  0.48280000  1
  C  C114  1  0.94420000  0.48960000  0.55794000  1
  C  C115  1  0.94330000  0.05720000  0.95741000  1
  C  C116  1  0.93480000  0.77620000  0.33845000  1
  C  C117  1  0.92900000  0.92110000  0.88163000  1
  C  C118  1  0.92180000  0.37100000  0.14506000  1
  C  C119  1  0.92150000  0.85840000  0.50390000  1
  C  C120  1  0.91990000  0.75460000  0.13860000  1
  C  C121  1  0.91580000  0.63490000  0.98200000  1
  C  C122  1  0.91520000  0.15030000  0.36928000  1
  C  C123  1  0.90730000  0.42810000  0.08860000  1
  C  C124  1  0.90660000  0.08420000  0.42160000  1
  C  C125  1  0.90290000  0.30880000  0.93186000  1
  C  C126  1  0.89190000  0.17460000  0.58490000  1
  C  C127  1  0.88440000  0.82470000  0.44660000  1
  C  C128  1  0.88170000  0.47910000  0.61973000  1
  C  C129  1  0.87580000  0.67800000  0.03630000  1
  C  C130  1  0.86560000  0.68430000  0.18208000  1
  C  C131  1  0.86460000  0.85590000  0.30757000  1
  C  C132  1  0.86240000  0.35270000  0.98610000  1
  C  C133  1  0.85690000  0.14090000  0.52730000  1
  C  C134  1  0.64310000  0.64090000  0.52730000  1
  C  C135  1  0.63760000  0.85270000  0.98610000  1
  C  C136  1  0.63540000  0.35590000  0.30757000  1
  C  C137  1  0.63440000  0.18430000  0.18208000  1
  C  C138  1  0.62420000  0.17800000  0.03630000  1
  C  C139  1  0.61830000  0.97910000  0.61973000  1
  C  C140  1  0.61560000  0.32470000  0.44660000  1
  C  C141  1  0.60810000  0.67460000  0.58490000  1
  C  C142  1  0.59710000  0.80880000  0.93186000  1
  C  C143  1  0.59340000  0.58420000  0.42160000  1
  C  C144  1  0.59270000  0.92810000  0.08860000  1
  C  C145  1  0.58480000  0.65030000  0.36928000  1
  C  C146  1  0.58420000  0.13490000  0.98200000  1
  C  C147  1  0.58010000  0.25460000  0.13860000  1
  C  C148  1  0.57850000  0.35840000  0.50390000  1
  C  C149  1  0.57820000  0.87100000  0.14506000  1
  C  C150  1  0.57100000  0.42110000  0.88163000  1
  C  C151  1  0.56520000  0.27620000  0.33845000  1
  C  C152  1  0.55670000  0.55720000  0.95741000  1
  C  C153  1  0.55580000  0.98960000  0.55794000  1
  C  C154  1  0.55140000  0.62430000  0.48280000  1
  C  C155  1  0.54800000  0.91350000  0.51690000  1
  C  C156  1  0.54760000  0.88060000  0.02995000  1
  C  C157  1  0.53680000  0.46170000  0.94336000  1
  C  C158  1  0.53530000  0.56410000  0.16477000  1
  C  C159  1  0.53360000  0.20730000  0.07969000  1
  C  C160  1  0.52760000  0.01650000  0.66988000  1
  C  C161  1  0.52280000  0.30910000  0.40159000  1
  C  C162  1  0.52000000  0.59520000  0.01368000  1
  C  C163  1  0.50620000  0.07640000  0.54020000  1
  C  C164  1  0.49380000  0.92360000  0.45980000  1
  C  C165  1  0.48000000  0.40480000  0.98632000  1
  C  C166  1  0.47720000  0.69090000  0.59841000  1
  C  C167  1  0.47240000  0.98350000  0.33012000  1
  C  C168  1  0.46640000  0.79270000  0.92031000  1
  C  C169  1  0.46470000  0.43590000  0.83523000  1
  C  C170  1  0.46320000  0.53830000  0.05664000  1
  C  C171  1  0.45240000  0.11940000  0.97005000  1
  C  C172  1  0.45200000  0.08650000  0.48310000  1
  C  C173  1  0.44860000  0.37570000  0.51720000  1
  C  C174  1  0.44420000  0.01040000  0.44206000  1
  C  C175  1  0.44330000  0.44280000  0.04259000  1
  C  C176  1  0.43480000  0.72380000  0.66155000  1
  C  C177  1  0.42900000  0.57890000  0.11837000  1
  C  C178  1  0.42180000  0.12900000  0.85494000  1
  C  C179  1  0.42150000  0.64160000  0.49610000  1
  C  C180  1  0.41990000  0.74540000  0.86140000  1
  C  C181  1  0.41580000  0.86510000  0.01800000  1
  C  C182  1  0.41520000  0.34970000  0.63072000  1
  C  C183  1  0.40730000  0.07190000  0.91140000  1
  C  C184  1  0.40660000  0.41580000  0.57840000  1
  C  C185  1  0.40290000  0.19120000  0.06814000  1
  C  C186  1  0.39190000  0.32540000  0.41510000  1
  C  C187  1  0.38440000  0.67530000  0.55340000  1
  C  C188  1  0.38170000  0.02090000  0.38027000  1
  C  C189  1  0.37580000  0.82200000  0.96370000  1
  C  C190  1  0.36560000  0.81570000  0.81792000  1
  C  C191  1  0.36460000  0.64410000  0.69243000  1
  C  C192  1  0.36240000  0.14730000  0.01390000  1
  C  C193  1  0.35690000  0.35910000  0.47270000  1
  C  C194  1  0.14310000  0.85910000  0.47270000  1
  C  C195  1  0.13760000  0.64730000  0.01390000  1
  C  C196  1  0.13540000  0.14410000  0.69243000  1
  C  C197  1  0.13440000  0.31570000  0.81792000  1
  C  C198  1  0.12420000  0.32200000  0.96370000  1
  C  C199  1  0.11830000  0.52090000  0.38027000  1
  C  C200  1  0.11560000  0.17530000  0.55340000  1
  C  C201  1  0.10810000  0.82540000  0.41510000  1
  C  C202  1  0.09710000  0.69120000  0.06814000  1
  C  C203  1  0.09340000  0.91580000  0.57840000  1
  C  C204  1  0.09270000  0.57190000  0.91140000  1
  C  C205  1  0.08480000  0.84970000  0.63072000  1
  C  C206  1  0.08420000  0.36510000  0.01800000  1
  C  C207  1  0.08010000  0.24540000  0.86140000  1
  C  C208  1  0.07850000  0.14160000  0.49610000  1
  C  C209  1  0.07820000  0.62900000  0.85494000  1
  C  C210  1  0.07100000  0.07890000  0.11837000  1
  C  C211  1  0.06520000  0.22380000  0.66155000  1
  C  C212  1  0.05670000  0.94280000  0.04259000  1
  C  C213  1  0.05580000  0.51040000  0.44206000  1
  C  C214  1  0.05140000  0.87570000  0.51720000  1
  C  C215  1  0.04800000  0.58650000  0.48310000  1
  C  C216  1  0.04760000  0.61940000  0.97005000  1
  C  C217  1  0.03680000  0.03830000  0.05664000  1
  C  C218  1  0.03530000  0.93590000  0.83523000  1
  C  C219  1  0.03360000  0.29270000  0.92031000  1
  C  C220  1  0.02760000  0.48350000  0.33012000  1
  C  C221  1  0.02280000  0.19090000  0.59841000  1
  C  C222  1  0.02000000  0.90480000  0.98632000  1
  C  C223  1  0.00620000  0.42360000  0.45980000  1
  O  O224  1  0.99340000  0.21720000  0.36777000  1
  O  O225  1  0.98180000  0.29510000  0.14588000  1
  O  O226  1  0.97480000  0.10593000  0.21672000  1
  O  O227  1  0.94840000  0.59560000  0.69370000  1
  O  O228  1  0.93360000  0.53450000  0.31628000  1
  O  O229  1  0.93130000  0.91910000  0.28358000  1
  O  O230  1  0.92060000  0.60650000  0.18720000  1
  O  O231  1  0.86940000  0.01190000  0.15293000  1
  O  O232  1  0.86820000  0.40235000  0.19401000  1
  O  O233  1  0.83800000  0.13481000  0.32491000  1
  O  O234  1  0.76550000  0.70450000  0.21422000  1
  O  O235  1  0.75900000  0.36100000  0.30805000  1
  O  O236  1  0.74100000  0.86100000  0.30805000  1
  O  O237  1  0.73450000  0.20450000  0.21422000  1
  O  O238  1  0.66200000  0.63481000  0.32491000  1
  O  O239  1  0.63180000  0.90235000  0.19401000  1
  O  O240  1  0.63060000  0.51190000  0.15293000  1
  O  O241  1  0.57940000  0.10650000  0.18720000  1
  O  O242  1  0.56870000  0.41910000  0.28358000  1
  O  O243  1  0.56640000  0.03450000  0.31628000  1
  O  O244  1  0.55160000  0.09560000  0.69370000  1
  O  O245  1  0.52520000  0.60593000  0.21672000  1
  O  O246  1  0.51820000  0.79510000  0.14588000  1
  O  O247  1  0.50660000  0.71720000  0.36777000  1
  O  O248  1  0.49340000  0.28280000  0.63223000  1
  O  O249  1  0.48180000  0.20490000  0.85412000  1
  O  O250  1  0.47480000  0.39407000  0.78328000  1
  O  O251  1  0.44840000  0.90440000  0.30630000  1
  O  O252  1  0.43360000  0.96550000  0.68372000  1
  O  O253  1  0.43130000  0.58090000  0.71642000  1
  O  O254  1  0.42060000  0.89350000  0.81280000  1
  O  O255  1  0.36940000  0.48810000  0.84707000  1
  O  O256  1  0.36820000  0.09765000  0.80599000  1
  O  O257  1  0.33800000  0.36519000  0.67509000  1
  O  O258  1  0.26550000  0.79550000  0.78578000  1
  O  O259  1  0.25900000  0.13900000  0.69195000  1
  O  O260  1  0.24100000  0.63900000  0.69195000  1
  O  O261  1  0.23450000  0.29550000  0.78578000  1
  O  O262  1  0.16200000  0.86519000  0.67509000  1
  O  O263  1  0.13180000  0.59765000  0.80599000  1
  O  O264  1  0.13060000  0.98810000  0.84707000  1
  O  O265  1  0.07940000  0.39350000  0.81280000  1
  O  O266  1  0.06870000  0.08090000  0.71642000  1
  O  O267  1  0.06640000  0.46550000  0.68372000  1
  O  O268  1  0.05160000  0.40440000  0.30630000  1
  O  O269  1  0.02520000  0.89407000  0.78328000  1
  O  O270  1  0.01820000  0.70490000  0.85412000  1
  O  O271  1  0.00660000  0.78280000  0.63223000  1
