# generated using pymatgen
data_TmH3(CO2)3
_symmetry_space_group_name_H-M   'P 1'
_cell_length_a   6.53900000
_cell_length_b   6.61913869
_cell_length_c   6.61913869
_cell_angle_alpha   64.88794553
_cell_angle_beta   73.66121839
_cell_angle_gamma   73.66121839
_symmetry_Int_Tables_number   1
_chemical_formula_structural   TmH3(CO2)3
_chemical_formula_sum   'Tm1 H3 C3 O6'
_cell_volume   244.57642175
_cell_formula_units_Z   1
loop_
 _symmetry_equiv_pos_site_id
 _symmetry_equiv_pos_as_xyz
  1  'x, y, z'
loop_
 _atom_site_type_symbol
 _atom_site_label
 _atom_site_symmetry_multiplicity
 _atom_site_fract_x
 _atom_site_fract_y
 _atom_site_fract_z
 _atom_site_occupancy
  C  C0  1  0.50000000  0.51620000  0.48380000  1
  C  C1  1  0.03360000  0.51160000  0.01720000  1
  C  C2  1  0.96640000  0.98280000  0.48840000  1
  H  H3  1  0.50000000  0.38520000  0.61480000  1
  H  H4  1  0.89290000  0.59450000  0.01490000  1
  H  H5  1  0.10710000  0.98510000  0.40550000  1
  O  O6  1  0.33460000  0.59120000  0.39460000  1
  O  O7  1  0.88180000  0.13970000  0.55250000  1
  O  O8  1  0.11470000  0.47830000  0.18090000  1
  O  O9  1  0.88530000  0.81910000  0.52170000  1
  O  O10  1  0.11820000  0.44750000  0.86030000  1
  O  O11  1  0.66540000  0.60540000  0.40880000  1
  Tm  Tm12  1  1.00000000  0.45252000  0.54748000  1
