# generated using pymatgen
data_Zn3H14(C2O)16
_symmetry_space_group_name_H-M   'P 1'
_cell_length_a   16.47210000
_cell_length_b   16.73180000
_cell_length_c   18.11050000
_cell_angle_alpha   90.00000000
_cell_angle_beta   90.00000000
_cell_angle_gamma   110.61800000
_symmetry_Int_Tables_number   1
_chemical_formula_structural   Zn3H14(C2O)16
_chemical_formula_sum   'Zn12 H56 C128 O64'
_cell_volume   4671.69239651
_cell_formula_units_Z   4
loop_
 _symmetry_equiv_pos_site_id
 _symmetry_equiv_pos_as_xyz
  1  'x, y, z'
loop_
 _atom_site_type_symbol
 _atom_site_label
 _atom_site_symmetry_multiplicity
 _atom_site_fract_x
 _atom_site_fract_y
 _atom_site_fract_z
 _atom_site_occupancy
  Zn  Zn0  1  0.50000000  0.00000000  0.00000000  1
  Zn  Zn1  1  0.00000000  1.00000000  0.50000000  1
  Zn  Zn2  1  0.12745000  0.18556000  0.61050000  1
  Zn  Zn3  1  0.62745000  0.18556000  0.88950000  1
  Zn  Zn4  1  0.36201000  0.30781000  0.61736000  1
  Zn  Zn5  1  0.86201000  0.30781000  0.88264000  1
  Zn  Zn6  1  1.00000000  0.50000000  0.00000000  1
  Zn  Zn7  1  0.50000000  0.50000000  0.50000000  1
  Zn  Zn8  1  0.13799000  0.69219000  0.11736000  1
  Zn  Zn9  1  0.63799000  0.69219000  0.38264000  1
  Zn  Zn10  1  0.37255000  0.81444000  0.11050000  1
  Zn  Zn11  1  0.87255000  0.81444000  0.38950000  1
  H  H12  1  0.33890000  0.02690000  0.22920000  1
  H  H13  1  0.83890000  0.02690000  0.27080000  1
  H  H14  1  0.66460000  0.07090000  0.13790000  1
  H  H15  1  0.16460000  0.07090000  0.36210000  1
  H  H16  1  0.97970000  0.07160000  0.15830000  1
  H  H17  1  0.47970000  0.07160000  0.34170000  1
  H  H18  1  0.53150000  0.13100000  0.17030000  1
  H  H19  1  0.03150000  0.13100000  0.32970000  1
  H  H20  1  0.79390000  0.15290000  0.08130000  1
  H  H21  1  0.29390000  0.15290000  0.41870000  1
  H  H22  1  0.89210000  0.15700000  0.73500000  1
  H  H23  1  0.39210000  0.15700000  0.76500000  1
  H  H24  1  0.36180000  0.18340000  0.20640000  1
  H  H25  1  0.86180000  0.18340000  0.29360000  1
  H  H26  1  0.15770000  0.33010000  0.20050000  1
  H  H27  1  0.65770000  0.33010000  0.29950000  1
  H  H28  1  0.47290000  0.34070000  0.10460000  1
  H  H29  1  0.97290000  0.34070000  0.39540000  1
  H  H30  1  0.59090000  0.34450000  0.74770000  1
  H  H31  1  0.09090000  0.34450000  0.75230000  1
  H  H32  1  0.69630000  0.34720000  0.08190000  1
  H  H33  1  0.19630000  0.34720000  0.41810000  1
  H  H34  1  0.95260000  0.38030000  0.15350000  1
  H  H35  1  0.45260000  0.38030000  0.34650000  1
  H  H36  1  0.83780000  0.43760000  0.13210000  1
  H  H37  1  0.33780000  0.43760000  0.36790000  1
  H  H38  1  0.17370000  0.47830000  0.22190000  1
  H  H39  1  0.67370000  0.47830000  0.27810000  1
  H  H40  1  0.32630000  0.52170000  0.72190000  1
  H  H41  1  0.82630000  0.52170000  0.77810000  1
  H  H42  1  0.66220000  0.56240000  0.63210000  1
  H  H43  1  0.16220000  0.56240000  0.86790000  1
  H  H44  1  0.54740000  0.61970000  0.65350000  1
  H  H45  1  0.04740000  0.61970000  0.84650000  1
  H  H46  1  0.80370000  0.65280000  0.58190000  1
  H  H47  1  0.30370000  0.65280000  0.91810000  1
  H  H48  1  0.90910000  0.65550000  0.24770000  1
  H  H49  1  0.40910000  0.65550000  0.25230000  1
  H  H50  1  0.02710000  0.65930000  0.60460000  1
  H  H51  1  0.52710000  0.65930000  0.89540000  1
  H  H52  1  0.34230000  0.66990000  0.70050000  1
  H  H53  1  0.84230000  0.66990000  0.79950000  1
  H  H54  1  0.13820000  0.81660000  0.70640000  1
  H  H55  1  0.63820000  0.81660000  0.79360000  1
  H  H56  1  0.60790000  0.84300000  0.23500000  1
  H  H57  1  0.10790000  0.84300000  0.26500000  1
  H  H58  1  0.70610000  0.84710000  0.58130000  1
  H  H59  1  0.20610000  0.84710000  0.91870000  1
  H  H60  1  0.96850000  0.86900000  0.67030000  1
  H  H61  1  0.46850000  0.86900000  0.82970000  1
  H  H62  1  0.52030000  0.92840000  0.65830000  1
  H  H63  1  0.02030000  0.92840000  0.84170000  1
  H  H64  1  0.83540000  0.92910000  0.63790000  1
  H  H65  1  0.33540000  0.92910000  0.86210000  1
  H  H66  1  0.16110000  0.97310000  0.72920000  1
  H  H67  1  0.66110000  0.97310000  0.77080000  1
  C  C68  1  0.78470000  0.00860000  0.24832000  1
  C  C69  1  0.28470000  0.00860000  0.25168000  1
  C  C70  1  0.68050000  0.03460000  0.16886000  1
  C  C71  1  0.18050000  0.03460000  0.33114000  1
  C  C72  1  0.87690000  0.04800000  0.68032000  1
  C  C73  1  0.37690000  0.04800000  0.81968000  1
  C  C74  1  0.76130000  0.06390000  0.20294000  1
  C  C75  1  0.26130000  0.06390000  0.29706000  1
  C  C76  1  0.27300000  0.07420000  0.73973000  1
  C  C77  1  0.77300000  0.07420000  0.76027000  1
  C  C78  1  0.96250000  0.07690000  0.64263000  1
  C  C79  1  0.46250000  0.07690000  0.85737000  1
  C  C80  1  0.85350000  0.10190000  0.72654000  1
  C  C81  1  0.35350000  0.10190000  0.77346000  1
  C  C82  1  0.25050000  0.13500000  0.69131000  1
  C  C83  1  0.75050000  0.13500000  0.80869000  1
  C  C84  1  0.81880000  0.15370000  0.18976000  1
  C  C85  1  0.31880000  0.15370000  0.31024000  1
  C  C86  1  0.05450000  0.17250000  0.18620000  1
  C  C87  1  0.55450000  0.17250000  0.31380000  1
  C  C88  1  0.57080000  0.18630000  0.17579000  1
  C  C89  1  0.07080000  0.18630000  0.32421000  1
  C  C90  1  0.82400000  0.18750000  0.11970000  1
  C  C91  1  0.32400000  0.18750000  0.38030000  1
  C  C92  1  0.59100000  0.19330000  0.03950000  1
  C  C93  1  0.09100000  0.19330000  0.46050000  1
  C  C94  1  0.86420000  0.20560000  0.24620000  1
  C  C95  1  0.36420000  0.20560000  0.25380000  1
  C  C96  1  0.59000000  0.22210000  0.24563000  1
  C  C97  1  0.09000000  0.22210000  0.25437000  1
  C  C98  1  0.61000000  0.23290000  0.11470000  1
  C  C99  1  0.11000000  0.23290000  0.38530000  1
  C  C100  1  0.87380000  0.27290000  0.10550000  1
  C  C101  1  0.37380000  0.27290000  0.39450000  1
  C  C102  1  0.91360000  0.29050000  0.23310000  1
  C  C103  1  0.41360000  0.29050000  0.26690000  1
  C  C104  1  0.87340000  0.30520000  0.02930000  1
  C  C105  1  0.37340000  0.30520000  0.47070000  1
  C  C106  1  0.14610000  0.30590000  0.24728000  1
  C  C107  1  0.64610000  0.30590000  0.25272000  1
  C  C108  1  0.66850000  0.31660000  0.12307000  1
  C  C109  1  0.16850000  0.31660000  0.37693000  1
  C  C110  1  0.91870000  0.32370000  0.16240000  1
  C  C111  1  0.41870000  0.32370000  0.33760000  1
  C  C112  1  0.45640000  0.34640000  0.20390000  1
  C  C113  1  0.95640000  0.34640000  0.29610000  1
  C  C114  1  0.68500000  0.35400000  0.19237000  1
  C  C115  1  0.18500000  0.35400000  0.30763000  1
  C  C116  1  0.23210000  0.36370000  0.67820000  1
  C  C117  1  0.73210000  0.36370000  0.82180000  1
  C  C118  1  0.63230000  0.39710000  0.73571000  1
  C  C119  1  0.13230000  0.39710000  0.76429000  1
  C  C120  1  0.52670000  0.41910000  0.64674000  1
  C  C121  1  0.02670000  0.41910000  0.85326000  1
  C  C122  1  0.21190000  0.42330000  0.73008000  1
  C  C123  1  0.71190000  0.42330000  0.76992000  1
  C  C124  1  0.74640000  0.44320000  0.20400000  1
  C  C125  1  0.24640000  0.44320000  0.29600000  1
  C  C126  1  0.61337000  0.44810000  0.68373000  1
  C  C127  1  0.11337000  0.44810000  0.81627000  1
  C  C128  1  0.82550000  0.47190000  0.16756000  1
  C  C129  1  0.32550000  0.47190000  0.33244000  1
  C  C130  1  0.22730000  0.49630000  0.24554000  1
  C  C131  1  0.72730000  0.49630000  0.25446000  1
  C  C132  1  0.27270000  0.50370000  0.74554000  1
  C  C133  1  0.77270000  0.50370000  0.75446000  1
  C  C134  1  0.67450000  0.52810000  0.66756000  1
  C  C135  1  0.17450000  0.52810000  0.83244000  1
  C  C136  1  0.88663000  0.55190000  0.18373000  1
  C  C137  1  0.38663000  0.55190000  0.31627000  1
  C  C138  1  0.75360000  0.55680000  0.70400000  1
  C  C139  1  0.25360000  0.55680000  0.79600000  1
  C  C140  1  0.28810000  0.57670000  0.23008000  1
  C  C141  1  0.78810000  0.57670000  0.26992000  1
  C  C142  1  0.97330000  0.58090000  0.14674000  1
  C  C143  1  0.47330000  0.58090000  0.35326000  1
  C  C144  1  0.86770000  0.60290000  0.23571000  1
  C  C145  1  0.36770000  0.60290000  0.26429000  1
  C  C146  1  0.26790000  0.63630000  0.17820000  1
  C  C147  1  0.76790000  0.63630000  0.32180000  1
  C  C148  1  0.81500000  0.64600000  0.69237000  1
  C  C149  1  0.31500000  0.64600000  0.80763000  1
  C  C150  1  0.04360000  0.65360000  0.70390000  1
  C  C151  1  0.54360000  0.65360000  0.79610000  1
  C  C152  1  0.58130000  0.67630000  0.66240000  1
  C  C153  1  0.08130000  0.67630000  0.83760000  1
  C  C154  1  0.83150000  0.68340000  0.62307000  1
  C  C155  1  0.33150000  0.68340000  0.87693000  1
  C  C156  1  0.35390000  0.69410000  0.74728000  1
  C  C157  1  0.85390000  0.69410000  0.75272000  1
  C  C158  1  0.62660000  0.69480000  0.52930000  1
  C  C159  1  0.12660000  0.69480000  0.97070000  1
  C  C160  1  0.58640000  0.70950000  0.73310000  1
  C  C161  1  0.08640000  0.70950000  0.76690000  1
  C  C162  1  0.62620000  0.72710000  0.60550000  1
  C  C163  1  0.12620000  0.72710000  0.89450000  1
  C  C164  1  0.89000000  0.76710000  0.61470000  1
  C  C165  1  0.39000000  0.76710000  0.88530000  1
  C  C166  1  0.91000000  0.77790000  0.74563000  1
  C  C167  1  0.41000000  0.77790000  0.75437000  1
  C  C168  1  0.63580000  0.79440000  0.74620000  1
  C  C169  1  0.13580000  0.79440000  0.75380000  1
  C  C170  1  0.90900000  0.80670000  0.53950000  1
  C  C171  1  0.40900000  0.80670000  0.96050000  1
  C  C172  1  0.67600000  0.81250000  0.61970000  1
  C  C173  1  0.17600000  0.81250000  0.88030000  1
  C  C174  1  0.92920000  0.81370000  0.67579000  1
  C  C175  1  0.42920000  0.81370000  0.82421000  1
  C  C176  1  0.44550000  0.82750000  0.68620000  1
  C  C177  1  0.94550000  0.82750000  0.81380000  1
  C  C178  1  0.68120000  0.84630000  0.68976000  1
  C  C179  1  0.18120000  0.84630000  0.81024000  1
  C  C180  1  0.24950000  0.86500000  0.19131000  1
  C  C181  1  0.74950000  0.86500000  0.30869000  1
  C  C182  1  0.64650000  0.89810000  0.22654000  1
  C  C183  1  0.14650000  0.89810000  0.27346000  1
  C  C184  1  0.53750000  0.92310000  0.14263000  1
  C  C185  1  0.03750000  0.92310000  0.35737000  1
  C  C186  1  0.22700000  0.92580000  0.23973000  1
  C  C187  1  0.72700000  0.92580000  0.26027000  1
  C  C188  1  0.73870000  0.93610000  0.70294000  1
  C  C189  1  0.23870000  0.93610000  0.79706000  1
  C  C190  1  0.62310000  0.95200000  0.18032000  1
  C  C191  1  0.12310000  0.95200000  0.31968000  1
  C  C192  1  0.81950000  0.96540000  0.66886000  1
  C  C193  1  0.31950000  0.96540000  0.83114000  1
  C  C194  1  0.71530000  0.99140000  0.74832000  1
  C  C195  1  0.21530000  0.99140000  0.75168000  1
  O  O196  1  0.98405000  0.02303000  0.60811000  1
  O  O197  1  0.48405000  0.02303000  0.89189000  1
  O  O198  1  0.99961000  0.09652000  0.19874000  1
  O  O199  1  0.49961000  0.09652000  0.30126000  1
  O  O200  1  0.17315000  0.11540000  0.67073000  1
  O  O201  1  0.67315000  0.11540000  0.82927000  1
  O  O202  1  0.52258000  0.12981000  0.03097000  1
  O  O203  1  0.02258000  0.12981000  0.46903000  1
  O  O204  1  0.00945000  0.15415000  0.64966000  1
  O  O205  1  0.50945000  0.15415000  0.85034000  1
  O  O206  1  0.07490000  0.20104000  0.12474000  1
  O  O207  1  0.57490000  0.20104000  0.37526000  1
  O  O208  1  0.31014000  0.20151000  0.67451000  1
  O  O209  1  0.81014000  0.20151000  0.82549000  1
  O  O210  1  0.14498000  0.22763000  0.51054000  1
  O  O211  1  0.64498000  0.22763000  0.98946000  1
  O  O212  1  0.35586000  0.25220000  0.52259000  1
  O  O213  1  0.85586000  0.25220000  0.97741000  1
  O  O214  1  0.17163000  0.29810000  0.66067000  1
  O  O215  1  0.67163000  0.29810000  0.83933000  1
  O  O216  1  0.43940000  0.31660000  0.14009000  1
  O  O217  1  0.93940000  0.31660000  0.35991000  1
  O  O218  1  0.47765000  0.34311000  0.66005000  1
  O  O219  1  0.97765000  0.34311000  0.83995000  1
  O  O220  1  0.88579000  0.38313000  0.01828000  1
  O  O221  1  0.38579000  0.38313000  0.48172000  1
  O  O222  1  0.30854000  0.38423000  0.65616000  1
  O  O223  1  0.80854000  0.38423000  0.84384000  1
  O  O224  1  0.50650000  0.42080000  0.21780000  1
  O  O225  1  0.00650000  0.42080000  0.28220000  1
  O  O226  1  0.50628000  0.46868000  0.60669000  1
  O  O227  1  0.00628000  0.46868000  0.89331000  1
  O  O228  1  0.99372000  0.53132000  0.10669000  1
  O  O229  1  0.49372000  0.53132000  0.39331000  1
  O  O230  1  0.99350000  0.57920000  0.71780000  1
  O  O231  1  0.49350000  0.57920000  0.78220000  1
  O  O232  1  0.19146000  0.61577000  0.15616000  1
  O  O233  1  0.69146000  0.61577000  0.34384000  1
  O  O234  1  0.61421000  0.61687000  0.51828000  1
  O  O235  1  0.11421000  0.61687000  0.98172000  1
  O  O236  1  0.02235000  0.65689000  0.16005000  1
  O  O237  1  0.52235000  0.65689000  0.33995000  1
  O  O238  1  0.06060000  0.68340000  0.64009000  1
  O  O239  1  0.56060000  0.68340000  0.85991000  1
  O  O240  1  0.32837000  0.70190000  0.16067000  1
  O  O241  1  0.82837000  0.70190000  0.33933000  1
  O  O242  1  0.14414000  0.74780000  0.02259000  1
  O  O243  1  0.64414000  0.74780000  0.47741000  1
  O  O244  1  0.35502000  0.77237000  0.01054000  1
  O  O245  1  0.85502000  0.77237000  0.48946000  1
  O  O246  1  0.18986000  0.79849000  0.17451000  1
  O  O247  1  0.68986000  0.79849000  0.32549000  1
  O  O248  1  0.42510000  0.79896000  0.62474000  1
  O  O249  1  0.92510000  0.79896000  0.87526000  1
  O  O250  1  0.49055000  0.84585000  0.14966000  1
  O  O251  1  0.99055000  0.84585000  0.35034000  1
  O  O252  1  0.97742000  0.87019000  0.53097000  1
  O  O253  1  0.47742000  0.87019000  0.96903000  1
  O  O254  1  0.32685000  0.88460000  0.17073000  1
  O  O255  1  0.82685000  0.88460000  0.32927000  1
  O  O256  1  0.50039000  0.90348000  0.69874000  1
  O  O257  1  0.00039000  0.90348000  0.80126000  1
  O  O258  1  0.51595000  0.97697000  0.10811000  1
  O  O259  1  0.01595000  0.97697000  0.39189000  1
