# generated using pymatgen
data_Cu5H31C36N9O13
_symmetry_space_group_name_H-M   'P 1'
_cell_length_a   15.83600000
_cell_length_b   17.54101093
_cell_length_c   17.54101093
_cell_angle_alpha   77.74455110
_cell_angle_beta   79.74554940
_cell_angle_gamma   79.74554940
_symmetry_Int_Tables_number   1
_chemical_formula_structural   Cu5H31C36N9O13
_chemical_formula_sum   'Cu10 H62 C72 N18 O26'
_cell_volume   4635.34619202
_cell_formula_units_Z   2
loop_
 _symmetry_equiv_pos_site_id
 _symmetry_equiv_pos_as_xyz
  1  'x, y, z'
loop_
 _atom_site_type_symbol
 _atom_site_label
 _atom_site_symmetry_multiplicity
 _atom_site_fract_x
 _atom_site_fract_y
 _atom_site_fract_z
 _atom_site_occupancy
  C  C0  1  0.60310000  0.37560000  0.53040000  1
  C  C1  1  0.60310000  0.53040000  0.37560000  1
  C  C2  1  0.73390000  0.29920000  0.58420000  1
  C  C3  1  0.73390000  0.58420000  0.29920000  1
  C  C4  1  0.67200000  0.30410000  0.53830000  1
  C  C5  1  0.67200000  0.53830000  0.30410000  1
  C  C6  1  0.80430000  0.23670000  0.59030000  1
  C  C7  1  0.80430000  0.59030000  0.23670000  1
  C  C8  1  0.38200000  0.28230000  0.50530000  1
  C  C9  1  0.38200000  0.50530000  0.28230000  1
  C  C10  1  0.36280000  0.33270000  0.42930000  1
  C  C11  1  0.36280000  0.42930000  0.33270000  1
  C  C12  1  0.67200000  0.24660000  0.49980000  1
  C  C13  1  0.67200000  0.49980000  0.24660000  1
  C  C14  1  0.80870000  0.17980000  0.54340000  1
  C  C15  1  0.80870000  0.54340000  0.17980000  1
  C  C16  1  0.74450000  0.18310000  0.50190000  1
  C  C17  1  0.74450000  0.50190000  0.18310000  1
  C  C18  1  0.88740000  0.11790000  0.54410000  1
  C  C19  1  0.88740000  0.54410000  0.11790000  1
  C  C20  1  0.16080000  0.08230000  0.53550000  1
  C  C21  1  0.16080000  0.53550000  0.08230000  1
  C  C22  1  0.99210000  0.90340000  0.68940000  1
  C  C23  1  0.99210000  0.68940000  0.90340000  1
  C  C24  1  0.42880000  0.04580000  0.53260000  1
  C  C25  1  0.42880000  0.53260000  0.04580000  1
  C  C26  1  0.48650000  0.98950000  0.57710000  1
  C  C27  1  0.48650000  0.57710000  0.98950000  1
  C  C28  1  0.13510000  0.10680000  0.45460000  1
  C  C29  1  0.13510000  0.45460000  0.10680000  1
  C  C30  1  0.93170000  0.88800000  0.64160000  1
  C  C31  1  0.93170000  0.64160000  0.88800000  1
  C  C32  1  0.38740000  0.11400000  0.40180000  1
  C  C33  1  0.38740000  0.40180000  0.11400000  1
  C  C34  1  0.44510000  0.05450000  0.45470000  1
  C  C35  1  0.44510000  0.45470000  0.05450000  1
  C  C36  1  0.55490000  0.94550000  0.54530000  1
  C  C37  1  0.55490000  0.54530000  0.94550000  1
  C  C38  1  0.61260000  0.88600000  0.59820000  1
  C  C39  1  0.61260000  0.59820000  0.88600000  1
  C  C40  1  0.06830000  0.11200000  0.35840000  1
  C  C41  1  0.06830000  0.35840000  0.11200000  1
  C  C42  1  0.86490000  0.89320000  0.54540000  1
  C  C43  1  0.86490000  0.54540000  0.89320000  1
  C  C44  1  0.51350000  0.01050000  0.42290000  1
  C  C45  1  0.51350000  0.42290000  0.01050000  1
  C  C46  1  0.57120000  0.95420000  0.46740000  1
  C  C47  1  0.57120000  0.46740000  0.95420000  1
  C  C48  1  0.00790000  0.09660000  0.31060000  1
  C  C49  1  0.00790000  0.31060000  0.09660000  1
  C  C50  1  0.83920000  0.91770000  0.46450000  1
  C  C51  1  0.83920000  0.46450000  0.91770000  1
  C  C52  1  0.11260000  0.88210000  0.45590000  1
  C  C53  1  0.11260000  0.45590000  0.88210000  1
  C  C54  1  0.25550000  0.81690000  0.49810000  1
  C  C55  1  0.25550000  0.49810000  0.81690000  1
  C  C56  1  0.19130000  0.82020000  0.45660000  1
  C  C57  1  0.19130000  0.45660000  0.82020000  1
  C  C58  1  0.32800000  0.75340000  0.50020000  1
  C  C59  1  0.32800000  0.50020000  0.75340000  1
  C  C60  1  0.63720000  0.66730000  0.57070000  1
  C  C61  1  0.63720000  0.57070000  0.66730000  1
  C  C62  1  0.61800000  0.71770000  0.49470000  1
  C  C63  1  0.61800000  0.49470000  0.71770000  1
  C  C64  1  0.19570000  0.76330000  0.40970000  1
  C  C65  1  0.19570000  0.40970000  0.76330000  1
  C  C66  1  0.32800000  0.69590000  0.46170000  1
  C  C67  1  0.32800000  0.46170000  0.69590000  1
  C  C68  1  0.26610000  0.70080000  0.41580000  1
  C  C69  1  0.26610000  0.41580000  0.70080000  1
  C  C70  1  0.39690000  0.62440000  0.46960000  1
  C  C71  1  0.39690000  0.46960000  0.62440000  1
  Cu  Cu72  1  0.45797000  0.46182000  0.46182000  1
  Cu  Cu73  1  0.24714000  0.23479000  0.38651000  1
  Cu  Cu74  1  0.24714000  0.38651000  0.23479000  1
  Cu  Cu75  1  0.84891000  0.76073000  0.76073000  1
  Cu  Cu76  1  0.00000000  0.00000000  0.50000000  1
  Cu  Cu77  1  0.00000000  0.50000000  1.00000000  1
  Cu  Cu78  1  0.15109000  0.23927000  0.23927000  1
  Cu  Cu79  1  0.75286000  0.76521000  0.61349000  1
  Cu  Cu80  1  0.75286000  0.61349000  0.76521000  1
  Cu  Cu81  1  0.54203000  0.53818000  0.53818000  1
  H  H82  1  0.73010000  0.33880000  0.61320000  1
  H  H83  1  0.73010000  0.61320000  0.33880000  1
  H  H84  1  0.36930000  0.31360000  0.54580000  1
  H  H85  1  0.36930000  0.54580000  0.31360000  1
  H  H86  1  0.84520000  0.23350000  0.62330000  1
  H  H87  1  0.84520000  0.62330000  0.23350000  1
  H  H88  1  0.44220000  0.26000000  0.50040000  1
  H  H89  1  0.44220000  0.50040000  0.26000000  1
  H  H90  1  0.34700000  0.24070000  0.51910000  1
  H  H91  1  0.34700000  0.51910000  0.24070000  1
  H  H92  1  0.62680000  0.24700000  0.47220000  1
  H  H93  1  0.62680000  0.47220000  0.24700000  1
  H  H94  1  0.18500000  0.12390000  0.54750000  1
  H  H95  1  0.18500000  0.54750000  0.12390000  1
  H  H96  1  0.13700000  0.33331667  0.33331667  1
  H  H97  1  0.97830000  0.95700000  0.69700000  1
  H  H98  1  0.97830000  0.69700000  0.95700000  1
  H  H99  1  0.11060000  0.07160000  0.57340000  1
  H  H100  1  0.11060000  0.57340000  0.07160000  1
  H  H101  1  0.38140000  0.07550000  0.55730000  1
  H  H102  1  0.38140000  0.55730000  0.07550000  1
  H  H103  1  0.74650000  0.14340000  0.47360000  1
  H  H104  1  0.74650000  0.47360000  0.14340000  1
  H  H105  1  0.47540000  0.98320000  0.63180000  1
  H  H106  1  0.47540000  0.63180000  0.98320000  1
  H  H107  1  0.98700000  0.86850000  0.73970000  1
  H  H108  1  0.98700000  0.73970000  0.86850000  1
  H  H109  1  0.20310000  0.03560000  0.53720000  1
  H  H110  1  0.20310000  0.53720000  0.03560000  1
  H  H111  1  0.05040000  0.89440000  0.66280000  1
  H  H112  1  0.05040000  0.66280000  0.89440000  1
  H  H113  1  0.94960000  0.10560000  0.33720000  1
  H  H114  1  0.94960000  0.33720000  0.10560000  1
  H  H115  1  0.79690000  0.96440000  0.46280000  1
  H  H116  1  0.79690000  0.46280000  0.96440000  1
  H  H117  1  0.01300000  0.13150000  0.26030000  1
  H  H118  1  0.01300000  0.26030000  0.13150000  1
  H  H119  1  0.52460000  0.01680000  0.36820000  1
  H  H120  1  0.52460000  0.36820000  0.01680000  1
  H  H121  1  0.25350000  0.85660000  0.52640000  1
  H  H122  1  0.25350000  0.52640000  0.85660000  1
  H  H123  1  0.61860000  0.92450000  0.44270000  1
  H  H124  1  0.61860000  0.44270000  0.92450000  1
  H  H125  1  0.88940000  0.92840000  0.42660000  1
  H  H126  1  0.88940000  0.42660000  0.92840000  1
  H  H127  1  0.02170000  0.04300000  0.30300000  1
  H  H128  1  0.02170000  0.30300000  0.04300000  1
  H  H129  1  0.86300000  0.66668333  0.66668333  1
  H  H130  1  0.81500000  0.87610000  0.45250000  1
  H  H131  1  0.81500000  0.45250000  0.87610000  1
  H  H132  1  0.37320000  0.75300000  0.52780000  1
  H  H133  1  0.37320000  0.52780000  0.75300000  1
  H  H134  1  0.65300000  0.75930000  0.48090000  1
  H  H135  1  0.65300000  0.48090000  0.75930000  1
  H  H136  1  0.55780000  0.74000000  0.49960000  1
  H  H137  1  0.55780000  0.49960000  0.74000000  1
  H  H138  1  0.15480000  0.76650000  0.37670000  1
  H  H139  1  0.15480000  0.37670000  0.76650000  1
  H  H140  1  0.63070000  0.68640000  0.45420000  1
  H  H141  1  0.63070000  0.45420000  0.68640000  1
  H  H142  1  0.26990000  0.66120000  0.38680000  1
  H  H143  1  0.26990000  0.38680000  0.66120000  1
  N  N144  1  0.39380000  0.40290000  0.40290000  1
  N  N145  1  0.31770000  0.31620000  0.37920000  1
  N  N146  1  0.31770000  0.37920000  0.31620000  1
  N  N147  1  0.16710000  0.15930000  0.39550000  1
  N  N148  1  0.16710000  0.39550000  0.15930000  1
  N  N149  1  0.07100000  0.07720000  0.43340000  1
  N  N150  1  0.07100000  0.43340000  0.07720000  1
  N  N151  1  0.87510000  0.83810000  0.66590000  1
  N  N152  1  0.87510000  0.66590000  0.83810000  1
  N  N153  1  0.12490000  0.16190000  0.33410000  1
  N  N154  1  0.12490000  0.33410000  0.16190000  1
  N  N155  1  0.92900000  0.92280000  0.56660000  1
  N  N156  1  0.92900000  0.56660000  0.92280000  1
  N  N157  1  0.83290000  0.84070000  0.60450000  1
  N  N158  1  0.83290000  0.60450000  0.84070000  1
  N  N159  1  0.68230000  0.68380000  0.62080000  1
  N  N160  1  0.68230000  0.62080000  0.68380000  1
  N  N161  1  0.60620000  0.59710000  0.59710000  1
  O  O162  1  0.61420000  0.43550000  0.55790000  1
  O  O163  1  0.61420000  0.55790000  0.43550000  1
  O  O164  1  0.54450000  0.37160000  0.49480000  1
  O  O165  1  0.54450000  0.49480000  0.37160000  1
  O  O166  1  0.93660000  0.10450000  0.59170000  1
  O  O167  1  0.93660000  0.59170000  0.10450000  1
  O  O168  1  0.18170000  0.30630000  0.30630000  1
  O  O169  1  0.32680000  0.15350000  0.44170000  1
  O  O170  1  0.32680000  0.44170000  0.15350000  1
  O  O171  1  0.89570000  0.07960000  0.48960000  1
  O  O172  1  0.89570000  0.48960000  0.07960000  1
  O  O173  1  0.59960000  0.87950000  0.66910000  1
  O  O174  1  0.59960000  0.66910000  0.87950000  1
  O  O175  1  0.40040000  0.12050000  0.33090000  1
  O  O176  1  0.40040000  0.33090000  0.12050000  1
  O  O177  1  0.10430000  0.92040000  0.51040000  1
  O  O178  1  0.10430000  0.51040000  0.92040000  1
  O  O179  1  0.67320000  0.84650000  0.55830000  1
  O  O180  1  0.67320000  0.55830000  0.84650000  1
  O  O181  1  0.81830000  0.69370000  0.69370000  1
  O  O182  1  0.06340000  0.89550000  0.40830000  1
  O  O183  1  0.06340000  0.40830000  0.89550000  1
  O  O184  1  0.45550000  0.62840000  0.50520000  1
  O  O185  1  0.45550000  0.50520000  0.62840000  1
  O  O186  1  0.38580000  0.56450000  0.44210000  1
  O  O187  1  0.38580000  0.44210000  0.56450000  1
