# generated using pymatgen
data_Mn3H8C15N6O7
_symmetry_space_group_name_H-M   'P 1'
_cell_length_a   14.09500000
_cell_length_b   14.20800000
_cell_length_c   15.11700000
_cell_angle_alpha   105.31000000
_cell_angle_beta   90.00000000
_cell_angle_gamma   90.00000000
_symmetry_Int_Tables_number   1
_chemical_formula_structural   Mn3H8C15N6O7
_chemical_formula_sum   'Mn12 H32 C60 N24 O28'
_cell_volume   2919.92020968
_cell_formula_units_Z   4
loop_
 _symmetry_equiv_pos_site_id
 _symmetry_equiv_pos_as_xyz
  1  'x, y, z'
loop_
 _atom_site_type_symbol
 _atom_site_label
 _atom_site_symmetry_multiplicity
 _atom_site_fract_x
 _atom_site_fract_y
 _atom_site_fract_z
 _atom_site_occupancy
  Mn  Mn0  1  0.00000000  0.00000000  0.00000000  1
  Mn  Mn1  1  0.50000000  0.00000000  0.50000000  1
  Mn  Mn2  1  0.47585000  0.75203000  0.51657000  1
  Mn  Mn3  1  0.02415000  0.75203000  0.01657000  1
  Mn  Mn4  1  0.85496000  0.66975000  0.15956000  1
  Mn  Mn5  1  0.64504000  0.66975000  0.65956000  1
  Mn  Mn6  1  0.00000000  0.50000000  0.00000000  1
  Mn  Mn7  1  0.50000000  0.50000000  0.50000000  1
  Mn  Mn8  1  0.35496000  0.33025000  0.34044000  1
  Mn  Mn9  1  0.14504000  0.33025000  0.84044000  1
  Mn  Mn10  1  0.97585000  0.24797000  0.98343000  1
  Mn  Mn11  1  0.52415000  0.24797000  0.48343000  1
  H  H12  1  0.75990000  0.89880000  0.81990000  1
  H  H13  1  0.74010000  0.89880000  0.31990000  1
  H  H14  1  0.36120000  0.85920000  0.31700000  1
  H  H15  1  0.13880000  0.85920000  0.81700000  1
  H  H16  1  0.92430000  0.83450000  0.81710000  1
  H  H17  1  0.57570000  0.83450000  0.31710000  1
  H  H18  1  0.25140000  0.81920000  0.19750000  1
  H  H19  1  0.24860000  0.81920000  0.69750000  1
  H  H20  1  0.25180000  0.79780000  0.92720000  1
  H  H21  1  0.24820000  0.79780000  0.42720000  1
  H  H22  1  0.38250000  0.76990000  0.82970000  1
  H  H23  1  0.11750000  0.76990000  0.32970000  1
  H  H24  1  0.89400000  0.64400000  0.98100000  1
  H  H25  1  0.60600000  0.64400000  0.48100000  1
  H  H26  1  0.81670000  0.51950000  0.76640000  1
  H  H27  1  0.68330000  0.51950000  0.26640000  1
  H  H28  1  0.31670000  0.48050000  0.73360000  1
  H  H29  1  0.18330000  0.48050000  0.23360000  1
  H  H30  1  0.39400000  0.35600000  0.51900000  1
  H  H31  1  0.10600000  0.35600000  0.01900000  1
  H  H32  1  0.88250000  0.23010000  0.67030000  1
  H  H33  1  0.61750000  0.23010000  0.17030000  1
  H  H34  1  0.75180000  0.20220000  0.57280000  1
  H  H35  1  0.74820000  0.20220000  0.07280000  1
  H  H36  1  0.75140000  0.18080000  0.30250000  1
  H  H37  1  0.74860000  0.18080000  0.80250000  1
  H  H38  1  0.42430000  0.16550000  0.68290000  1
  H  H39  1  0.07570000  0.16550000  0.18290000  1
  H  H40  1  0.86120000  0.14080000  0.18300000  1
  H  H41  1  0.63880000  0.14080000  0.68300000  1
  H  H42  1  0.25990000  0.10120000  0.68010000  1
  H  H43  1  0.24010000  0.10120000  0.18010000  1
  C  C44  1  0.86430000  0.99460000  0.17870000  1
  C  C45  1  0.63570000  0.99460000  0.67870000  1
  C  C46  1  0.26330000  0.95630000  0.67790000  1
  C  C47  1  0.23670000  0.95630000  0.17790000  1
  C  C48  1  0.76390000  0.94670000  0.29220000  1
  C  C49  1  0.73610000  0.94670000  0.79220000  1
  C  C50  1  0.33700000  0.92470000  0.60400000  1
  C  C51  1  0.16300000  0.92470000  0.10400000  1
  C  C52  1  0.82850000  0.92260000  0.21860000  1
  C  C53  1  0.67150000  0.92260000  0.71860000  1
  C  C54  1  0.33670000  0.90760000  0.29030000  1
  C  C55  1  0.16330000  0.90760000  0.79030000  1
  C  C56  1  0.27250000  0.88470000  0.21940000  1
  C  C57  1  0.22750000  0.88470000  0.71940000  1
  C  C58  1  0.93940000  0.80200000  0.86270000  1
  C  C59  1  0.56060000  0.80200000  0.36270000  1
  C  C60  1  0.26540000  0.73440000  0.88940000  1
  C  C61  1  0.23460000  0.73440000  0.38940000  1
  C  C62  1  0.34080000  0.71760000  0.83050000  1
  C  C63  1  0.15920000  0.71760000  0.33050000  1
  C  C64  1  0.29070000  0.65350000  0.39110000  1
  C  C65  1  0.20930000  0.65350000  0.89110000  1
  C  C66  1  0.35860000  0.62360000  0.77020000  1
  C  C67  1  0.14140000  0.62360000  0.27020000  1
  C  C68  1  0.43640000  0.61330000  0.70000000  1
  C  C69  1  0.06360000  0.61330000  0.20000000  1
  C  C70  1  0.26980000  0.55980000  0.33680000  1
  C  C71  1  0.23020000  0.55980000  0.83680000  1
  C  C72  1  0.30440000  0.54340000  0.77290000  1
  C  C73  1  0.19560000  0.54340000  0.27290000  1
  C  C74  1  0.80440000  0.45660000  0.72710000  1
  C  C75  1  0.69560000  0.45660000  0.22710000  1
  C  C76  1  0.76980000  0.44020000  0.16320000  1
  C  C77  1  0.73020000  0.44020000  0.66320000  1
  C  C78  1  0.93640000  0.38670000  0.80000000  1
  C  C79  1  0.56360000  0.38670000  0.30000000  1
  C  C80  1  0.85860000  0.37640000  0.72980000  1
  C  C81  1  0.64140000  0.37640000  0.22980000  1
  C  C82  1  0.79070000  0.34650000  0.10890000  1
  C  C83  1  0.70930000  0.34650000  0.60890000  1
  C  C84  1  0.84080000  0.28240000  0.66950000  1
  C  C85  1  0.65920000  0.28240000  0.16950000  1
  C  C86  1  0.76540000  0.26560000  0.61060000  1
  C  C87  1  0.73460000  0.26560000  0.11060000  1
  C  C88  1  0.43940000  0.19800000  0.63730000  1
  C  C89  1  0.06060000  0.19800000  0.13730000  1
  C  C90  1  0.77250000  0.11530000  0.28060000  1
  C  C91  1  0.72750000  0.11530000  0.78060000  1
  C  C92  1  0.83670000  0.09240000  0.20970000  1
  C  C93  1  0.66330000  0.09240000  0.70970000  1
  C  C94  1  0.32850000  0.07740000  0.28140000  1
  C  C95  1  0.17150000  0.07740000  0.78140000  1
  C  C96  1  0.83700000  0.07530000  0.89600000  1
  C  C97  1  0.66300000  0.07530000  0.39600000  1
  C  C98  1  0.26390000  0.05330000  0.20780000  1
  C  C99  1  0.23610000  0.05330000  0.70780000  1
  C  C100  1  0.76330000  0.04370000  0.82210000  1
  C  C101  1  0.73670000  0.04370000  0.32210000  1
  C  C102  1  0.36430000  0.00540000  0.32130000  1
  C  C103  1  0.13570000  0.00540000  0.82130000  1
  N  N104  1  0.92390000  0.94940000  0.11020000  1
  N  N105  1  0.57610000  0.94940000  0.61020000  1
  N  N106  1  0.92420000  0.85480000  0.10870000  1
  N  N107  1  0.57580000  0.85480000  0.60870000  1
  N  N108  1  0.86740000  0.83510000  0.17160000  1
  N  N109  1  0.63260000  0.83510000  0.67160000  1
  N  N110  1  0.36950000  0.64630000  0.44190000  1
  N  N111  1  0.13050000  0.64630000  0.94190000  1
  N  N112  1  0.39180000  0.55190000  0.42030000  1
  N  N113  1  0.10820000  0.55190000  0.92030000  1
  N  N114  1  0.83450000  0.50340000  0.14150000  1
  N  N115  1  0.66550000  0.50340000  0.64150000  1
  N  N116  1  0.33450000  0.49660000  0.35850000  1
  N  N117  1  0.16550000  0.49660000  0.85850000  1
  N  N118  1  0.89180000  0.44810000  0.07970000  1
  N  N119  1  0.60820000  0.44810000  0.57970000  1
  N  N120  1  0.86950000  0.35370000  0.05810000  1
  N  N121  1  0.63050000  0.35370000  0.55810000  1
  N  N122  1  0.36740000  0.16490000  0.32840000  1
  N  N123  1  0.13260000  0.16490000  0.82840000  1
  N  N124  1  0.42420000  0.14520000  0.39130000  1
  N  N125  1  0.07580000  0.14520000  0.89130000  1
  N  N126  1  0.42390000  0.05060000  0.38980000  1
  N  N127  1  0.07610000  0.05060000  0.88980000  1
  O  O128  1  0.36610000  0.98720000  0.56440000  1
  O  O129  1  0.13390000  0.98720000  0.06440000  1
  O  O130  1  0.49780000  0.84090000  0.42290000  1
  O  O131  1  0.00220000  0.84090000  0.92290000  1
  O  O132  1  0.36470000  0.83730000  0.58800000  1
  O  O133  1  0.13530000  0.83730000  0.08800000  1
  O  O134  1  0.89760000  0.72560000  0.86030000  1
  O  O135  1  0.60240000  0.72560000  0.36030000  1
  O  O136  1  0.99170000  0.66760000  0.22150000  1
  O  O137  1  0.50830000  0.66760000  0.72150000  1
  O  O138  1  0.92720000  0.64110000  0.02710000  1
  O  O139  1  0.57280000  0.64110000  0.52710000  1
  O  O140  1  0.42160000  0.55080000  0.62460000  1
  O  O141  1  0.07840000  0.55080000  0.12460000  1
  O  O142  1  0.92160000  0.44920000  0.87540000  1
  O  O143  1  0.57840000  0.44920000  0.37540000  1
  O  O144  1  0.42720000  0.35890000  0.47290000  1
  O  O145  1  0.07280000  0.35890000  0.97290000  1
  O  O146  1  0.49170000  0.33240000  0.27850000  1
  O  O147  1  0.00830000  0.33240000  0.77850000  1
  O  O148  1  0.39760000  0.27440000  0.63970000  1
  O  O149  1  0.10240000  0.27440000  0.13970000  1
  O  O150  1  0.86470000  0.16270000  0.91200000  1
  O  O151  1  0.63530000  0.16270000  0.41200000  1
  O  O152  1  0.99780000  0.15910000  0.07710000  1
  O  O153  1  0.50220000  0.15910000  0.57710000  1
  O  O154  1  0.86610000  0.01280000  0.93560000  1
  O  O155  1  0.63390000  0.01280000  0.43560000  1
