# generated using pymatgen
data_Co3H8(C6O5)4
_symmetry_space_group_name_H-M   'P 1'
_cell_length_a   8.25820000
_cell_length_b   12.79490000
_cell_length_c   18.20060000
_cell_angle_alpha   107.77800000
_cell_angle_beta   90.00000000
_cell_angle_gamma   90.00000000
_symmetry_Int_Tables_number   1
_chemical_formula_structural   Co3H8(C6O5)4
_chemical_formula_sum   'Co6 H16 C48 O40'
_cell_volume   1831.29147831
_cell_formula_units_Z   2
loop_
 _symmetry_equiv_pos_site_id
 _symmetry_equiv_pos_as_xyz
  1  'x, y, z'
loop_
 _atom_site_type_symbol
 _atom_site_label
 _atom_site_symmetry_multiplicity
 _atom_site_fract_x
 _atom_site_fract_y
 _atom_site_fract_z
 _atom_site_occupancy
  Co  Co0  1  0.00000000  0.00000000  0.50000000  1
  Co  Co1  1  0.50000000  0.00000000  0.00000000  1
  Co  Co2  1  0.30963000  0.74144000  0.94166000  1
  Co  Co3  1  0.19037000  0.74144000  0.44166000  1
  Co  Co4  1  0.80963000  0.25856000  0.55834000  1
  Co  Co5  1  0.69037000  0.25856000  0.05834000  1
  H  H6  1  0.86320000  0.93570000  0.65190000  1
  H  H7  1  0.63680000  0.93570000  0.15190000  1
  H  H8  1  0.78060000  0.89960000  0.77530000  1
  H  H9  1  0.71940000  0.89960000  0.27530000  1
  H  H10  1  0.92480000  0.83510000  0.10440000  1
  H  H11  1  0.57520000  0.83510000  0.60440000  1
  H  H12  1  0.45390000  0.68010000  0.64330000  1
  H  H13  1  0.04610000  0.68010000  0.14330000  1
  H  H14  1  0.95390000  0.31990000  0.85670000  1
  H  H15  1  0.54610000  0.31990000  0.35670000  1
  H  H16  1  0.42480000  0.16490000  0.39560000  1
  H  H17  1  0.07520000  0.16490000  0.89560000  1
  H  H18  1  0.28060000  0.10040000  0.72470000  1
  H  H19  1  0.21940000  0.10040000  0.22470000  1
  H  H20  1  0.36320000  0.06430000  0.84810000  1
  H  H21  1  0.13680000  0.06430000  0.34810000  1
  C  C22  1  0.83760000  0.98800000  0.69849000  1
  C  C23  1  0.66240000  0.98800000  0.19849000  1
  C  C24  1  0.79190000  0.96790000  0.76766000  1
  C  C25  1  0.70810000  0.96790000  0.26766000  1
  C  C26  1  0.26750000  0.93330000  0.67928000  1
  C  C27  1  0.23250000  0.93330000  0.17928000  1
  C  C28  1  0.28770000  0.90430000  0.09827000  1
  C  C29  1  0.21230000  0.90430000  0.59827000  1
  C  C30  1  0.33680000  0.90190000  0.78688000  1
  C  C31  1  0.16320000  0.90190000  0.28688000  1
  C  C32  1  0.35430000  0.83290000  0.83802000  1
  C  C33  1  0.14570000  0.83290000  0.33802000  1
  C  C34  1  0.85810000  0.76910000  0.50270000  1
  C  C35  1  0.64190000  0.76910000  0.00270000  1
  C  C36  1  0.88890000  0.76270000  0.08972000  1
  C  C37  1  0.61110000  0.76270000  0.58972000  1
  C  C38  1  0.76240000  0.72120000  0.04331000  1
  C  C39  1  0.73760000  0.72120000  0.54331000  1
  C  C40  1  0.95630000  0.67590000  0.11170000  1
  C  C41  1  0.54370000  0.67590000  0.61170000  1
  C  C42  1  0.86780000  0.58630000  0.07905000  1
  C  C43  1  0.63220000  0.58630000  0.57905000  1
  C  C44  1  0.37220000  0.52700000  0.41572000  1
  C  C45  1  0.12780000  0.52700000  0.91572000  1
  C  C46  1  0.87220000  0.47300000  0.08428000  1
  C  C47  1  0.62780000  0.47300000  0.58428000  1
  C  C48  1  0.36780000  0.41370000  0.42095000  1
  C  C49  1  0.13220000  0.41370000  0.92095000  1
  C  C50  1  0.45630000  0.32410000  0.38830000  1
  C  C51  1  0.04370000  0.32410000  0.88830000  1
  C  C52  1  0.26240000  0.27880000  0.45669000  1
  C  C53  1  0.23760000  0.27880000  0.95669000  1
  C  C54  1  0.38890000  0.23730000  0.41028000  1
  C  C55  1  0.11110000  0.23730000  0.91028000  1
  C  C56  1  0.35810000  0.23090000  0.99730000  1
  C  C57  1  0.14190000  0.23090000  0.49730000  1
  C  C58  1  0.85430000  0.16710000  0.66198000  1
  C  C59  1  0.64570000  0.16710000  0.16198000  1
  C  C60  1  0.83680000  0.09810000  0.71312000  1
  C  C61  1  0.66320000  0.09810000  0.21312000  1
  C  C62  1  0.78770000  0.09570000  0.40173000  1
  C  C63  1  0.71230000  0.09570000  0.90173000  1
  C  C64  1  0.76750000  0.06670000  0.82072000  1
  C  C65  1  0.73250000  0.06670000  0.32072000  1
  C  C66  1  0.29190000  0.03210000  0.73234000  1
  C  C67  1  0.20810000  0.03210000  0.23234000  1
  C  C68  1  0.33760000  0.01200000  0.80151000  1
  C  C69  1  0.16240000  0.01200000  0.30151000  1
  O  O70  1  0.32840000  0.98472000  0.07675000  1
  O  O71  1  0.17160000  0.98472000  0.57675000  1
  O  O72  1  0.37130000  0.88187000  0.91027000  1
  O  O73  1  0.12870000  0.88187000  0.41027000  1
  O  O74  1  0.85880000  0.87151000  0.51962000  1
  O  O75  1  0.64120000  0.87151000  0.01962000  1
  O  O76  1  0.29480000  0.85112000  0.71144000  1
  O  O77  1  0.20520000  0.85112000  0.21144000  1
  O  O78  1  0.28840000  0.80385000  0.05920000  1
  O  O79  1  0.21160000  0.80385000  0.55920000  1
  O  O80  1  0.33890000  0.73111000  0.81341000  1
  O  O81  1  0.16110000  0.73111000  0.31341000  1
  O  O82  1  0.95090000  0.70204000  0.45467000  1
  O  O83  1  0.54910000  0.70204000  0.95467000  1
  O  O84  1  0.75380000  0.61079000  0.53536000  1
  O  O85  1  0.74620000  0.61079000  0.03536000  1
  O  O86  1  0.25540000  0.58348000  0.93520000  1
  O  O87  1  0.24460000  0.58348000  0.43520000  1
  O  O88  1  0.99930000  0.55723000  0.89097000  1
  O  O89  1  0.50070000  0.55723000  0.39097000  1
  O  O90  1  0.49930000  0.44277000  0.60903000  1
  O  O91  1  0.00070000  0.44277000  0.10903000  1
  O  O92  1  0.75540000  0.41652000  0.56480000  1
  O  O93  1  0.74460000  0.41652000  0.06480000  1
  O  O94  1  0.25380000  0.38921000  0.96464000  1
  O  O95  1  0.24620000  0.38921000  0.46464000  1
  O  O96  1  0.45090000  0.29796000  0.04533000  1
  O  O97  1  0.04910000  0.29796000  0.54533000  1
  O  O98  1  0.83890000  0.26889000  0.68659000  1
  O  O99  1  0.66110000  0.26889000  0.18659000  1
  O  O100  1  0.78840000  0.19615000  0.44080000  1
  O  O101  1  0.71160000  0.19615000  0.94080000  1
  O  O102  1  0.79480000  0.14888000  0.78856000  1
  O  O103  1  0.70520000  0.14888000  0.28856000  1
  O  O104  1  0.35880000  0.12849000  0.98038000  1
  O  O105  1  0.14120000  0.12849000  0.48038000  1
  O  O106  1  0.87130000  0.11813000  0.58973000  1
  O  O107  1  0.62870000  0.11813000  0.08973000  1
  O  O108  1  0.82840000  0.01528000  0.42325000  1
  O  O109  1  0.67160000  0.01528000  0.92325000  1
