# generated using pymatgen
data_CdH20C26(N2O3)2
_symmetry_space_group_name_H-M   'P 1'
_cell_length_a   9.36100000
_cell_length_b   12.71300000
_cell_length_c   12.75500000
_cell_angle_alpha   111.84300000
_cell_angle_beta   105.93800000
_cell_angle_gamma   97.10400000
_symmetry_Int_Tables_number   1
_chemical_formula_structural   CdH20C26(N2O3)2
_chemical_formula_sum   'Cd2 H40 C52 N8 O12'
_cell_volume   1310.70092059
_cell_formula_units_Z   2
loop_
 _symmetry_equiv_pos_site_id
 _symmetry_equiv_pos_as_xyz
  1  'x, y, z'
loop_
 _atom_site_type_symbol
 _atom_site_label
 _atom_site_symmetry_multiplicity
 _atom_site_fract_x
 _atom_site_fract_y
 _atom_site_fract_z
 _atom_site_occupancy
  Cd  Cd0  1  0.01485000  0.39669000  0.57774000  1
  Cd  Cd1  1  0.98515000  0.60331000  0.42226000  1
  H  H2  1  0.02900000  0.20420000  0.99030000  1
  H  H3  1  0.06400000  0.06110000  0.63390000  1
  H  H4  1  0.08420000  0.89450000  0.21400000  1
  H  H5  1  0.13510000  0.86510000  0.66040000  1
  H  H6  1  0.15060000  0.26220000  0.36230000  1
  H  H7  1  0.16480000  0.09730000  0.30590000  1
  H  H8  1  0.18190000  0.65750000  0.82380000  1
  H  H9  1  0.22520000  0.85340000  0.40710000  1
  H  H10  1  0.22940000  0.14120000  0.71410000  1
  H  H11  1  0.24050000  0.98910000  0.88520000  1
  H  H12  1  0.29090000  0.77320000  0.04050000  1
  H  H13  1  0.30160000  0.32880000  0.35970000  1
  H  H14  1  0.32500000  0.71640000  0.29390000  1
  H  H15  1  0.33480000  0.17090000  0.04710000  1
  H  H16  1  0.37480000  0.64740000  0.55290000  1
  H  H17  1  0.38810000  0.95640000  0.20260000  1
  H  H18  1  0.40490000  0.39520000  0.14630000  1
  H  H19  1  0.40670000  0.43940000  0.67920000  1
  H  H20  1  0.41790000  0.23860000  0.68860000  1
  H  H21  1  0.44400000  0.17650000  0.28020000  1
  H  H22  1  0.55600000  0.82350000  0.71980000  1
  H  H23  1  0.58210000  0.76140000  0.31140000  1
  H  H24  1  0.59330000  0.56060000  0.32080000  1
  H  H25  1  0.59510000  0.60480000  0.85370000  1
  H  H26  1  0.61190000  0.04360000  0.79740000  1
  H  H27  1  0.62520000  0.35260000  0.44710000  1
  H  H28  1  0.66520000  0.82910000  0.95290000  1
  H  H29  1  0.67500000  0.28360000  0.70610000  1
  H  H30  1  0.69840000  0.67120000  0.64030000  1
  H  H31  1  0.70910000  0.22680000  0.95950000  1
  H  H32  1  0.75950000  0.01090000  0.11480000  1
  H  H33  1  0.77060000  0.85880000  0.28590000  1
  H  H34  1  0.77480000  0.14660000  0.59290000  1
  H  H35  1  0.81810000  0.34250000  0.17620000  1
  H  H36  1  0.83520000  0.90270000  0.69410000  1
  H  H37  1  0.84940000  0.73780000  0.63770000  1
  H  H38  1  0.86490000  0.13490000  0.33960000  1
  H  H39  1  0.91580000  0.10550000  0.78600000  1
  H  H40  1  0.93600000  0.93890000  0.36610000  1
  H  H41  1  0.97100000  0.79580000  0.00970000  1
  C  C42  1  0.00100000  0.87720000  0.04510000  1
  C  C43  1  0.02490000  0.06180000  0.02780000  1
  C  C44  1  0.06950000  0.93630000  0.16720000  1
  C  C45  1  0.09500000  0.11850000  0.15370000  1
  C  C46  1  0.10690000  0.20920000  0.60720000  1
  C  C47  1  0.11770000  0.05780000  0.22270000  1
  C  C48  1  0.13320000  0.41650000  0.35110000  1
  C  C49  1  0.15330000  0.10850000  0.63370000  1
  C  C50  1  0.19040000  0.30760000  0.32530000  1
  C  C51  1  0.21750000  0.83220000  0.65380000  1
  C  C52  1  0.26070000  0.62320000  0.80920000  1
  C  C53  1  0.32760000  0.87260000  0.41400000  1
  C  C54  1  0.33500000  0.03640000  0.90100000  1
  C  C55  1  0.34920000  0.71480000  0.59560000  1
  C  C56  1  0.36710000  0.07290000  0.56860000  1
  C  C57  1  0.38430000  0.82100000  0.05470000  1
  C  C58  1  0.38470000  0.50420000  0.73060000  1
  C  C59  1  0.38750000  0.79090000  0.34670000  1
  C  C60  1  0.39130000  0.14500000  0.99720000  1
  C  C61  1  0.42090000  0.99850000  0.82830000  1
  C  C62  1  0.42140000  0.98550000  0.49370000  1
  C  C63  1  0.44260000  0.93060000  0.15110000  1
  C  C64  1  0.45000000  0.81070000  0.68860000  1
  C  C65  1  0.45780000  0.18190000  0.64360000  1
  C  C66  1  0.46910000  0.78410000  0.97980000  1
  C  C67  1  0.48940000  0.59560000  0.82680000  1
  C  C68  1  0.51060000  0.40440000  0.17320000  1
  C  C69  1  0.53090000  0.21590000  0.02020000  1
  C  C70  1  0.54220000  0.81810000  0.35640000  1
  C  C71  1  0.55000000  0.18930000  0.31140000  1
  C  C72  1  0.55740000  0.06940000  0.84890000  1
  C  C73  1  0.57860000  0.01450000  0.50630000  1
  C  C74  1  0.57910000  0.00150000  0.17170000  1
  C  C75  1  0.60870000  0.85500000  0.00280000  1
  C  C76  1  0.61250000  0.20910000  0.65330000  1
  C  C77  1  0.61530000  0.49580000  0.26940000  1
  C  C78  1  0.61570000  0.17900000  0.94530000  1
  C  C79  1  0.63290000  0.92710000  0.43140000  1
  C  C80  1  0.65080000  0.28520000  0.40440000  1
  C  C81  1  0.66500000  0.96360000  0.09900000  1
  C  C82  1  0.67240000  0.12740000  0.58600000  1
  C  C83  1  0.73930000  0.37680000  0.19080000  1
  C  C84  1  0.78250000  0.16780000  0.34620000  1
  C  C85  1  0.80960000  0.69240000  0.67470000  1
  C  C86  1  0.84670000  0.89150000  0.36630000  1
  C  C87  1  0.86680000  0.58350000  0.64890000  1
  C  C88  1  0.88230000  0.94220000  0.77730000  1
  C  C89  1  0.89310000  0.79080000  0.39280000  1
  C  C90  1  0.90500000  0.88150000  0.84630000  1
  C  C91  1  0.93050000  0.06370000  0.83280000  1
  C  C92  1  0.97510000  0.93820000  0.97220000  1
  C  C93  1  0.99900000  0.12280000  0.95490000  1
  N  N94  1  0.20430000  0.73030000  0.57280000  1
  N  N95  1  0.23830000  0.52170000  0.72000000  1
  N  N96  1  0.36260000  0.88570000  0.72760000  1
  N  N97  1  0.41060000  0.67280000  0.87780000  1
  N  N98  1  0.58940000  0.32720000  0.12220000  1
  N  N99  1  0.63740000  0.11430000  0.27240000  1
  N  N100  1  0.76170000  0.47830000  0.28000000  1
  N  N101  1  0.79570000  0.26970000  0.42720000  1
  O  O102  1  0.05100000  0.27440000  0.67760000  1
  O  O103  1  0.10430000  0.45460000  0.44620000  1
  O  O104  1  0.11270000  0.46520000  0.28300000  1
  O  O105  1  0.12290000  0.22200000  0.51950000  1
  O  O106  1  0.14240000  0.23880000  0.19860000  1
  O  O107  1  0.21370000  0.03460000  0.55300000  1
  O  O108  1  0.78630000  0.96540000  0.44700000  1
  O  O109  1  0.85760000  0.76120000  0.80140000  1
  O  O110  1  0.87710000  0.77800000  0.48050000  1
  O  O111  1  0.88730000  0.53480000  0.71700000  1
  O  O112  1  0.89570000  0.54540000  0.55380000  1
  O  O113  1  0.94900000  0.72560000  0.32240000  1
