# generated using pymatgen
data_CaC8(OF)4
_symmetry_space_group_name_H-M   'P 1'
_cell_length_a   7.84300000
_cell_length_b   10.40663851
_cell_length_c   10.40663851
_cell_angle_alpha   116.51447769
_cell_angle_beta   96.45055827
_cell_angle_gamma   96.45055827
_symmetry_Int_Tables_number   1
_chemical_formula_structural   CaC8(OF)4
_chemical_formula_sum   'Ca2 C16 O8 F8'
_cell_volume   742.51423500
_cell_formula_units_Z   2
loop_
 _symmetry_equiv_pos_site_id
 _symmetry_equiv_pos_as_xyz
  1  'x, y, z'
loop_
 _atom_site_type_symbol
 _atom_site_label
 _atom_site_symmetry_multiplicity
 _atom_site_fract_x
 _atom_site_fract_y
 _atom_site_fract_z
 _atom_site_occupancy
  C  C0  1  0.00600000  0.63500000  0.11020000  1
  C  C1  1  0.50600000  0.11020000  0.63500000  1
  C  C2  1  0.09250000  0.75900000  0.95900000  1
  C  C3  1  0.59250000  0.95900000  0.75900000  1
  C  C4  1  0.96210000  0.51350000  0.12890000  1
  C  C5  1  0.46210000  0.12890000  0.51350000  1
  C  C6  1  0.04410000  0.62580000  0.97940000  1
  C  C7  1  0.54410000  0.97940000  0.62580000  1
  C  C8  1  0.95590000  0.37420000  0.02060000  1
  C  C9  1  0.45590000  0.02060000  0.37420000  1
  C  C10  1  0.03790000  0.48650000  0.87110000  1
  C  C11  1  0.53790000  0.87110000  0.48650000  1
  C  C12  1  0.90750000  0.24100000  0.04100000  1
  C  C13  1  0.40750000  0.04100000  0.24100000  1
  C  C14  1  0.99400000  0.36500000  0.88980000  1
  C  C15  1  0.49400000  0.88980000  0.36500000  1
  Ca  Ca16  1  0.75000000  0.96783000  0.03217000  1
  Ca  Ca17  1  0.25000000  0.03217000  0.96783000  1
  F  F18  1  0.01190000  0.76706000  0.22354000  1
  F  F19  1  0.51190000  0.22354000  0.76706000  1
  F  F20  1  0.92880000  0.53049000  0.25991000  1
  F  F21  1  0.42880000  0.25991000  0.53049000  1
  F  F22  1  0.07120000  0.46951000  0.74009000  1
  F  F23  1  0.57120000  0.74009000  0.46951000  1
  F  F24  1  0.98810000  0.23294000  0.77646000  1
  F  F25  1  0.48810000  0.77646000  0.23294000  1
  O  O26  1  0.98440000  0.84399000  0.97921000  1
  O  O27  1  0.48440000  0.97921000  0.84399000  1
  O  O28  1  0.23720000  0.77971000  0.92769000  1
  O  O29  1  0.73720000  0.92769000  0.77971000  1
  O  O30  1  0.76280000  0.22029000  0.07231000  1
  O  O31  1  0.26280000  0.07231000  0.22029000  1
  O  O32  1  0.01560000  0.15601000  0.02079000  1
  O  O33  1  0.51560000  0.02079000  0.15601000  1
