# generated using pymatgen
data_Cu2H(C2N3)3
_symmetry_space_group_name_H-M   'P 1'
_cell_length_a   9.48770000
_cell_length_b   13.02369970
_cell_length_c   15.76476624
_cell_angle_alpha   69.05561317
_cell_angle_beta   72.48744923
_cell_angle_gamma   68.63872035
_symmetry_Int_Tables_number   1
_chemical_formula_structural   Cu2H(C2N3)3
_chemical_formula_sum   'Cu8 H4 C24 N36'
_cell_volume   1661.33197084
_cell_formula_units_Z   4
loop_
 _symmetry_equiv_pos_site_id
 _symmetry_equiv_pos_as_xyz
  1  'x, y, z'
loop_
 _atom_site_type_symbol
 _atom_site_label
 _atom_site_symmetry_multiplicity
 _atom_site_fract_x
 _atom_site_fract_y
 _atom_site_fract_z
 _atom_site_occupancy
  C  C0  1  0.71170000  0.87650000  0.03630000  1
  C  C1  1  0.37550000  0.37650000  0.53630000  1
  C  C2  1  0.99170000  0.22000000  0.50660000  1
  C  C3  1  0.28170000  0.72000000  0.00660000  1
  C  C4  1  0.87710000  0.04580000  0.67840000  1
  C  C5  1  0.39870000  0.54580000  0.17840000  1
  C  C6  1  0.98970000  0.10820000  0.50620000  1
  C  C7  1  0.39590000  0.60820000  0.00620000  1
  C  C8  1  0.93710000  0.02730000  0.58530000  1
  C  C9  1  0.45030000  0.52730000  0.08530000  1
  C  C10  1  0.05190000  0.07880000  0.42300000  1
  C  C11  1  0.44630000  0.57880000  0.92300000  1
  C  C12  1  0.94810000  0.92120000  0.57700000  1
  C  C13  1  0.55370000  0.42120000  0.07700000  1
  C  C14  1  0.06290000  0.97270000  0.41470000  1
  C  C15  1  0.54970000  0.47270000  0.91470000  1
  C  C16  1  0.01030000  0.89180000  0.49380000  1
  C  C17  1  0.60410000  0.39180000  0.99380000  1
  C  C18  1  0.12290000  0.95420000  0.32160000  1
  C  C19  1  0.60130000  0.45420000  0.82160000  1
  C  C20  1  0.00830000  0.78000000  0.49340000  1
  C  C21  1  0.71830000  0.28000000  0.99340000  1
  C  C22  1  0.28830000  0.12350000  0.96370000  1
  C  C23  1  0.62450000  0.62350000  0.46370000  1
  Cu  Cu24  1  0.65772000  0.29275000  0.62215000  1
  Cu  Cu25  1  0.42738000  0.79275000  0.12215000  1
  Cu  Cu26  1  0.86610000  0.95338000  0.96118000  1
  Cu  Cu27  1  0.21934000  0.45338000  0.46118000  1
  Cu  Cu28  1  0.13390000  0.04662000  0.03882000  1
  Cu  Cu29  1  0.78066000  0.54662000  0.53882000  1
  Cu  Cu30  1  0.34228000  0.70725000  0.37785000  1
  Cu  Cu31  1  0.57262000  0.20725000  0.87785000  1
  H  H32  1  0.08760000  0.13190000  0.37090000  1
  H  H33  1  0.40960000  0.63190000  0.87090000  1
  H  H34  1  0.91240000  0.86810000  0.62910000  1
  H  H35  1  0.59040000  0.36810000  0.12910000  1
  N  N36  1  0.60950000  0.84080000  0.07120000  1
  N  N37  1  0.47850000  0.34080000  0.57120000  1
  N  N38  1  0.92653000  0.39024000  0.51710000  1
  N  N39  1  0.16613000  0.89024000  0.01710000  1
  N  N40  1  0.74666000  0.11058000  0.79310000  1
  N  N41  1  0.34966000  0.61058000  0.29310000  1
  N  N42  1  0.07267000  0.36306000  0.47840000  1
  N  N43  1  0.08587000  0.86306000  0.97840000  1
  N  N44  1  0.87149000  0.30102000  0.53600000  1
  N  N45  1  0.29149000  0.80102000  0.03600000  1
  N  N46  1  0.84546000  0.01228000  0.82360000  1
  N  N47  1  0.31866000  0.51228000  0.32360000  1
  N  N48  1  0.76434000  0.13352000  0.70120000  1
  N  N49  1  0.40094000  0.63352000  0.20120000  1
  N  N50  1  0.11843000  0.25594000  0.47000000  1
  N  N51  1  0.15563000  0.75594000  0.97000000  1
  N  N52  1  0.92902000  0.96776000  0.75240000  1
  N  N53  1  0.35082000  0.46776000  0.25240000  1
  N  N54  1  0.07098000  0.03224000  0.24760000  1
  N  N55  1  0.64918000  0.53224000  0.74760000  1
  N  N56  1  0.88157000  0.74406000  0.53000000  1
  N  N57  1  0.84437000  0.24406000  0.03000000  1
  N  N58  1  0.23566000  0.86648000  0.29880000  1
  N  N59  1  0.59906000  0.36648000  0.79880000  1
  N  N60  1  0.15454000  0.98772000  0.17640000  1
  N  N61  1  0.68134000  0.48772000  0.67640000  1
  N  N62  1  0.12851000  0.69898000  0.46400000  1
  N  N63  1  0.70851000  0.19898000  0.96400000  1
  N  N64  1  0.92733000  0.63694000  0.52160000  1
  N  N65  1  0.91413000  0.13694000  0.02160000  1
  N  N66  1  0.25334000  0.88942000  0.20690000  1
  N  N67  1  0.65034000  0.38942000  0.70690000  1
  N  N68  1  0.07347000  0.60976000  0.48290000  1
  N  N69  1  0.83387000  0.10976000  0.98290000  1
  N  N70  1  0.39050000  0.15920000  0.92880000  1
  N  N71  1  0.52150000  0.65920000  0.42880000  1
