# generated using pymatgen
data_Cu2NiH36C30(N3O5)2
_symmetry_space_group_name_H-M   'P 1'
_cell_length_a   19.69930000
_cell_length_b   19.69930000
_cell_length_c   29.29830000
_cell_angle_alpha   90.00000000
_cell_angle_beta   90.00000000
_cell_angle_gamma   120.00000000
_symmetry_Int_Tables_number   1
_chemical_formula_structural   Cu2NiH36C30(N3O5)2
_chemical_formula_sum   'Cu12 Ni6 H216 C180 N36 O60'
_cell_volume   9846.33576962
_cell_formula_units_Z   6
loop_
 _symmetry_equiv_pos_site_id
 _symmetry_equiv_pos_as_xyz
  1  'x, y, z'
loop_
 _atom_site_type_symbol
 _atom_site_label
 _atom_site_symmetry_multiplicity
 _atom_site_fract_x
 _atom_site_fract_y
 _atom_site_fract_z
 _atom_site_occupancy
  Cu  Cu0  1  0.75618000  0.32148000  0.49819000  1
  Cu  Cu1  1  0.69175000  0.32865000  0.99734000  1
  Cu  Cu2  1  0.67852000  0.43470000  0.16486000  1
  Cu  Cu3  1  0.67135000  0.36310000  0.66400000  1
  Cu  Cu4  1  0.63690000  0.30825000  0.33067000  1
  Cu  Cu5  1  0.56530000  0.24382000  0.83152000  1
  Cu  Cu6  1  0.43470000  0.67852000  0.50181000  1
  Cu  Cu7  1  0.36310000  0.67135000  0.00266000  1
  Cu  Cu8  1  0.32865000  0.69175000  0.66933000  1
  Cu  Cu9  1  0.32148000  0.75618000  0.16848000  1
  Cu  Cu10  1  0.30825000  0.63690000  0.33600000  1
  Cu  Cu11  1  0.24382000  0.56530000  0.83514000  1
  Ni  Ni12  1  0.97157000  0.48352000  0.90630000  1
  Ni  Ni13  1  0.51648000  0.48805000  0.57296000  1
  Ni  Ni14  1  0.51195000  0.02843000  0.23963000  1
  Ni  Ni15  1  0.48805000  0.51648000  0.09370000  1
  Ni  Ni16  1  0.48352000  0.97157000  0.76037000  1
  Ni  Ni17  1  0.02843000  0.51195000  0.42704000  1
  H  H18  1  0.99110000  0.66990000  0.71093000  1
  H  H19  1  0.98440000  0.37990000  0.98157000  1
  H  H20  1  0.98240000  0.67590000  0.41527000  1
  H  H21  1  0.98080000  0.55270000  0.60900000  1
  H  H22  1  0.98000000  0.72130000  0.04667000  1
  H  H23  1  0.96540000  0.31310000  0.37777000  1
  H  H24  1  0.96480000  0.58330000  0.36137000  1
  H  H25  1  0.95830000  0.37140000  0.43757000  1
  H  H26  1  0.95440000  0.74000000  0.57430000  1
  H  H27  1  0.95100000  0.30410000  0.88717000  1
  H  H28  1  0.94510000  0.61060000  0.45497000  1
  H  H29  1  0.93990000  0.59610000  0.06817000  1
  H  H30  1  0.93790000  0.47520000  0.33127000  1
  H  H31  1  0.93590000  0.60180000  0.83897000  1
  H  H32  1  0.91600000  0.75590000  0.99317000  1
  H  H33  1  0.91470000  0.57170000  0.92827000  1
  H  H34  1  0.90680000  0.42810000  0.57620000  1
  H  H35  1  0.90220000  0.35120000  0.83287000  1
  H  H36  1  0.89920000  0.31090000  0.92617000  1
  H  H37  1  0.88660000  0.46190000  0.41967000  1
  H  H38  1  0.88330000  0.61570000  0.87517000  1
  H  H39  1  0.88270000  0.55350000  0.38597000  1
  H  H40  1  0.87610000  0.33590000  0.33807000  1
  H  H41  1  0.86720000  0.43650000  0.81237000  1
  H  H42  1  0.86710000  0.46020000  0.05677000  1
  H  H43  1  0.86370000  0.34290000  0.39117000  1
  H  H44  1  0.86000000  0.65690000  0.51950000  1
  H  H45  1  0.84930000  0.43720000  0.34947000  1
  H  H46  1  0.84210000  0.18670000  0.28880000  1
  H  H47  1  0.83990000  0.08400000  0.32650000  1
  H  H48  1  0.82760000  0.29130000  0.86287000  1
  H  H49  1  0.82580000  0.38110000  0.90097000  1
  H  H50  1  0.81970000  0.52420000  0.51510000  1
  H  H51  1  0.81330000  0.65540000  0.95547000  1
  H  H52  1  0.80530000  0.51040000  0.82777000  1
  H  H53  1  0.79690000  0.14000000  0.85283000  1
  H  H54  1  0.79480000  0.48450000  0.87957000  1
  H  H55  1  0.78560000  0.04560000  0.90763000  1
  H  H56  1  0.78090000  0.38280000  0.83267000  1
  H  H57  1  0.77430000  0.52320000  0.97197000  1
  H  H58  1  0.75590000  0.91600000  0.67350000  1
  H  H59  1  0.74890000  0.22570000  0.30530000  1
  H  H60  1  0.74130000  0.02000000  0.38000000  1
  H  H61  1  0.74000000  0.95440000  0.09237000  1
  H  H62  1  0.73240000  0.11670000  0.20850000  1
  H  H63  1  0.72130000  0.98000000  0.62000000  1
  H  H64  1  0.70870000  0.53630000  0.52953000  1
  H  H65  1  0.70510000  0.19470000  0.16110000  1
  H  H66  1  0.70450000  0.18030000  0.84843000  1
  H  H67  1  0.69590000  0.64690000  0.55383000  1
  H  H68  1  0.69350000  0.01760000  0.74860000  1
  H  H69  1  0.68970000  0.20520000  0.21290000  1
  H  H70  1  0.68910000  0.58830000  0.59283000  1
  H  H71  1  0.68690000  0.65230000  0.04443000  1
  H  H72  1  0.67880000  0.00890000  0.04427000  1
  H  H73  1  0.67590000  0.98240000  0.25140000  1
  H  H74  1  0.67080000  0.11730000  0.71930000  1
  H  H75  1  0.66990000  0.99110000  0.95573000  1
  H  H76  1  0.66590000  0.06410000  0.17230000  1
  H  H77  1  0.66550000  0.05490000  0.78830000  1
  H  H78  1  0.66410000  0.54020000  0.00473000  1
  H  H79  1  0.65710000  0.52080000  0.05783000  1
  H  H80  1  0.65700000  0.08530000  0.26160000  1
  H  H81  1  0.65690000  0.86000000  0.14717000  1
  H  H82  1  0.65620000  0.06010000  0.40150000  1
  H  H83  1  0.65540000  0.81330000  0.71120000  1
  H  H84  1  0.65230000  0.68690000  0.62223000  1
  H  H85  1  0.64880000  0.55100000  0.49953000  1
  H  H86  1  0.64690000  0.69590000  0.11283000  1
  H  H87  1  0.62860000  0.58690000  0.10423000  1
  H  H88  1  0.62010000  0.60450000  0.64823000  1
  H  H89  1  0.61890000  0.44470000  0.56763000  1
  H  H90  1  0.61850000  0.03520000  0.69470000  1
  H  H91  1  0.61720000  0.39810000  0.49933000  1
  H  H92  1  0.61570000  0.88330000  0.79150000  1
  H  H93  1  0.61060000  0.94510000  0.21170000  1
  H  H94  1  0.60450000  0.62010000  0.01843000  1
  H  H95  1  0.60190000  0.21910000  0.16600000  1
  H  H96  1  0.60180000  0.93590000  0.82770000  1
  H  H97  1  0.59610000  0.93990000  0.59850000  1
  H  H98  1  0.59310000  0.13290000  0.39010000  1
  H  H99  1  0.58830000  0.68910000  0.07383000  1
  H  H100  1  0.58790000  0.15070000  0.68280000  1
  H  H101  1  0.58690000  0.62860000  0.56243000  1
  H  H102  1  0.58330000  0.96480000  0.30530000  1
  H  H103  1  0.57530000  0.11340000  0.75300000  1
  H  H104  1  0.57190000  0.01920000  0.94233000  1
  H  H105  1  0.57190000  0.47870000  0.24287000  1
  H  H106  1  0.57170000  0.91470000  0.73840000  1
  H  H107  1  0.56930000  0.13280000  0.14570000  1
  H  H108  1  0.56350000  0.43070000  0.47903000  1
  H  H109  1  0.56280000  0.41210000  0.01613000  1
  H  H110  1  0.55530000  0.17420000  0.23430000  1
  H  H111  1  0.55350000  0.88270000  0.28070000  1
  H  H112  1  0.55270000  0.98080000  0.05767000  1
  H  H113  1  0.55100000  0.64880000  0.16713000  1
  H  H114  1  0.54020000  0.66410000  0.66193000  1
  H  H115  1  0.53980000  0.40690000  0.72343000  1
  H  H116  1  0.53810000  0.42470000  0.08633000  1
  H  H117  1  0.53730000  0.06210000  0.66460000  1
  H  H118  1  0.53630000  0.70870000  0.13713000  1
  H  H119  1  0.52480000  0.46270000  0.99793000  1
  H  H120  1  0.52420000  0.81970000  0.15157000  1
  H  H121  1  0.52320000  0.77430000  0.69470000  1
  H  H122  1  0.52130000  0.09320000  0.90953000  1
  H  H123  1  0.52080000  0.65710000  0.60883000  1
  H  H124  1  0.51550000  0.31030000  0.54623000  1
  H  H125  1  0.51040000  0.80530000  0.83890000  1
  H  H126  1  0.48960000  0.29490000  0.49443000  1
  H  H127  1  0.48450000  0.79480000  0.78710000  1
  H  H128  1  0.47920000  0.13630000  0.72450000  1
  H  H129  1  0.47870000  0.57190000  0.42380000  1
  H  H130  1  0.47680000  0.25110000  0.63863000  1
  H  H131  1  0.47580000  0.29550000  0.18177000  1
  H  H132  1  0.47520000  0.93790000  0.33540000  1
  H  H133  1  0.46370000  0.17240000  0.19620000  1
  H  H134  1  0.46270000  0.52480000  0.66873000  1
  H  H135  1  0.46190000  0.88660000  0.24700000  1
  H  H136  1  0.46020000  0.86710000  0.60990000  1
  H  H137  1  0.45980000  0.12390000  0.67140000  1
  H  H138  1  0.44900000  0.09780000  0.16620000  1
  H  H139  1  0.44730000  0.42810000  0.27567000  1
  H  H140  1  0.44650000  0.32920000  0.05263000  1
  H  H141  1  0.44470000  0.61890000  0.09903000  1
  H  H142  1  0.43720000  0.84930000  0.31720000  1
  H  H143  1  0.43650000  0.86720000  0.85430000  1
  H  H144  1  0.43070000  0.56350000  0.18763000  1
  H  H145  1  0.42830000  0.34300000  0.59493000  1
  H  H146  1  0.42810000  0.44730000  0.39100000  1
  H  H147  1  0.42810000  0.90680000  0.09047000  1
  H  H148  1  0.42470000  0.53810000  0.58033000  1
  H  H149  1  0.41670000  0.38150000  0.02803000  1
  H  H150  1  0.41310000  0.04170000  0.77090000  1
  H  H151  1  0.41210000  0.56280000  0.65053000  1
  H  H152  1  0.41170000  0.10080000  0.25950000  1
  H  H153  1  0.40690000  0.53980000  0.94323000  1
  H  H154  1  0.40390000  0.34380000  0.73483000  1
  H  H155  1  0.39820000  0.33410000  0.50563000  1
  H  H156  1  0.39810000  0.61720000  0.16733000  1
  H  H157  1  0.39550000  0.01560000  0.31490000  1
  H  H158  1  0.38940000  0.33450000  0.12163000  1
  H  H159  1  0.38430000  0.26760000  0.54183000  1
  H  H160  1  0.38280000  0.78090000  0.83400000  1
  H  H161  1  0.38150000  0.41670000  0.63863000  1
  H  H162  1  0.38110000  0.82580000  0.76570000  1
  H  H163  1  0.37990000  0.98440000  0.68510000  1
  H  H164  1  0.37140000  0.95830000  0.22910000  1
  H  H165  1  0.35310000  0.04900000  0.22050000  1
  H  H166  1  0.35120000  0.90220000  0.83380000  1
  H  H167  1  0.34770000  0.03460000  0.71110000  1
  H  H168  1  0.34460000  0.15790000  0.62213000  1
  H  H169  1  0.34380000  0.40390000  0.93183000  1
  H  H170  1  0.34310000  0.20310000  0.18617000  1
  H  H171  1  0.34300000  0.42830000  0.07173000  1
  H  H172  1  0.34290000  0.86370000  0.27550000  1
  H  H173  1  0.33590000  0.87610000  0.32860000  1
  H  H174  1  0.33450000  0.38940000  0.54503000  1
  H  H175  1  0.33410000  0.39820000  0.16103000  1
  H  H176  1  0.33010000  0.32120000  0.37760000  1
  H  H177  1  0.32920000  0.44650000  0.61403000  1
  H  H178  1  0.32410000  0.30650000  0.08193000  1
  H  H179  1  0.32120000  0.33010000  0.28907000  1
  H  H180  1  0.31310000  0.96540000  0.28890000  1
  H  H181  1  0.31090000  0.89920000  0.74050000  1
  H  H182  1  0.31030000  0.51550000  0.12043000  1
  H  H183  1  0.30650000  0.32410000  0.58473000  1
  H  H184  1  0.30410000  0.95100000  0.77950000  1
  H  H185  1  0.29550000  0.47580000  0.48490000  1
  H  H186  1  0.29490000  0.48960000  0.17223000  1
  H  H187  1  0.29130000  0.82760000  0.80380000  1
  H  H188  1  0.27870000  0.25870000  0.71333000  1
  H  H189  1  0.26760000  0.38430000  0.12483000  1
  H  H190  1  0.26000000  0.21440000  0.24097000  1
  H  H191  1  0.25870000  0.27870000  0.95333000  1
  H  H192  1  0.25110000  0.47680000  0.02803000  1
  H  H193  1  0.24410000  0.16010000  0.65983000  1
  H  H194  1  0.22570000  0.74890000  0.36137000  1
  H  H195  1  0.21910000  0.60190000  0.50067000  1
  H  H196  1  0.21440000  0.26000000  0.42570000  1
  H  H197  1  0.20520000  0.68970000  0.45377000  1
  H  H198  1  0.20310000  0.34310000  0.48050000  1
  H  H199  1  0.19470000  0.70510000  0.50557000  1
  H  H200  1  0.18670000  0.84210000  0.37787000  1
  H  H201  1  0.18030000  0.70450000  0.81823000  1
  H  H202  1  0.17420000  0.55530000  0.43237000  1
  H  H203  1  0.17240000  0.46370000  0.47047000  1
  H  H204  1  0.16010000  0.24410000  0.00683000  1
  H  H205  1  0.15790000  0.34460000  0.04453000  1
  H  H206  1  0.15070000  0.58790000  0.98387000  1
  H  H207  1  0.14000000  0.79690000  0.81383000  1
  H  H208  1  0.13630000  0.47920000  0.94217000  1
  H  H209  1  0.13290000  0.59310000  0.27657000  1
  H  H210  1  0.13280000  0.56930000  0.52097000  1
  H  H211  1  0.12390000  0.45980000  0.99527000  1
  H  H212  1  0.11730000  0.67080000  0.94737000  1
  H  H213  1  0.11670000  0.73240000  0.45817000  1
  H  H214  1  0.11340000  0.57530000  0.91367000  1
  H  H215  1  0.10080000  0.41170000  0.40717000  1
  H  H216  1  0.09780000  0.44900000  0.50047000  1
  H  H217  1  0.09320000  0.52130000  0.75713000  1
  H  H218  1  0.08530000  0.65700000  0.40507000  1
  H  H219  1  0.08400000  0.83990000  0.34017000  1
  H  H220  1  0.06410000  0.66590000  0.49437000  1
  H  H221  1  0.06210000  0.53730000  0.00207000  1
  H  H222  1  0.06010000  0.65620000  0.26517000  1
  H  H223  1  0.05490000  0.66550000  0.87837000  1
  H  H224  1  0.04900000  0.35310000  0.44617000  1
  H  H225  1  0.04560000  0.78560000  0.75903000  1
  H  H226  1  0.04170000  0.41310000  0.89577000  1
  H  H227  1  0.03520000  0.61850000  0.97197000  1
  H  H228  1  0.03460000  0.34770000  0.95557000  1
  H  H229  1  0.02000000  0.74130000  0.28667000  1
  H  H230  1  0.01920000  0.57190000  0.72433000  1
  H  H231  1  0.01760000  0.69350000  0.91807000  1
  H  H232  1  0.01560000  0.39550000  0.35177000  1
  H  H233  1  0.00890000  0.67880000  0.62240000  1
  C  C234  1  0.97600000  0.36800000  0.37597000  1
  C  C235  1  0.97500000  0.62500000  0.42627000  1
  C  C236  1  0.97300000  0.64900000  0.59880000  1
  C  C237  1  0.95420000  0.57320000  0.59200000  1
  C  C238  1  0.94000000  0.68700000  0.57120000  1
  C  C239  1  0.93600000  0.56200000  0.39047000  1
  C  C240  1  0.93500000  0.68000000  0.03157000  1
  C  C241  1  0.93300000  0.33900000  0.89977000  1
  C  C242  1  0.91400000  0.43710000  0.50350000  1
  C  C243  1  0.91300000  0.60500000  0.04377000  1
  C  C244  1  0.90300000  0.44700000  0.35697000  1
  C  C245  1  0.90300000  0.58000000  0.86627000  1
  C  C246  1  0.90000000  0.36900000  0.36537000  1
  C  C247  1  0.89960000  0.70260000  0.99937000  1
  C  C248  1  0.89680000  0.52560000  0.56060000  1
  C  C249  1  0.88330000  0.63600000  0.53920000  1
  C  C250  1  0.87990000  0.44190000  0.55210000  1
  C  C251  1  0.87750000  0.34150000  0.86357000  1
  C  C252  1  0.86070000  0.55680000  0.53540000  1
  C  C253  1  0.85680000  0.54590000  0.02187000  1
  C  C254  1  0.85340000  0.43200000  0.98837000  1
  C  C255  1  0.84080000  0.64430000  0.97817000  1
  C  C256  1  0.83530000  0.46220000  0.03077000  1
  C  C257  1  0.83500000  0.42600000  0.83997000  1
  C  C258  1  0.83100000  0.50000000  0.85367000  1
  C  C259  1  0.81700000  0.56420000  0.98807000  1
  C  C260  1  0.80350000  0.15920000  0.31150000  1
  C  C261  1  0.80300000  0.10040000  0.33270000  1
  C  C262  1  0.75270000  0.11670000  0.87253000  1
  C  C263  1  0.74900000  0.36610000  0.58640000  1
  C  C264  1  0.74720000  0.18300000  0.32140000  1
  C  C265  1  0.74700000  0.06000000  0.90453000  1
  C  C266  1  0.74500000  0.06500000  0.36490000  1
  C  C267  1  0.71610000  0.40830000  0.07667000  1
  C  C268  1  0.71500000  0.37170000  0.41300000  1
  C  C269  1  0.70260000  0.89960000  0.66730000  1
  C  C270  1  0.70200000  0.36630000  0.24137000  1
  C  C271  1  0.69610000  0.13930000  0.86873000  1
  C  C272  1  0.69220000  0.28390000  0.41000000  1
  C  C273  1  0.69200000  0.08700000  0.37710000  1
  C  C274  1  0.68910000  0.14320000  0.35520000  1
  C  C275  1  0.68700000  0.94000000  0.09547000  1
  C  C276  1  0.68000000  0.93500000  0.63510000  1
  C  C277  1  0.67700000  0.09700000  0.19960000  1
  C  C278  1  0.67600000  0.02700000  0.93213000  1
  C  C279  1  0.66900000  0.16900000  0.18700000  1
  C  C280  1  0.66430000  0.29800000  0.57470000  1
  C  C281  1  0.66100000  0.59400000  0.56643000  1
  C  C282  1  0.65850000  0.53600000  0.53023000  1
  C  C283  1  0.65670000  0.28500000  0.74633000  1
  C  C284  1  0.65000000  0.02500000  0.75960000  1
  C  C285  1  0.64900000  0.97300000  0.06787000  1
  C  C286  1  0.64430000  0.84080000  0.68850000  1
  C  C287  1  0.63600000  0.88330000  0.12747000  1
  C  C288  1  0.63390000  0.38290000  0.25307000  1
  C  C289  1  0.63370000  0.33570000  0.90803000  1
  C  C290  1  0.63200000  0.60800000  0.04263000  1
  C  C291  1  0.63100000  0.53100000  0.03203000  1
  C  C292  1  0.62880000  0.10320000  0.89393000  1
  C  C293  1  0.62830000  0.34330000  0.07967000  1
  C  C294  1  0.62690000  0.16470000  0.36410000  1
  C  C295  1  0.62600000  0.06400000  0.72380000  1
  C  C296  1  0.62500000  0.97500000  0.24040000  1
  C  C297  1  0.61900000  0.04580000  0.92533000  1
  C  C298  1  0.61710000  0.25100000  0.91973000  1
  C  C299  1  0.60800000  0.63200000  0.62403000  1
  C  C300  1  0.60500000  0.91300000  0.62290000  1
  C  C301  1  0.59400000  0.66100000  0.10023000  1
  C  C302  1  0.59170000  0.30780000  0.74333000  1
  C  C303  1  0.59100000  0.16500000  0.17330000  1
  C  C304  1  0.58000000  0.90300000  0.80040000  1
  C  C305  1  0.57860000  0.14660000  0.32170000  1
  C  C306  1  0.57400000  0.40900000  0.50663000  1
  C  C307  1  0.57320000  0.95420000  0.07467000  1
  C  C308  1  0.56800000  0.42140000  0.65503000  1
  C  C309  1  0.56420000  0.81700000  0.67860000  1
  C  C310  1  0.56290000  0.47690000  0.17017000  1
  C  C311  1  0.56200000  0.93600000  0.27620000  1
  C  C312  1  0.56200000  0.12010000  0.88543000  1
  C  C313  1  0.55810000  0.43800000  0.21877000  1
  C  C314  1  0.55680000  0.86070000  0.13127000  1
  C  C315  1  0.55300000  0.45600000  0.02363000  1
  C  C316  1  0.54590000  0.85680000  0.64480000  1
  C  C317  1  0.54400000  0.09700000  0.69030000  1
  C  C318  1  0.53780000  0.37310000  0.69743000  1
  C  C319  1  0.53600000  0.65850000  0.13643000  1
  C  C320  1  0.53100000  0.63100000  0.63463000  1
  C  C321  1  0.52560000  0.89680000  0.10607000  1
  C  C322  1  0.52310000  0.08600000  0.83683000  1
  C  C323  1  0.50000000  0.83100000  0.81300000  1
  C  C324  1  0.50000000  0.33100000  0.52033000  1
  C  C325  1  0.47690000  0.56290000  0.49650000  1
  C  C326  1  0.47440000  0.37120000  0.22727000  1
  C  C327  1  0.46900000  0.10000000  0.69870000  1
  C  C328  1  0.46400000  0.12250000  0.19690000  1
  C  C329  1  0.46220000  0.83530000  0.63590000  1
  C  C330  1  0.45600000  0.55300000  0.64303000  1
  C  C331  1  0.45410000  0.31090000  0.68853000  1
  C  C332  1  0.44700000  0.90300000  0.30970000  1
  C  C333  1  0.44320000  0.30390000  0.20207000  1
  C  C334  1  0.44190000  0.87990000  0.11457000  1
  C  C335  1  0.43800000  0.55810000  0.44790000  1
  C  C336  1  0.43800000  0.37400000  0.05713000  1
  C  C337  1  0.43710000  0.91400000  0.16317000  1
  C  C338  1  0.43580000  0.25280000  0.65473000  1
  C  C339  1  0.43200000  0.85340000  0.67830000  1
  C  C340  1  0.42680000  0.38100000  0.25867000  1
  C  C341  1  0.42600000  0.83500000  0.82670000  1
  C  C342  1  0.42140000  0.56800000  0.01163000  1
  C  C343  1  0.42000000  0.32300000  0.53293000  1
  C  C344  1  0.40900000  0.57400000  0.16003000  1
  C  C345  1  0.40830000  0.71610000  0.59000000  1
  C  C346  1  0.40600000  0.06700000  0.23310000  1
  C  C347  1  0.39500000  0.30800000  0.71043000  1
  C  C348  1  0.39200000  0.02400000  0.70930000  1
  C  C349  1  0.38290000  0.63390000  0.41360000  1
  C  C350  1  0.38100000  0.42680000  0.40800000  1
  C  C351  1  0.37500000  0.35000000  0.09293000  1
  C  C352  1  0.37400000  0.43800000  0.60953000  1
  C  C353  1  0.37310000  0.53780000  0.96923000  1
  C  C354  1  0.37170000  0.71500000  0.25367000  1
  C  C355  1  0.37120000  0.47440000  0.43940000  1
  C  C356  1  0.36900000  0.90000000  0.30130000  1
  C  C357  1  0.36800000  0.97600000  0.29070000  1
  C  C358  1  0.36630000  0.70200000  0.42530000  1
  C  C359  1  0.36610000  0.74900000  0.08027000  1
  C  C360  1  0.36400000  0.24730000  0.20587000  1
  C  C361  1  0.35570000  0.19650000  0.64483000  1
  C  C362  1  0.35100000  0.32400000  0.26547000  1
  C  C363  1  0.35000000  0.37500000  0.57373000  1
  C  C364  1  0.34330000  0.62830000  0.58700000  1
  C  C365  1  0.34150000  0.87750000  0.80310000  1
  C  C366  1  0.33900000  0.93300000  0.76690000  1
  C  C367  1  0.33570000  0.63370000  0.75863000  1
  C  C368  1  0.33100000  0.50000000  0.14633000  1
  C  C369  1  0.32400000  0.35100000  0.40120000  1
  C  C370  1  0.32300000  0.42000000  0.13373000  1
  C  C371  1  0.32000000  0.25500000  0.69823000  1
  C  C372  1  0.31300000  0.25300000  0.23787000  1
  C  C373  1  0.31090000  0.45410000  0.97813000  1
  C  C374  1  0.30800000  0.39500000  0.95623000  1
  C  C375  1  0.30780000  0.59170000  0.92333000  1
  C  C376  1  0.30390000  0.44320000  0.46460000  1
  C  C377  1  0.29800000  0.66430000  0.09197000  1
  C  C378  1  0.29740000  0.19700000  0.66603000  1
  C  C379  1  0.28500000  0.65670000  0.92033000  1
  C  C380  1  0.28390000  0.69220000  0.25667000  1
  C  C381  1  0.25500000  0.32000000  0.96843000  1
  C  C382  1  0.25300000  0.31300000  0.42880000  1
  C  C383  1  0.25280000  0.43580000  0.01193000  1
  C  C384  1  0.25100000  0.61710000  0.74693000  1
  C  C385  1  0.24730000  0.36400000  0.46080000  1
  C  C386  1  0.19700000  0.29740000  0.00063000  1
  C  C387  1  0.19650000  0.35570000  0.02183000  1
  C  C388  1  0.18300000  0.74720000  0.34527000  1
  C  C389  1  0.16900000  0.66900000  0.47967000  1
  C  C390  1  0.16500000  0.59100000  0.49337000  1
  C  C391  1  0.16470000  0.62690000  0.30257000  1
  C  C392  1  0.15920000  0.80350000  0.35517000  1
  C  C393  1  0.14660000  0.57860000  0.34497000  1
  C  C394  1  0.14320000  0.68910000  0.31147000  1
  C  C395  1  0.13930000  0.69610000  0.79793000  1
  C  C396  1  0.12250000  0.46400000  0.46977000  1
  C  C397  1  0.12010000  0.56200000  0.78123000  1
  C  C398  1  0.11670000  0.75270000  0.79413000  1
  C  C399  1  0.10320000  0.62880000  0.77273000  1
  C  C400  1  0.10040000  0.80300000  0.33397000  1
  C  C401  1  0.10000000  0.46900000  0.96797000  1
  C  C402  1  0.09700000  0.54400000  0.97637000  1
  C  C403  1  0.09700000  0.67700000  0.46707000  1
  C  C404  1  0.08700000  0.69200000  0.28957000  1
  C  C405  1  0.08600000  0.52310000  0.82983000  1
  C  C406  1  0.06700000  0.40600000  0.43357000  1
  C  C407  1  0.06500000  0.74500000  0.30177000  1
  C  C408  1  0.06400000  0.62600000  0.94287000  1
  C  C409  1  0.06000000  0.74700000  0.76213000  1
  C  C410  1  0.04580000  0.61900000  0.74133000  1
  C  C411  1  0.02700000  0.67600000  0.73453000  1
  C  C412  1  0.02500000  0.65000000  0.90707000  1
  C  C413  1  0.02400000  0.39200000  0.95737000  1
  N  N414  1  0.99870000  0.40210000  0.91787000  1
  N  N415  1  0.94510000  0.57580000  0.90007000  1
  N  N416  1  0.92910000  0.48960000  0.39657000  1
  N  N417  1  0.86590000  0.40170000  0.87617000  1
  N  N418  1  0.79760000  0.38340000  0.55200000  1
  N  N419  1  0.75080000  0.41020000  0.04027000  1
  N  N420  1  0.65940000  0.24920000  0.37360000  1
  N  N421  1  0.63070000  0.05490000  0.23340000  1
  N  N422  1  0.61660000  0.41420000  0.21867000  1
  N  N423  1  0.59830000  0.46420000  0.54283000  1
  N  N424  1  0.59790000  0.59660000  0.58453000  1
  N  N425  1  0.59660000  0.59790000  0.08213000  1
  N  N426  1  0.58980000  0.34060000  0.70693000  1
  N  N427  1  0.58580000  0.20240000  0.88533000  1
  N  N428  1  0.57580000  0.94510000  0.76660000  1
  N  N429  1  0.56050000  0.07090000  0.72990000  1
  N  N430  1  0.53580000  0.13410000  0.20950000  1
  N  N431  1  0.51040000  0.43950000  0.06323000  1
  N  N432  1  0.48960000  0.92910000  0.27010000  1
  N  N433  1  0.46420000  0.59830000  0.12383000  1
  N  N434  1  0.43950000  0.51040000  0.60343000  1
  N  N435  1  0.42420000  0.36930000  0.56673000  1
  N  N436  1  0.41420000  0.61660000  0.44800000  1
  N  N437  1  0.41020000  0.75080000  0.62640000  1
  N  N438  1  0.40340000  0.00130000  0.25120000  1
  N  N439  1  0.40210000  0.99870000  0.74880000  1
  N  N440  1  0.40170000  0.86590000  0.79050000  1
  N  N441  1  0.38340000  0.79760000  0.11467000  1
  N  N442  1  0.36930000  0.42420000  0.09993000  1
  N  N443  1  0.34060000  0.58980000  0.95973000  1
  N  N444  1  0.24920000  0.65940000  0.29307000  1
  N  N445  1  0.20240000  0.58580000  0.78133000  1
  N  N446  1  0.13410000  0.53580000  0.45717000  1
  N  N447  1  0.07090000  0.56050000  0.93677000  1
  N  N448  1  0.05490000  0.63070000  0.43327000  1
  N  N449  1  0.00130000  0.40340000  0.41547000  1
  O  O450  1  0.98330000  0.49140000  0.49460000  1
  O  O451  1  0.92230000  0.46820000  0.97227000  1
  O  O452  1  0.86700000  0.37860000  0.47980000  1
  O  O453  1  0.79750000  0.37040000  0.96847000  1
  O  O454  1  0.76180000  0.39690000  0.62550000  1
  O  O455  1  0.74620000  0.45570000  0.11137000  1
  O  O456  1  0.74250000  0.40820000  0.44730000  1
  O  O457  1  0.72880000  0.38410000  0.20007000  1
  O  O458  1  0.72590000  0.34080000  0.27107000  1
  O  O459  1  0.70950000  0.25380000  0.44470000  1
  O  O460  1  0.70320000  0.30970000  0.71003000  1
  O  O461  1  0.69030000  0.39350000  0.37670000  1
  O  O462  1  0.66570000  0.25750000  0.78063000  1
  O  O463  1  0.65920000  0.38510000  0.93773000  1
  O  O464  1  0.65530000  0.27120000  0.53340000  1
  O  O465  1  0.63510000  0.23820000  0.95883000  1
  O  O466  1  0.62960000  0.42710000  0.63513000  1
  O  O467  1  0.62140000  0.48840000  0.14647000  1
  O  O468  1  0.61590000  0.34470000  0.86673000  1
  O  O469  1  0.61490000  0.27410000  0.60440000  1
  O  O470  1  0.60650000  0.29680000  0.04337000  1
  O  O471  1  0.60310000  0.36490000  0.29217000  1
  O  O472  1  0.59180000  0.33430000  0.11397000  1
  O  O473  1  0.57290000  0.20250000  0.30180000  1
  O  O474  1  0.54590000  0.07770000  0.30560000  1
  O  O475  1  0.54430000  0.29050000  0.77803000  1
  O  O476  1  0.53180000  0.45410000  0.63893000  1
  O  O477  1  0.51160000  0.13300000  0.81313000  1
  O  O478  1  0.50860000  0.49190000  0.16127000  1
  O  O479  1  0.50810000  0.01670000  0.82793000  1
  O  O480  1  0.49190000  0.50860000  0.50540000  1
  O  O481  1  0.49140000  0.98330000  0.17207000  1
  O  O482  1  0.48840000  0.62140000  0.52020000  1
  O  O483  1  0.46820000  0.92230000  0.69440000  1
  O  O484  1  0.45570000  0.74620000  0.55530000  1
  O  O485  1  0.45410000  0.53180000  0.02773000  1
  O  O486  1  0.42710000  0.62960000  0.03153000  1
  O  O487  1  0.40820000  0.74250000  0.21937000  1
  O  O488  1  0.39690000  0.76180000  0.04117000  1
  O  O489  1  0.39350000  0.69030000  0.28997000  1
  O  O490  1  0.38510000  0.65920000  0.72893000  1
  O  O491  1  0.38410000  0.72880000  0.46660000  1
  O  O492  1  0.37860000  0.86700000  0.18687000  1
  O  O493  1  0.37040000  0.79750000  0.69820000  1
  O  O494  1  0.36490000  0.60310000  0.37450000  1
  O  O495  1  0.34470000  0.61590000  0.79993000  1
  O  O496  1  0.34080000  0.72590000  0.39560000  1
  O  O497  1  0.33430000  0.59180000  0.55270000  1
  O  O498  1  0.30970000  0.70320000  0.95663000  1
  O  O499  1  0.29680000  0.60650000  0.62330000  1
  O  O500  1  0.29050000  0.54430000  0.88863000  1
  O  O501  1  0.27410000  0.61490000  0.06227000  1
  O  O502  1  0.27120000  0.65530000  0.13327000  1
  O  O503  1  0.25750000  0.66570000  0.88603000  1
  O  O504  1  0.25380000  0.70950000  0.22197000  1
  O  O505  1  0.23820000  0.63510000  0.70783000  1
  O  O506  1  0.20250000  0.57290000  0.36487000  1
  O  O507  1  0.13300000  0.51160000  0.85353000  1
  O  O508  1  0.07770000  0.54590000  0.36107000  1
  O  O509  1  0.01670000  0.50810000  0.83873000  1
