# generated using pymatgen
data_CeH7C19(O4F3)2
_symmetry_space_group_name_H-M   'P 1'
_cell_length_a   7.35240000
_cell_length_b   23.17500000
_cell_length_c   29.16420000
_cell_angle_alpha   90.00000000
_cell_angle_beta   90.00000000
_cell_angle_gamma   90.77200000
_symmetry_Int_Tables_number   1
_chemical_formula_structural   CeH7C19(O4F3)2
_chemical_formula_sum   'Ce8 H56 C152 O64 F48'
_cell_volume   4968.89149699
_cell_formula_units_Z   8
loop_
 _symmetry_equiv_pos_site_id
 _symmetry_equiv_pos_as_xyz
  1  'x, y, z'
loop_
 _atom_site_type_symbol
 _atom_site_label
 _atom_site_symmetry_multiplicity
 _atom_site_fract_x
 _atom_site_fract_y
 _atom_site_fract_z
 _atom_site_occupancy
  Ce  Ce0  1  0.20971000  0.33309000  0.70150000  1
  Ce  Ce1  1  0.20971000  0.83309000  0.79850000  1
  Ce  Ce2  1  0.29337000  0.23903000  0.23634000  1
  Ce  Ce3  1  0.29337000  0.73903000  0.26366000  1
  Ce  Ce4  1  0.70663000  0.26097000  0.73634000  1
  Ce  Ce5  1  0.70663000  0.76097000  0.76366000  1
  Ce  Ce6  1  0.79029000  0.16691000  0.20150000  1
  Ce  Ce7  1  0.79029000  0.66691000  0.29850000  1
  H  H8  1  0.02520000  0.23360000  0.56700000  1
  H  H9  1  0.02520000  0.73360000  0.93300000  1
  H  H10  1  0.02750000  0.46570000  0.82290000  1
  H  H11  1  0.02750000  0.96570000  0.67710000  1
  H  H12  1  0.08520000  0.38010000  0.42040000  1
  H  H13  1  0.08520000  0.88010000  0.07960000  1
  H  H14  1  0.10080000  0.15710000  0.79220000  1
  H  H15  1  0.10080000  0.65710000  0.70780000  1
  H  H16  1  0.11900000  0.29720000  0.00060000  1
  H  H17  1  0.11900000  0.79720000  0.49940000  1
  H  H18  1  0.12390000  0.41710000  0.17950000  1
  H  H19  1  0.12390000  0.91710000  0.32050000  1
  H  H20  1  0.22210000  0.20840000  0.94710000  1
  H  H21  1  0.22210000  0.70840000  0.55290000  1
  H  H22  1  0.23620000  0.34920000  0.83380000  1
  H  H23  1  0.23620000  0.84920000  0.66620000  1
  H  H24  1  0.24540000  0.06950000  0.57890000  1
  H  H25  1  0.24540000  0.56950000  0.92110000  1
  H  H26  1  0.40400000  0.44630000  0.82890000  1
  H  H27  1  0.40400000  0.94630000  0.67110000  1
  H  H28  1  0.40970000  0.26260000  0.54890000  1
  H  H29  1  0.40970000  0.76260000  0.95110000  1
  H  H30  1  0.42080000  0.35880000  0.89760000  1
  H  H31  1  0.42080000  0.85880000  0.60240000  1
  H  H32  1  0.42430000  0.13960000  0.61440000  1
  H  H33  1  0.42430000  0.63960000  0.88560000  1
  H  H34  1  0.44590000  0.00080000  0.38420000  1
  H  H35  1  0.44590000  0.50080000  0.11580000  1
  H  H36  1  0.55410000  0.49920000  0.88420000  1
  H  H37  1  0.55410000  0.99920000  0.61580000  1
  H  H38  1  0.57570000  0.36040000  0.11440000  1
  H  H39  1  0.57570000  0.86040000  0.38560000  1
  H  H40  1  0.57920000  0.14120000  0.39760000  1
  H  H41  1  0.57920000  0.64120000  0.10240000  1
  H  H42  1  0.59030000  0.23740000  0.04890000  1
  H  H43  1  0.59030000  0.73740000  0.45110000  1
  H  H44  1  0.59600000  0.05370000  0.32890000  1
  H  H45  1  0.59600000  0.55370000  0.17110000  1
  H  H46  1  0.75460000  0.43050000  0.07890000  1
  H  H47  1  0.75460000  0.93050000  0.42110000  1
  H  H48  1  0.76380000  0.15080000  0.33380000  1
  H  H49  1  0.76380000  0.65080000  0.16620000  1
  H  H50  1  0.77790000  0.29160000  0.44710000  1
  H  H51  1  0.77790000  0.79160000  0.05290000  1
  H  H52  1  0.87610000  0.08290000  0.67950000  1
  H  H53  1  0.87610000  0.58290000  0.82050000  1
  H  H54  1  0.88100000  0.20280000  0.50060000  1
  H  H55  1  0.88100000  0.70280000  0.99940000  1
  H  H56  1  0.89920000  0.34290000  0.29220000  1
  H  H57  1  0.89920000  0.84290000  0.20780000  1
  H  H58  1  0.91480000  0.11990000  0.92040000  1
  H  H59  1  0.91480000  0.61990000  0.57960000  1
  H  H60  1  0.97250000  0.03430000  0.32290000  1
  H  H61  1  0.97250000  0.53430000  0.17710000  1
  H  H62  1  0.97480000  0.26640000  0.06700000  1
  H  H63  1  0.97480000  0.76640000  0.43300000  1
  C  C64  1  0.00240000  0.22800000  0.30980000  1
  C  C65  1  0.00240000  0.72800000  0.19020000  1
  C  C66  1  0.00770000  0.17610000  0.88220000  1
  C  C67  1  0.00770000  0.67610000  0.61780000  1
  C  C68  1  0.01090000  0.40730000  0.16720000  1
  C  C69  1  0.01090000  0.90730000  0.33280000  1
  C  C70  1  0.03760000  0.15300000  0.73620000  1
  C  C71  1  0.03760000  0.65300000  0.76380000  1
  C  C72  1  0.04060000  0.47550000  0.92240000  1
  C  C73  1  0.04060000  0.97550000  0.57760000  1
  C  C74  1  0.04480000  0.06700000  0.62710000  1
  C  C75  1  0.04480000  0.56700000  0.87290000  1
  C  C76  1  0.07450000  0.10350000  0.25760000  1
  C  C77  1  0.07450000  0.60350000  0.24240000  1
  C  C78  1  0.07690000  0.47900000  0.10380000  1
  C  C79  1  0.07690000  0.97900000  0.39620000  1
  C  C80  1  0.08800000  0.20780000  0.13740000  1
  C  C81  1  0.08800000  0.70780000  0.36260000  1
  C  C82  1  0.09780000  0.03970000  0.32510000  1
  C  C83  1  0.09780000  0.53970000  0.17490000  1
  C  C84  1  0.09870000  0.26010000  0.06340000  1
  C  C85  1  0.09870000  0.76010000  0.43660000  1
  C  C86  1  0.09940000  0.13300000  0.68980000  1
  C  C87  1  0.09940000  0.63300000  0.81020000  1
  C  C88  1  0.11810000  0.23010000  0.88520000  1
  C  C89  1  0.11810000  0.73010000  0.61480000  1
  C  C90  1  0.12060000  0.27240000  0.85100000  1
  C  C91  1  0.12060000  0.77240000  0.64900000  1
  C  C92  1  0.18500000  0.27840000  0.02320000  1
  C  C93  1  0.18500000  0.77840000  0.47680000  1
  C  C94  1  0.18530000  0.07380000  0.29300000  1
  C  C95  1  0.18530000  0.57380000  0.20700000  1
  C  C96  1  0.19150000  0.01280000  0.36107000  1
  C  C97  1  0.19150000  0.51280000  0.13893000  1
  C  C98  1  0.19390000  0.23300000  0.09792000  1
  C  C99  1  0.19390000  0.73300000  0.40208000  1
  C  C100  1  0.19600000  0.44670000  0.06850000  1
  C  C101  1  0.19600000  0.94670000  0.43150000  1
  C  C102  1  0.20900000  0.08520000  0.60670000  1
  C  C103  1  0.20900000  0.58520000  0.89330000  1
  C  C104  1  0.22530000  0.23660000  0.92440000  1
  C  C105  1  0.22530000  0.73660000  0.57560000  1
  C  C106  1  0.23390000  0.32080000  0.85630000  1
  C  C107  1  0.23390000  0.82080000  0.64370000  1
  C  C108  1  0.26730000  0.14960000  0.67050000  1
  C  C109  1  0.26730000  0.64960000  0.82950000  1
  C  C110  1  0.31740000  0.12690000  0.62840000  1
  C  C111  1  0.31740000  0.62690000  0.87160000  1
  C  C112  1  0.33860000  0.28580000  0.92970000  1
  C  C113  1  0.33860000  0.78580000  0.57030000  1
  C  C114  1  0.34350000  0.32690000  0.89490000  1
  C  C115  1  0.34350000  0.82690000  0.60510000  1
  C  C116  1  0.37110000  0.24970000  0.45980000  1
  C  C117  1  0.37110000  0.74970000  0.04020000  1
  C  C118  1  0.37160000  0.26840000  0.01670000  1
  C  C119  1  0.37160000  0.76840000  0.48330000  1
  C  C120  1  0.37630000  0.07900000  0.29400000  1
  C  C121  1  0.37630000  0.57900000  0.20600000  1
  C  C122  1  0.37920000  0.01880000  0.36130000  1
  C  C123  1  0.37920000  0.51880000  0.13870000  1
  C  C124  1  0.38390000  0.22620000  0.09280000  1
  C  C125  1  0.38390000  0.72620000  0.40720000  1
  C  C126  1  0.39500000  0.19200000  0.69180000  1
  C  C127  1  0.39500000  0.69200000  0.80820000  1
  C  C128  1  0.46450000  0.28900000  0.97170000  1
  C  C129  1  0.46450000  0.78900000  0.52830000  1
  C  C130  1  0.46550000  0.14850000  0.48060000  1
  C  C131  1  0.46550000  0.64850000  0.01940000  1
  C  C132  1  0.46620000  0.24320000  0.05240000  1
  C  C133  1  0.46620000  0.74320000  0.44760000  1
  C  C134  1  0.46980000  0.05100000  0.32810000  1
  C  C135  1  0.46980000  0.55100000  0.17190000  1
  C  C136  1  0.48480000  0.11200000  0.25820000  1
  C  C137  1  0.48480000  0.61200000  0.24180000  1
  C  C138  1  0.49750000  0.20210000  0.13050000  1
  C  C139  1  0.49750000  0.70210000  0.36950000  1
  C  C140  1  0.50250000  0.29790000  0.63050000  1
  C  C141  1  0.50250000  0.79790000  0.86950000  1
  C  C142  1  0.51520000  0.38800000  0.75820000  1
  C  C143  1  0.51520000  0.88800000  0.74180000  1
  C  C144  1  0.53020000  0.44900000  0.82810000  1
  C  C145  1  0.53020000  0.94900000  0.67190000  1
  C  C146  1  0.53380000  0.25680000  0.55240000  1
  C  C147  1  0.53380000  0.75680000  0.94760000  1
  C  C148  1  0.53450000  0.35150000  0.98060000  1
  C  C149  1  0.53450000  0.85150000  0.51940000  1
  C  C150  1  0.53550000  0.21100000  0.47170000  1
  C  C151  1  0.53550000  0.71100000  0.02830000  1
  C  C152  1  0.60500000  0.30800000  0.19180000  1
  C  C153  1  0.60500000  0.80800000  0.30820000  1
  C  C154  1  0.61610000  0.27380000  0.59280000  1
  C  C155  1  0.61610000  0.77380000  0.90720000  1
  C  C156  1  0.62080000  0.48120000  0.86130000  1
  C  C157  1  0.62080000  0.98120000  0.63870000  1
  C  C158  1  0.62370000  0.42100000  0.79400000  1
  C  C159  1  0.62370000  0.92100000  0.70600000  1
  C  C160  1  0.62840000  0.23160000  0.51670000  1
  C  C161  1  0.62840000  0.73160000  0.98330000  1
  C  C162  1  0.62890000  0.25030000  0.95980000  1
  C  C163  1  0.62890000  0.75030000  0.54020000  1
  C  C164  1  0.65650000  0.17310000  0.39490000  1
  C  C165  1  0.65650000  0.67310000  0.10510000  1
  C  C166  1  0.66140000  0.21420000  0.42970000  1
  C  C167  1  0.66140000  0.71420000  0.07030000  1
  C  C168  1  0.68260000  0.37310000  0.12840000  1
  C  C169  1  0.68260000  0.87310000  0.37160000  1
  C  C170  1  0.73270000  0.35040000  0.17050000  1
  C  C171  1  0.73270000  0.85040000  0.32950000  1
  C  C172  1  0.76610000  0.17920000  0.35630000  1
  C  C173  1  0.76610000  0.67920000  0.14370000  1
  C  C174  1  0.77470000  0.26340000  0.42440000  1
  C  C175  1  0.77470000  0.76340000  0.07560000  1
  C  C176  1  0.79100000  0.41480000  0.10670000  1
  C  C177  1  0.79100000  0.91480000  0.39330000  1
  C  C178  1  0.80400000  0.05330000  0.56850000  1
  C  C179  1  0.80400000  0.55330000  0.93150000  1
  C  C180  1  0.80610000  0.26700000  0.59792000  1
  C  C181  1  0.80610000  0.76700000  0.90208000  1
  C  C182  1  0.80850000  0.48720000  0.86107000  1
  C  C183  1  0.80850000  0.98720000  0.63893000  1
  C  C184  1  0.81470000  0.42620000  0.79300000  1
  C  C185  1  0.81470000  0.92620000  0.70700000  1
  C  C186  1  0.81500000  0.22160000  0.52320000  1
  C  C187  1  0.81500000  0.72160000  0.97680000  1
  C  C188  1  0.87940000  0.22760000  0.35100000  1
  C  C189  1  0.87940000  0.72760000  0.14900000  1
  C  C190  1  0.88190000  0.26990000  0.38520000  1
  C  C191  1  0.88190000  0.76990000  0.11480000  1
  C  C192  1  0.90060000  0.36700000  0.18980000  1
  C  C193  1  0.90060000  0.86700000  0.31020000  1
  C  C194  1  0.90130000  0.23990000  0.56340000  1
  C  C195  1  0.90130000  0.73990000  0.93660000  1
  C  C196  1  0.90220000  0.46030000  0.82510000  1
  C  C197  1  0.90220000  0.96030000  0.67490000  1
  C  C198  1  0.91200000  0.29220000  0.63740000  1
  C  C199  1  0.91200000  0.79220000  0.86260000  1
  C  C200  1  0.92310000  0.02100000  0.60380000  1
  C  C201  1  0.92310000  0.52100000  0.89620000  1
  C  C202  1  0.92550000  0.39650000  0.75760000  1
  C  C203  1  0.92550000  0.89650000  0.74240000  1
  C  C204  1  0.95520000  0.43300000  0.12710000  1
  C  C205  1  0.95520000  0.93300000  0.37290000  1
  C  C206  1  0.95940000  0.02450000  0.42240000  1
  C  C207  1  0.95940000  0.52450000  0.07760000  1
  C  C208  1  0.96240000  0.34700000  0.23620000  1
  C  C209  1  0.96240000  0.84700000  0.26380000  1
  C  C210  1  0.98910000  0.09270000  0.66720000  1
  C  C211  1  0.98910000  0.59270000  0.83280000  1
  C  C212  1  0.99230000  0.32390000  0.38220000  1
  C  C213  1  0.99230000  0.82390000  0.11780000  1
  C  C214  1  0.99760000  0.27200000  0.80980000  1
  C  C215  1  0.99760000  0.77200000  0.69020000  1
  O  O216  1  0.01820000  0.15916000  0.13311000  1
  O  O217  1  0.01820000  0.65916000  0.36689000  1
  O  O218  1  0.01860000  0.34910000  0.34476000  1
  O  O219  1  0.01860000  0.84910000  0.15524000  1
  O  O220  1  0.05480000  0.34290000  0.42006000  1
  O  O221  1  0.05480000  0.84290000  0.07994000  1
  O  O222  1  0.06050000  0.23882000  0.17359000  1
  O  O223  1  0.06050000  0.73882000  0.32641000  1
  O  O224  1  0.06780000  0.28030000  0.77055000  1
  O  O225  1  0.06780000  0.78030000  0.72945000  1
  O  O226  1  0.09660000  0.40550000  0.75768000  1
  O  O227  1  0.09660000  0.90550000  0.74232000  1
  O  O228  1  0.11670000  0.33080000  0.24230000  1
  O  O229  1  0.11670000  0.83080000  0.25770000  1
  O  O230  1  0.15050000  0.13811000  0.22968000  1
  O  O231  1  0.15050000  0.63811000  0.27032000  1
  O  O232  1  0.15720000  0.14740000  0.76924000  1
  O  O233  1  0.15720000  0.64740000  0.73076000  1
  O  O234  1  0.16940000  0.23390000  0.31600000  1
  O  O235  1  0.16940000  0.73390000  0.18400000  1
  O  O236  1  0.33333333  0.29980000  0.62453000  1
  O  O237  1  0.33333333  0.79980000  0.87547000  1
  O  O238  1  0.33410000  0.23582000  0.71210000  1
  O  O239  1  0.33410000  0.73582000  0.78790000  1
  O  O240  1  0.42230000  0.18629000  0.16761000  1
  O  O241  1  0.42230000  0.68629000  0.33239000  1
  O  O242  1  0.43810000  0.31660000  0.18825000  1
  O  O243  1  0.43810000  0.81660000  0.31175000  1
  O  O244  1  0.44630000  0.41450000  0.72595000  1
  O  O245  1  0.44630000  0.91450000  0.77405000  1
  O  O246  1  0.48690000  0.33404000  0.76441000  1
  O  O247  1  0.48690000  0.83404000  0.73559000  1
  O  O248  1  0.51310000  0.16596000  0.26441000  1
  O  O249  1  0.51310000  0.66596000  0.23559000  1
  O  O250  1  0.55370000  0.08550000  0.22595000  1
  O  O251  1  0.55370000  0.58550000  0.27405000  1
  O  O252  1  0.56190000  0.18340000  0.68825000  1
  O  O253  1  0.56190000  0.68340000  0.81175000  1
  O  O254  1  0.57770000  0.31371000  0.66761000  1
  O  O255  1  0.57770000  0.81371000  0.83239000  1
  O  O256  1  0.66590000  0.26418000  0.21210000  1
  O  O257  1  0.66590000  0.76418000  0.28790000  1
  O  O258  1  0.66666667  0.20020000  0.12453000  1
  O  O259  1  0.66666667  0.70020000  0.37547000  1
  O  O260  1  0.83060000  0.26610000  0.81600000  1
  O  O261  1  0.83060000  0.76610000  0.68400000  1
  O  O262  1  0.84280000  0.35260000  0.26924000  1
  O  O263  1  0.84280000  0.85260000  0.23076000  1
  O  O264  1  0.84950000  0.36189000  0.72968000  1
  O  O265  1  0.84950000  0.86189000  0.77032000  1
  O  O266  1  0.88330000  0.16920000  0.74230000  1
  O  O267  1  0.88330000  0.66920000  0.75770000  1
  O  O268  1  0.90340000  0.09450000  0.25768000  1
  O  O269  1  0.90340000  0.59450000  0.24232000  1
  O  O270  1  0.93220000  0.21970000  0.27055000  1
  O  O271  1  0.93220000  0.71970000  0.22945000  1
  O  O272  1  0.93950000  0.26118000  0.67359000  1
  O  O273  1  0.93950000  0.76118000  0.82641000  1
  O  O274  1  0.94520000  0.15710000  0.92006000  1
  O  O275  1  0.94520000  0.65710000  0.57994000  1
  O  O276  1  0.98140000  0.15090000  0.84476000  1
  O  O277  1  0.98140000  0.65090000  0.65524000  1
  O  O278  1  0.98180000  0.34084000  0.63311000  1
  O  O279  1  0.98180000  0.84084000  0.86689000  1
  F  F280  1  0.05750000  0.07044000  0.43424000  1
  F  F281  1  0.05750000  0.57044000  0.06576000  1
  F  F282  1  0.09610000  0.41547000  0.03954000  1
  F  F283  1  0.09610000  0.91547000  0.46046000  1
  F  F284  1  0.11440000  0.49636000  0.96101000  1
  F  F285  1  0.11440000  0.99636000  0.53899000  1
  F  F286  1  0.17800000  0.45771000  0.89670000  1
  F  F287  1  0.17800000  0.95771000  0.60330000  1
  F  F288  1  0.22590000  0.24110000  0.48706000  1
  F  F289  1  0.22590000  0.74110000  0.01294000  1
  F  F290  1  0.29990000  0.48326000  0.04387000  1
  F  F291  1  0.29990000  0.98326000  0.45613000  1
  F  F292  1  0.30670000  0.41109000  0.09008000  1
  F  F293  1  0.30670000  0.91109000  0.40992000  1
  F  F294  1  0.31440000  0.24000000  0.41701000  1
  F  F295  1  0.31440000  0.74000000  0.08299000  1
  F  F296  1  0.34890000  0.13080000  0.44836000  1
  F  F297  1  0.34890000  0.63080000  0.05164000  1
  F  F298  1  0.37840000  0.14520000  0.52060000  1
  F  F299  1  0.37840000  0.64520000  0.97940000  1
  F  F300  1  0.39850000  0.38759000  0.98152000  1
  F  F301  1  0.39850000  0.88759000  0.51848000  1
  F  F302  1  0.41810000  0.30570000  0.46297000  1
  F  F303  1  0.41810000  0.80570000  0.03703000  1
  F  F304  1  0.58190000  0.19430000  0.96297000  1
  F  F305  1  0.58190000  0.69430000  0.53703000  1
  F  F306  1  0.60150000  0.11241000  0.48152000  1
  F  F307  1  0.60150000  0.61241000  0.01848000  1
  F  F308  1  0.62160000  0.35480000  0.02060000  1
  F  F309  1  0.62160000  0.85480000  0.47940000  1
  F  F310  1  0.65110000  0.36920000  0.94836000  1
  F  F311  1  0.65110000  0.86920000  0.55164000  1
  F  F312  1  0.68560000  0.26000000  0.91701000  1
  F  F313  1  0.68560000  0.76000000  0.58299000  1
  F  F314  1  0.69330000  0.08891000  0.59008000  1
  F  F315  1  0.69330000  0.58891000  0.90992000  1
  F  F316  1  0.70010000  0.01674000  0.54387000  1
  F  F317  1  0.70010000  0.51674000  0.95613000  1
  F  F318  1  0.77410000  0.25890000  0.98706000  1
  F  F319  1  0.77410000  0.75890000  0.51294000  1
  F  F320  1  0.82200000  0.04229000  0.39670000  1
  F  F321  1  0.82200000  0.54229000  0.10330000  1
  F  F322  1  0.88560000  0.00364000  0.46101000  1
  F  F323  1  0.88560000  0.50364000  0.03899000  1
  F  F324  1  0.90390000  0.08453000  0.53954000  1
  F  F325  1  0.90390000  0.58453000  0.96046000  1
  F  F326  1  0.94250000  0.42956000  0.93424000  1
  F  F327  1  0.94250000  0.92956000  0.56576000  1
