# generated using pymatgen
data_AgH8(CN)2
_symmetry_space_group_name_H-M   'P 1'
_cell_length_a   6.30650000
_cell_length_b   7.40799464
_cell_length_c   7.40799464
_cell_angle_alpha   90.30243539
_cell_angle_beta   107.52232701
_cell_angle_gamma   107.52232701
_symmetry_Int_Tables_number   1
_chemical_formula_structural   AgH8(CN)2
_chemical_formula_sum   'Ag2 H16 C4 N4'
_cell_volume   312.96229321
_cell_formula_units_Z   2
loop_
 _symmetry_equiv_pos_site_id
 _symmetry_equiv_pos_as_xyz
  1  'x, y, z'
loop_
 _atom_site_type_symbol
 _atom_site_label
 _atom_site_symmetry_multiplicity
 _atom_site_fract_x
 _atom_site_fract_y
 _atom_site_fract_z
 _atom_site_occupancy
  Ag  Ag0  1  1.00000000  0.50000000  0.50000000  1
  Ag  Ag1  1  0.50000000  0.50000000  0.50000000  1
  C  C2  1  0.54630000  0.52580000  0.10600000  1
  C  C3  1  0.04630000  0.10600000  0.52580000  1
  C  C4  1  0.45370000  0.47420000  0.89400000  1
  C  C5  1  0.95370000  0.89400000  0.47420000  1
  H  H6  1  0.58080000  0.66170000  0.13270000  1
  H  H7  1  0.08080000  0.13270000  0.66170000  1
  H  H8  1  0.69190000  0.49690000  0.15650000  1
  H  H9  1  0.19190000  0.15650000  0.49690000  1
  H  H10  1  0.24490000  0.44800000  0.15240000  1
  H  H11  1  0.74490000  0.15240000  0.44800000  1
  H  H12  1  0.64640000  0.70140000  0.81920000  1
  H  H13  1  0.14640000  0.81920000  0.70140000  1
  H  H14  1  0.35360000  0.29860000  0.18080000  1
  H  H15  1  0.85360000  0.18080000  0.29860000  1
  H  H16  1  0.75510000  0.55200000  0.84760000  1
  H  H17  1  0.25510000  0.84760000  0.55200000  1
  H  H18  1  0.30810000  0.50310000  0.84350000  1
  H  H19  1  0.80810000  0.84350000  0.50310000  1
  H  H20  1  0.41920000  0.33830000  0.86730000  1
  H  H21  1  0.91920000  0.86730000  0.33830000  1
  N  N22  1  0.38160000  0.42460000  0.20300000  1
  N  N23  1  0.88160000  0.20300000  0.42460000  1
  N  N24  1  0.61840000  0.57540000  0.79700000  1
  N  N25  1  0.11840000  0.79700000  0.57540000  1
