# generated using pymatgen
data_NiH16C18(NO2)2
_symmetry_space_group_name_H-M   'P 1'
_cell_length_a   22.58920000
_cell_length_b   22.58920000
_cell_length_c   22.58920000
_cell_angle_alpha   60.00000000
_cell_angle_beta   60.00000000
_cell_angle_gamma   60.00000000
_symmetry_Int_Tables_number   1
_chemical_formula_structural   NiH16C18(NO2)2
_chemical_formula_sum   'Ni12 H192 C216 N24 O48'
_cell_volume   8150.56197283
_cell_formula_units_Z   12
loop_
 _symmetry_equiv_pos_site_id
 _symmetry_equiv_pos_as_xyz
  1  'x, y, z'
loop_
 _atom_site_type_symbol
 _atom_site_label
 _atom_site_symmetry_multiplicity
 _atom_site_fract_x
 _atom_site_fract_y
 _atom_site_fract_z
 _atom_site_occupancy
  Ni  Ni0  1  0.37500000  0.14680000  0.87500000  1
  Ni  Ni1  1  0.14680000  0.60320000  0.87500000  1
  Ni  Ni2  1  0.60320000  0.37500000  0.87500000  1
  Ni  Ni3  1  0.14680000  0.37500000  0.60320000  1
  Ni  Ni4  1  0.87500000  0.14680000  0.60320000  1
  Ni  Ni5  1  0.37500000  0.87500000  0.60320000  1
  Ni  Ni6  1  0.60320000  0.14680000  0.37500000  1
  Ni  Ni7  1  0.14680000  0.87500000  0.37500000  1
  Ni  Ni8  1  0.87500000  0.60320000  0.37500000  1
  Ni  Ni9  1  0.37500000  0.60320000  0.14680000  1
  Ni  Ni10  1  0.87500000  0.37500000  0.14680000  1
  Ni  Ni11  1  0.60320000  0.87500000  0.14680000  1
  H  H12  1  0.05750000  0.25490000  0.96610000  1
  H  H13  1  0.72150000  0.05750000  0.96610000  1
  H  H14  1  0.25490000  0.72150000  0.96610000  1
  H  H15  1  0.04920000  0.19180000  0.96300000  1
  H  H16  1  0.79600000  0.04920000  0.96300000  1
  H  H17  1  0.19180000  0.79600000  0.96300000  1
  H  H18  1  0.70080000  0.55820000  0.95400000  1
  H  H19  1  0.55820000  0.78700000  0.95400000  1
  H  H20  1  0.78700000  0.70080000  0.95400000  1
  H  H21  1  0.12520000  0.18620000  0.95380000  1
  H  H22  1  0.73480000  0.12520000  0.95380000  1
  H  H23  1  0.18620000  0.73480000  0.95380000  1
  H  H24  1  0.28110000  0.06070000  0.92590000  1
  H  H25  1  0.06070000  0.73230000  0.92590000  1
  H  H26  1  0.73230000  0.28110000  0.92590000  1
  H  H27  1  0.05900000  0.45100000  0.90340000  1
  H  H28  1  0.58660000  0.05900000  0.90340000  1
  H  H29  1  0.45100000  0.58660000  0.90340000  1
  H  H30  1  0.52660000  0.71600000  0.89620000  1
  H  H31  1  0.86120000  0.52660000  0.89620000  1
  H  H32  1  0.71600000  0.86120000  0.89620000  1
  H  H33  1  0.22340000  0.03400000  0.88880000  1
  H  H34  1  0.03400000  0.85380000  0.88880000  1
  H  H35  1  0.85380000  0.22340000  0.88880000  1
  H  H36  1  0.71600000  0.52660000  0.86120000  1
  H  H37  1  0.52660000  0.89620000  0.86120000  1
  H  H38  1  0.89620000  0.71600000  0.86120000  1
  H  H39  1  0.03400000  0.22340000  0.85380000  1
  H  H40  1  0.88880000  0.03400000  0.85380000  1
  H  H41  1  0.22340000  0.88880000  0.85380000  1
  H  H42  1  0.16340000  0.29900000  0.84660000  1
  H  H43  1  0.69100000  0.16340000  0.84660000  1
  H  H44  1  0.29900000  0.69100000  0.84660000  1
  H  H45  1  0.46890000  0.01770000  0.82410000  1
  H  H46  1  0.01770000  0.68930000  0.82410000  1
  H  H47  1  0.68930000  0.46890000  0.82410000  1
  H  H48  1  0.01520000  0.56380000  0.79620000  1
  H  H49  1  0.62480000  0.01520000  0.79620000  1
  H  H50  1  0.56380000  0.62480000  0.79620000  1
  H  H51  1  0.19180000  0.04920000  0.79600000  1
  H  H52  1  0.04920000  0.96300000  0.79600000  1
  H  H53  1  0.96300000  0.19180000  0.79600000  1
  H  H54  1  0.55820000  0.70080000  0.78700000  1
  H  H55  1  0.95400000  0.55820000  0.78700000  1
  H  H56  1  0.70080000  0.95400000  0.78700000  1
  H  H57  1  0.02850000  0.49510000  0.78390000  1
  H  H58  1  0.69250000  0.02850000  0.78390000  1
  H  H59  1  0.49510000  0.69250000  0.78390000  1
  H  H60  1  0.18620000  0.12520000  0.73480000  1
  H  H61  1  0.12520000  0.95380000  0.73480000  1
  H  H62  1  0.95380000  0.18620000  0.73480000  1
  H  H63  1  0.35310000  0.18850000  0.73410000  1
  H  H64  1  0.18850000  0.72430000  0.73410000  1
  H  H65  1  0.72430000  0.35310000  0.73410000  1
  H  H66  1  0.06070000  0.28110000  0.73230000  1
  H  H67  1  0.92590000  0.06070000  0.73230000  1
  H  H68  1  0.28110000  0.92590000  0.73230000  1
  H  H69  1  0.18850000  0.35310000  0.72430000  1
  H  H70  1  0.73410000  0.18850000  0.72430000  1
  H  H71  1  0.35310000  0.73410000  0.72430000  1
  H  H72  1  0.25490000  0.05750000  0.72150000  1
  H  H73  1  0.05750000  0.96610000  0.72150000  1
  H  H74  1  0.96610000  0.25490000  0.72150000  1
  H  H75  1  0.52660000  0.86120000  0.71600000  1
  H  H76  1  0.89620000  0.52660000  0.71600000  1
  H  H77  1  0.86120000  0.89620000  0.71600000  1
  H  H78  1  0.78700000  0.55820000  0.70080000  1
  H  H79  1  0.55820000  0.95400000  0.70080000  1
  H  H80  1  0.95400000  0.78700000  0.70080000  1
  H  H81  1  0.49510000  0.02850000  0.69250000  1
  H  H82  1  0.02850000  0.78390000  0.69250000  1
  H  H83  1  0.78390000  0.49510000  0.69250000  1
  H  H84  1  0.29900000  0.16340000  0.69100000  1
  H  H85  1  0.16340000  0.84660000  0.69100000  1
  H  H86  1  0.84660000  0.29900000  0.69100000  1
  H  H87  1  0.01770000  0.46890000  0.68930000  1
  H  H88  1  0.82410000  0.01770000  0.68930000  1
  H  H89  1  0.46890000  0.82410000  0.68930000  1
  H  H90  1  0.16550000  0.49530000  0.68890000  1
  H  H91  1  0.65030000  0.16550000  0.68890000  1
  H  H92  1  0.49530000  0.65030000  0.68890000  1
  H  H93  1  0.49530000  0.16550000  0.65030000  1
  H  H94  1  0.16550000  0.68890000  0.65030000  1
  H  H95  1  0.68890000  0.49530000  0.65030000  1
  H  H96  1  0.56380000  0.01520000  0.62480000  1
  H  H97  1  0.01520000  0.79620000  0.62480000  1
  H  H98  1  0.79620000  0.56380000  0.62480000  1
  H  H99  1  0.45100000  0.05900000  0.58660000  1
  H  H100  1  0.05900000  0.90340000  0.58660000  1
  H  H101  1  0.90340000  0.45100000  0.58660000  1
  H  H102  1  0.09970000  0.06110000  0.58450000  1
  H  H103  1  0.06110000  0.25470000  0.58450000  1
  H  H104  1  0.25470000  0.09970000  0.58450000  1
  H  H105  1  0.01520000  0.62480000  0.56380000  1
  H  H106  1  0.79620000  0.01520000  0.56380000  1
  H  H107  1  0.62480000  0.79620000  0.56380000  1
  H  H108  1  0.01590000  0.02570000  0.56150000  1
  H  H109  1  0.39690000  0.01590000  0.56150000  1
  H  H110  1  0.02570000  0.39690000  0.56150000  1
  H  H111  1  0.70080000  0.78700000  0.55820000  1
  H  H112  1  0.95400000  0.70080000  0.55820000  1
  H  H113  1  0.78700000  0.95400000  0.55820000  1
  H  H114  1  0.86120000  0.71600000  0.52660000  1
  H  H115  1  0.71600000  0.89620000  0.52660000  1
  H  H116  1  0.89620000  0.86120000  0.52660000  1
  H  H117  1  0.16550000  0.65030000  0.49530000  1
  H  H118  1  0.68890000  0.16550000  0.49530000  1
  H  H119  1  0.65030000  0.68890000  0.49530000  1
  H  H120  1  0.02850000  0.69250000  0.49510000  1
  H  H121  1  0.78390000  0.02850000  0.49510000  1
  H  H122  1  0.69250000  0.78390000  0.49510000  1
  H  H123  1  0.68930000  0.01770000  0.46890000  1
  H  H124  1  0.01770000  0.82410000  0.46890000  1
  H  H125  1  0.82410000  0.68930000  0.46890000  1
  H  H126  1  0.05900000  0.58660000  0.45100000  1
  H  H127  1  0.90340000  0.05900000  0.45100000  1
  H  H128  1  0.58660000  0.90340000  0.45100000  1
  H  H129  1  0.02570000  0.01590000  0.39690000  1
  H  H130  1  0.01590000  0.56150000  0.39690000  1
  H  H131  1  0.56150000  0.02570000  0.39690000  1
  H  H132  1  0.72430000  0.18850000  0.35310000  1
  H  H133  1  0.18850000  0.73410000  0.35310000  1
  H  H134  1  0.73410000  0.72430000  0.35310000  1
  H  H135  1  0.16340000  0.69100000  0.29900000  1
  H  H136  1  0.84660000  0.16340000  0.29900000  1
  H  H137  1  0.69100000  0.84660000  0.29900000  1
  H  H138  1  0.73230000  0.06070000  0.28110000  1
  H  H139  1  0.06070000  0.92590000  0.28110000  1
  H  H140  1  0.92590000  0.73230000  0.28110000  1
  H  H141  1  0.05750000  0.72150000  0.25490000  1
  H  H142  1  0.96610000  0.05750000  0.25490000  1
  H  H143  1  0.72150000  0.96610000  0.25490000  1
  H  H144  1  0.06110000  0.09970000  0.25470000  1
  H  H145  1  0.58450000  0.06110000  0.25470000  1
  H  H146  1  0.09970000  0.58450000  0.25470000  1
  H  H147  1  0.85380000  0.03400000  0.22340000  1
  H  H148  1  0.03400000  0.88880000  0.22340000  1
  H  H149  1  0.88880000  0.85380000  0.22340000  1
  H  H150  1  0.04920000  0.79600000  0.19180000  1
  H  H151  1  0.96300000  0.04920000  0.19180000  1
  H  H152  1  0.79600000  0.96300000  0.19180000  1
  H  H153  1  0.35310000  0.72430000  0.18850000  1
  H  H154  1  0.73410000  0.35310000  0.18850000  1
  H  H155  1  0.72430000  0.73410000  0.18850000  1
  H  H156  1  0.12520000  0.73480000  0.18620000  1
  H  H157  1  0.95380000  0.12520000  0.18620000  1
  H  H158  1  0.73480000  0.95380000  0.18620000  1
  H  H159  1  0.65030000  0.49530000  0.16550000  1
  H  H160  1  0.49530000  0.68890000  0.16550000  1
  H  H161  1  0.68890000  0.65030000  0.16550000  1
  H  H162  1  0.69100000  0.29900000  0.16340000  1
  H  H163  1  0.29900000  0.84660000  0.16340000  1
  H  H164  1  0.84660000  0.69100000  0.16340000  1
  H  H165  1  0.73480000  0.18620000  0.12520000  1
  H  H166  1  0.18620000  0.95380000  0.12520000  1
  H  H167  1  0.95380000  0.73480000  0.12520000  1
  H  H168  1  0.25470000  0.06110000  0.09970000  1
  H  H169  1  0.06110000  0.58450000  0.09970000  1
  H  H170  1  0.58450000  0.25470000  0.09970000  1
  H  H171  1  0.09970000  0.25470000  0.06110000  1
  H  H172  1  0.58450000  0.09970000  0.06110000  1
  H  H173  1  0.25470000  0.58450000  0.06110000  1
  H  H174  1  0.28110000  0.73230000  0.06070000  1
  H  H175  1  0.92590000  0.28110000  0.06070000  1
  H  H176  1  0.73230000  0.92590000  0.06070000  1
  H  H177  1  0.58660000  0.45100000  0.05900000  1
  H  H178  1  0.45100000  0.90340000  0.05900000  1
  H  H179  1  0.90340000  0.58660000  0.05900000  1
  H  H180  1  0.72150000  0.25490000  0.05750000  1
  H  H181  1  0.25490000  0.96610000  0.05750000  1
  H  H182  1  0.96610000  0.72150000  0.05750000  1
  H  H183  1  0.79600000  0.19180000  0.04920000  1
  H  H184  1  0.19180000  0.96300000  0.04920000  1
  H  H185  1  0.96300000  0.79600000  0.04920000  1
  H  H186  1  0.22340000  0.85380000  0.03400000  1
  H  H187  1  0.88880000  0.22340000  0.03400000  1
  H  H188  1  0.85380000  0.88880000  0.03400000  1
  H  H189  1  0.69250000  0.49510000  0.02850000  1
  H  H190  1  0.49510000  0.78390000  0.02850000  1
  H  H191  1  0.78390000  0.69250000  0.02850000  1
  H  H192  1  0.01590000  0.39690000  0.02570000  1
  H  H193  1  0.56150000  0.01590000  0.02570000  1
  H  H194  1  0.39690000  0.56150000  0.02570000  1
  H  H195  1  0.46890000  0.68930000  0.01770000  1
  H  H196  1  0.82410000  0.46890000  0.01770000  1
  H  H197  1  0.68930000  0.82410000  0.01770000  1
  H  H198  1  0.39690000  0.02570000  0.01590000  1
  H  H199  1  0.02570000  0.56150000  0.01590000  1
  H  H200  1  0.56150000  0.39690000  0.01590000  1
  H  H201  1  0.62480000  0.56380000  0.01520000  1
  H  H202  1  0.56380000  0.79620000  0.01520000  1
  H  H203  1  0.79620000  0.62480000  0.01520000  1
  C  C204  1  0.42320000  0.59320000  0.99980000  1
  C  C205  1  0.98380000  0.42320000  0.99980000  1
  C  C206  1  0.59320000  0.98380000  0.99980000  1
  C  C207  1  0.46550000  0.66730000  0.99450000  1
  C  C208  1  0.87270000  0.46550000  0.99450000  1
  C  C209  1  0.66730000  0.87270000  0.99450000  1
  C  C210  1  0.66920000  0.53140000  0.99320000  1
  C  C211  1  0.53140000  0.80620000  0.99320000  1
  C  C212  1  0.80620000  0.66920000  0.99320000  1
  C  C213  1  0.23560000  0.18720000  0.99280000  1
  C  C214  1  0.18720000  0.58440000  0.99280000  1
  C  C215  1  0.58440000  0.23560000  0.99280000  1
  C  C216  1  0.59320000  0.42320000  0.98380000  1
  C  C217  1  0.42320000  0.99980000  0.98380000  1
  C  C218  1  0.99980000  0.59320000  0.98380000  1
  C  C219  1  0.65310000  0.49550000  0.96410000  1
  C  C220  1  0.49550000  0.88730000  0.96410000  1
  C  C221  1  0.88730000  0.65310000  0.96410000  1
  C  C222  1  0.08080000  0.21860000  0.94380000  1
  C  C223  1  0.75680000  0.08080000  0.94380000  1
  C  C224  1  0.21860000  0.75680000  0.94380000  1
  C  C225  1  0.01010000  0.45570000  0.92650000  1
  C  C226  1  0.60770000  0.01010000  0.92650000  1
  C  C227  1  0.45570000  0.60770000  0.92650000  1
  C  C228  1  0.50040000  0.68420000  0.92140000  1
  C  C229  1  0.89400000  0.50040000  0.92140000  1
  C  C230  1  0.68420000  0.89400000  0.92140000  1
  C  C231  1  0.68420000  0.50040000  0.89400000  1
  C  C232  1  0.50040000  0.92140000  0.89400000  1
  C  C233  1  0.92140000  0.68420000  0.89400000  1
  C  C234  1  0.49550000  0.65310000  0.88730000  1
  C  C235  1  0.96410000  0.49550000  0.88730000  1
  C  C236  1  0.65310000  0.96410000  0.88730000  1
  C  C237  1  0.28450000  0.08270000  0.87730000  1
  C  C238  1  0.08270000  0.75550000  0.87730000  1
  C  C239  1  0.75550000  0.28450000  0.87730000  1
  C  C240  1  0.66730000  0.46550000  0.87270000  1
  C  C241  1  0.46550000  0.99450000  0.87270000  1
  C  C242  1  0.99450000  0.66730000  0.87270000  1
  C  C243  1  0.09690000  0.25450000  0.86270000  1
  C  C244  1  0.78590000  0.09690000  0.86270000  1
  C  C245  1  0.25450000  0.78590000  0.86270000  1
  C  C246  1  0.24960000  0.06580000  0.85600000  1
  C  C247  1  0.06580000  0.82860000  0.85600000  1
  C  C248  1  0.82860000  0.24960000  0.85600000  1
  C  C249  1  0.06580000  0.24960000  0.82860000  1
  C  C250  1  0.85600000  0.06580000  0.82860000  1
  C  C251  1  0.24960000  0.85600000  0.82860000  1
  C  C252  1  0.14230000  0.29430000  0.82350000  1
  C  C253  1  0.73990000  0.14230000  0.82350000  1
  C  C254  1  0.29430000  0.73990000  0.82350000  1
  C  C255  1  0.53140000  0.66920000  0.80620000  1
  C  C256  1  0.99320000  0.53140000  0.80620000  1
  C  C257  1  0.66920000  0.99320000  0.80620000  1
  C  C258  1  0.25450000  0.09690000  0.78590000  1
  C  C259  1  0.09690000  0.86270000  0.78590000  1
  C  C260  1  0.86270000  0.25450000  0.78590000  1
  C  C261  1  0.32680000  0.15680000  0.76620000  1
  C  C262  1  0.15680000  0.75020000  0.76620000  1
  C  C263  1  0.75020000  0.32680000  0.76620000  1
  C  C264  1  0.51440000  0.16560000  0.75720000  1
  C  C265  1  0.16560000  0.56280000  0.75720000  1
  C  C266  1  0.56280000  0.51440000  0.75720000  1
  C  C267  1  0.21860000  0.08080000  0.75680000  1
  C  C268  1  0.08080000  0.94380000  0.75680000  1
  C  C269  1  0.94380000  0.21860000  0.75680000  1
  C  C270  1  0.08270000  0.28450000  0.75550000  1
  C  C271  1  0.87730000  0.08270000  0.75550000  1
  C  C272  1  0.28450000  0.87730000  0.75550000  1
  C  C273  1  0.15680000  0.32680000  0.75020000  1
  C  C274  1  0.76620000  0.15680000  0.75020000  1
  C  C275  1  0.32680000  0.76620000  0.75020000  1
  C  C276  1  0.29430000  0.14230000  0.73990000  1
  C  C277  1  0.14230000  0.82350000  0.73990000  1
  C  C278  1  0.82350000  0.29430000  0.73990000  1
  C  C279  1  0.50040000  0.89400000  0.68420000  1
  C  C280  1  0.92140000  0.50040000  0.68420000  1
  C  C281  1  0.89400000  0.92140000  0.68420000  1
  C  C282  1  0.56480000  0.16500000  0.68180000  1
  C  C283  1  0.16500000  0.58840000  0.68180000  1
  C  C284  1  0.58840000  0.56480000  0.68180000  1
  C  C285  1  0.80620000  0.53140000  0.66920000  1
  C  C286  1  0.53140000  0.99320000  0.66920000  1
  C  C287  1  0.99320000  0.80620000  0.66920000  1
  C  C288  1  0.46550000  0.87270000  0.66730000  1
  C  C289  1  0.99450000  0.46550000  0.66730000  1
  C  C290  1  0.87270000  0.99450000  0.66730000  1
  C  C291  1  0.16510000  0.54210000  0.65790000  1
  C  C292  1  0.63490000  0.16510000  0.65790000  1
  C  C293  1  0.54210000  0.63490000  0.65790000  1
  C  C294  1  0.88730000  0.49550000  0.65310000  1
  C  C295  1  0.49550000  0.96410000  0.65310000  1
  C  C296  1  0.96410000  0.88730000  0.65310000  1
  C  C297  1  0.54210000  0.16510000  0.63490000  1
  C  C298  1  0.16510000  0.65790000  0.63490000  1
  C  C299  1  0.65790000  0.54210000  0.63490000  1
  C  C300  1  0.45570000  0.01010000  0.60770000  1
  C  C301  1  0.01010000  0.92650000  0.60770000  1
  C  C302  1  0.92650000  0.45570000  0.60770000  1
  C  C303  1  0.42320000  0.98380000  0.59320000  1
  C  C304  1  0.99980000  0.42320000  0.59320000  1
  C  C305  1  0.98380000  0.99980000  0.59320000  1
  C  C306  1  0.16500000  0.56480000  0.58840000  1
  C  C307  1  0.68180000  0.16500000  0.58840000  1
  C  C308  1  0.56480000  0.68180000  0.58840000  1
  C  C309  1  0.06820000  0.16160000  0.58500000  1
  C  C310  1  0.18520000  0.06820000  0.58500000  1
  C  C311  1  0.16160000  0.18520000  0.58500000  1
  C  C312  1  0.11510000  0.09210000  0.58490000  1
  C  C313  1  0.09210000  0.20790000  0.58490000  1
  C  C314  1  0.20790000  0.11510000  0.58490000  1
  C  C315  1  0.18720000  0.23560000  0.58440000  1
  C  C316  1  0.99280000  0.18720000  0.58440000  1
  C  C317  1  0.23560000  0.99280000  0.58440000  1
  C  C318  1  0.58840000  0.16500000  0.56480000  1
  C  C319  1  0.16500000  0.68180000  0.56480000  1
  C  C320  1  0.68180000  0.58840000  0.56480000  1
  C  C321  1  0.16560000  0.51440000  0.56280000  1
  C  C322  1  0.75720000  0.16560000  0.56280000  1
  C  C323  1  0.51440000  0.75720000  0.56280000  1
  C  C324  1  0.16510000  0.63490000  0.54210000  1
  C  C325  1  0.65790000  0.16510000  0.54210000  1
  C  C326  1  0.63490000  0.65790000  0.54210000  1
  C  C327  1  0.66920000  0.80620000  0.53140000  1
  C  C328  1  0.99320000  0.66920000  0.53140000  1
  C  C329  1  0.80620000  0.99320000  0.53140000  1
  C  C330  1  0.56280000  0.16560000  0.51440000  1
  C  C331  1  0.16560000  0.75720000  0.51440000  1
  C  C332  1  0.75720000  0.56280000  0.51440000  1
  C  C333  1  0.89400000  0.68420000  0.50040000  1
  C  C334  1  0.68420000  0.92140000  0.50040000  1
  C  C335  1  0.92140000  0.89400000  0.50040000  1
  C  C336  1  0.65310000  0.88730000  0.49550000  1
  C  C337  1  0.96410000  0.65310000  0.49550000  1
  C  C338  1  0.88730000  0.96410000  0.49550000  1
  C  C339  1  0.87270000  0.66730000  0.46550000  1
  C  C340  1  0.66730000  0.99450000  0.46550000  1
  C  C341  1  0.99450000  0.87270000  0.46550000  1
  C  C342  1  0.01010000  0.60770000  0.45570000  1
  C  C343  1  0.92650000  0.01010000  0.45570000  1
  C  C344  1  0.60770000  0.92650000  0.45570000  1
  C  C345  1  0.98380000  0.59320000  0.42320000  1
  C  C346  1  0.59320000  0.99980000  0.42320000  1
  C  C347  1  0.99980000  0.98380000  0.42320000  1
  C  C348  1  0.75020000  0.15680000  0.32680000  1
  C  C349  1  0.15680000  0.76620000  0.32680000  1
  C  C350  1  0.76620000  0.75020000  0.32680000  1
  C  C351  1  0.14230000  0.73990000  0.29430000  1
  C  C352  1  0.82350000  0.14230000  0.29430000  1
  C  C353  1  0.73990000  0.82350000  0.29430000  1
  C  C354  1  0.75550000  0.08270000  0.28450000  1
  C  C355  1  0.08270000  0.87730000  0.28450000  1
  C  C356  1  0.87730000  0.75550000  0.28450000  1
  C  C357  1  0.09690000  0.78590000  0.25450000  1
  C  C358  1  0.86270000  0.09690000  0.25450000  1
  C  C359  1  0.78590000  0.86270000  0.25450000  1
  C  C360  1  0.82860000  0.06580000  0.24960000  1
  C  C361  1  0.06580000  0.85600000  0.24960000  1
  C  C362  1  0.85600000  0.82860000  0.24960000  1
  C  C363  1  0.58440000  0.18720000  0.23560000  1
  C  C364  1  0.18720000  0.99280000  0.23560000  1
  C  C365  1  0.99280000  0.58440000  0.23560000  1
  C  C366  1  0.08080000  0.75680000  0.21860000  1
  C  C367  1  0.94380000  0.08080000  0.21860000  1
  C  C368  1  0.75680000  0.94380000  0.21860000  1
  C  C369  1  0.09210000  0.11510000  0.20790000  1
  C  C370  1  0.58490000  0.09210000  0.20790000  1
  C  C371  1  0.11510000  0.58490000  0.20790000  1
  C  C372  1  0.23560000  0.58440000  0.18720000  1
  C  C373  1  0.99280000  0.23560000  0.18720000  1
  C  C374  1  0.58440000  0.99280000  0.18720000  1
  C  C375  1  0.16160000  0.06820000  0.18520000  1
  C  C376  1  0.06820000  0.58500000  0.18520000  1
  C  C377  1  0.58500000  0.16160000  0.18520000  1
  C  C378  1  0.51440000  0.56280000  0.16560000  1
  C  C379  1  0.75720000  0.51440000  0.16560000  1
  C  C380  1  0.56280000  0.75720000  0.16560000  1
  C  C381  1  0.63490000  0.54210000  0.16510000  1
  C  C382  1  0.54210000  0.65790000  0.16510000  1
  C  C383  1  0.65790000  0.63490000  0.16510000  1
  C  C384  1  0.56480000  0.58840000  0.16500000  1
  C  C385  1  0.68180000  0.56480000  0.16500000  1
  C  C386  1  0.58840000  0.68180000  0.16500000  1
  C  C387  1  0.06820000  0.18520000  0.16160000  1
  C  C388  1  0.58500000  0.06820000  0.16160000  1
  C  C389  1  0.18520000  0.58500000  0.16160000  1
  C  C390  1  0.32680000  0.75020000  0.15680000  1
  C  C391  1  0.76620000  0.32680000  0.15680000  1
  C  C392  1  0.75020000  0.76620000  0.15680000  1
  C  C393  1  0.73990000  0.29430000  0.14230000  1
  C  C394  1  0.29430000  0.82350000  0.14230000  1
  C  C395  1  0.82350000  0.73990000  0.14230000  1
  C  C396  1  0.20790000  0.09210000  0.11510000  1
  C  C397  1  0.09210000  0.58490000  0.11510000  1
  C  C398  1  0.58490000  0.20790000  0.11510000  1
  C  C399  1  0.78590000  0.25450000  0.09690000  1
  C  C400  1  0.25450000  0.86270000  0.09690000  1
  C  C401  1  0.86270000  0.78590000  0.09690000  1
  C  C402  1  0.11510000  0.20790000  0.09210000  1
  C  C403  1  0.58490000  0.11510000  0.09210000  1
  C  C404  1  0.20790000  0.58490000  0.09210000  1
  C  C405  1  0.28450000  0.75550000  0.08270000  1
  C  C406  1  0.87730000  0.28450000  0.08270000  1
  C  C407  1  0.75550000  0.87730000  0.08270000  1
  C  C408  1  0.75680000  0.21860000  0.08080000  1
  C  C409  1  0.21860000  0.94380000  0.08080000  1
  C  C410  1  0.94380000  0.75680000  0.08080000  1
  C  C411  1  0.18520000  0.16160000  0.06820000  1
  C  C412  1  0.16160000  0.58500000  0.06820000  1
  C  C413  1  0.58500000  0.18520000  0.06820000  1
  C  C414  1  0.24960000  0.82860000  0.06580000  1
  C  C415  1  0.85600000  0.24960000  0.06580000  1
  C  C416  1  0.82860000  0.85600000  0.06580000  1
  C  C417  1  0.60770000  0.45570000  0.01010000  1
  C  C418  1  0.45570000  0.92650000  0.01010000  1
  C  C419  1  0.92650000  0.60770000  0.01010000  1
  N  N420  1  0.42730000  0.03610000  0.91390000  1
  N  N421  1  0.03610000  0.62270000  0.91390000  1
  N  N422  1  0.62270000  0.42730000  0.91390000  1
  N  N423  1  0.32270000  0.12730000  0.83610000  1
  N  N424  1  0.12730000  0.71390000  0.83610000  1
  N  N425  1  0.71390000  0.32270000  0.83610000  1
  N  N426  1  0.12730000  0.32270000  0.71390000  1
  N  N427  1  0.83610000  0.12730000  0.71390000  1
  N  N428  1  0.32270000  0.83610000  0.71390000  1
  N  N429  1  0.03610000  0.42730000  0.62270000  1
  N  N430  1  0.91390000  0.03610000  0.62270000  1
  N  N431  1  0.42730000  0.91390000  0.62270000  1
  N  N432  1  0.62270000  0.03610000  0.42730000  1
  N  N433  1  0.03610000  0.91390000  0.42730000  1
  N  N434  1  0.91390000  0.62270000  0.42730000  1
  N  N435  1  0.71390000  0.12730000  0.32270000  1
  N  N436  1  0.12730000  0.83610000  0.32270000  1
  N  N437  1  0.83610000  0.71390000  0.32270000  1
  N  N438  1  0.32270000  0.71390000  0.12730000  1
  N  N439  1  0.83610000  0.32270000  0.12730000  1
  N  N440  1  0.71390000  0.83610000  0.12730000  1
  N  N441  1  0.42730000  0.62270000  0.03610000  1
  N  N442  1  0.91390000  0.42730000  0.03610000  1
  N  N443  1  0.62270000  0.91390000  0.03610000  1
  O  O444  1  0.29370000  0.13870000  0.97190000  1
  O  O445  1  0.13870000  0.59570000  0.97190000  1
  O  O446  1  0.59570000  0.29370000  0.97190000  1
  O  O447  1  0.21750000  0.25250000  0.95590000  1
  O  O448  1  0.57410000  0.21750000  0.95590000  1
  O  O449  1  0.25250000  0.57410000  0.95590000  1
  O  O450  1  0.17590000  0.49750000  0.79410000  1
  O  O451  1  0.53250000  0.17590000  0.79410000  1
  O  O452  1  0.49750000  0.53250000  0.79410000  1
  O  O453  1  0.45630000  0.15430000  0.77810000  1
  O  O454  1  0.15430000  0.61130000  0.77810000  1
  O  O455  1  0.61130000  0.45630000  0.77810000  1
  O  O456  1  0.15430000  0.45630000  0.61130000  1
  O  O457  1  0.77810000  0.15430000  0.61130000  1
  O  O458  1  0.45630000  0.77810000  0.61130000  1
  O  O459  1  0.13870000  0.29370000  0.59570000  1
  O  O460  1  0.97190000  0.13870000  0.59570000  1
  O  O461  1  0.29370000  0.97190000  0.59570000  1
  O  O462  1  0.25250000  0.21750000  0.57410000  1
  O  O463  1  0.21750000  0.95590000  0.57410000  1
  O  O464  1  0.95590000  0.25250000  0.57410000  1
  O  O465  1  0.49750000  0.17590000  0.53250000  1
  O  O466  1  0.17590000  0.79410000  0.53250000  1
  O  O467  1  0.79410000  0.49750000  0.53250000  1
  O  O468  1  0.17590000  0.53250000  0.49750000  1
  O  O469  1  0.79410000  0.17590000  0.49750000  1
  O  O470  1  0.53250000  0.79410000  0.49750000  1
  O  O471  1  0.61130000  0.15430000  0.45630000  1
  O  O472  1  0.15430000  0.77810000  0.45630000  1
  O  O473  1  0.77810000  0.61130000  0.45630000  1
  O  O474  1  0.59570000  0.13870000  0.29370000  1
  O  O475  1  0.13870000  0.97190000  0.29370000  1
  O  O476  1  0.97190000  0.59570000  0.29370000  1
  O  O477  1  0.21750000  0.57410000  0.25250000  1
  O  O478  1  0.95590000  0.21750000  0.25250000  1
  O  O479  1  0.57410000  0.95590000  0.25250000  1
  O  O480  1  0.57410000  0.25250000  0.21750000  1
  O  O481  1  0.25250000  0.95590000  0.21750000  1
  O  O482  1  0.95590000  0.57410000  0.21750000  1
  O  O483  1  0.53250000  0.49750000  0.17590000  1
  O  O484  1  0.49750000  0.79410000  0.17590000  1
  O  O485  1  0.79410000  0.53250000  0.17590000  1
  O  O486  1  0.45630000  0.61130000  0.15430000  1
  O  O487  1  0.77810000  0.45630000  0.15430000  1
  O  O488  1  0.61130000  0.77810000  0.15430000  1
  O  O489  1  0.29370000  0.59570000  0.13870000  1
  O  O490  1  0.97190000  0.29370000  0.13870000  1
  O  O491  1  0.59570000  0.97190000  0.13870000  1
