# generated using pymatgen
data_Mn2H39C63(N2O)6
_symmetry_space_group_name_H-M   'P 1'
_cell_length_a   14.13300000
_cell_length_b   17.10700000
_cell_length_c   17.10700000
_cell_angle_alpha   120.00000000
_cell_angle_beta   90.00000000
_cell_angle_gamma   90.00000000
_symmetry_Int_Tables_number   1
_chemical_formula_structural   Mn2H39C63(N2O)6
_chemical_formula_sum   'Mn4 H78 C126 N24 O12'
_cell_volume   3581.89376834
_cell_formula_units_Z   2
loop_
 _symmetry_equiv_pos_site_id
 _symmetry_equiv_pos_as_xyz
  1  'x, y, z'
loop_
 _atom_site_type_symbol
 _atom_site_label
 _atom_site_symmetry_multiplicity
 _atom_site_fract_x
 _atom_site_fract_y
 _atom_site_fract_z
 _atom_site_occupancy
  Mn  Mn0  1  0.39325000  0.66666667  0.33333333  1
  Mn  Mn1  1  0.10675000  0.66666667  0.33333333  1
  Mn  Mn2  1  0.89325000  0.33333333  0.66666667  1
  Mn  Mn3  1  0.60675000  0.33333333  0.66666667  1
  H  H4  1  0.08980000  0.99210000  0.31470000  1
  H  H5  1  0.41020000  0.99210000  0.67740000  1
  H  H6  1  0.48890000  0.98850000  0.20800000  1
  H  H7  1  0.01110000  0.98850000  0.78050000  1
  H  H8  1  0.11790000  0.93830000  0.42470000  1
  H  H9  1  0.38210000  0.93830000  0.51360000  1
  H  H10  1  0.37420000  0.87600000  0.15210000  1
  H  H11  1  0.12580000  0.87600000  0.72390000  1
  H  H12  1  0.12580000  0.84790000  0.12400000  1
  H  H13  1  0.37420000  0.84790000  0.72390000  1
  H  H14  1  0.75000000  0.82730000  0.41365000  1
  H  H15  1  0.13270000  0.79870000  0.22810000  1
  H  H16  1  0.36730000  0.79870000  0.57060000  1
  H  H17  1  0.01110000  0.79200000  0.01150000  1
  H  H18  1  0.48890000  0.79200000  0.78050000  1
  H  H19  1  0.91790000  0.78900000  0.36640000  1
  H  H20  1  0.58210000  0.78900000  0.42260000  1
  H  H21  1  0.98890000  0.78050000  0.79200000  1
  H  H22  1  0.51110000  0.78050000  0.98850000  1
  H  H23  1  0.36730000  0.77190000  0.20130000  1
  H  H24  1  0.13270000  0.77190000  0.57060000  1
  H  H25  1  0.87420000  0.72390000  0.84790000  1
  H  H26  1  0.62580000  0.72390000  0.87600000  1
  H  H27  1  0.41020000  0.68530000  0.00790000  1
  H  H28  1  0.08980000  0.68530000  0.67740000  1
  H  H29  1  0.58980000  0.67740000  0.68530000  1
  H  H30  1  0.91020000  0.67740000  0.99210000  1
  H  H31  1  0.58210000  0.63360000  0.21100000  1
  H  H32  1  0.91790000  0.63360000  0.42260000  1
  H  H33  1  0.75000000  0.58635000  0.17270000  1
  H  H34  1  0.75000000  0.58635000  0.41365000  1
  H  H35  1  0.91790000  0.57740000  0.21100000  1
  H  H36  1  0.58210000  0.57740000  0.36640000  1
  H  H37  1  0.38210000  0.57530000  0.06170000  1
  H  H38  1  0.11790000  0.57530000  0.51360000  1
  H  H39  1  0.63270000  0.57060000  0.77190000  1
  H  H40  1  0.86730000  0.57060000  0.79870000  1
  H  H41  1  0.61790000  0.51360000  0.57530000  1
  H  H42  1  0.88210000  0.51360000  0.93830000  1
  H  H43  1  0.11790000  0.48640000  0.06170000  1
  H  H44  1  0.38210000  0.48640000  0.42470000  1
  H  H45  1  0.13270000  0.42940000  0.20130000  1
  H  H46  1  0.36730000  0.42940000  0.22810000  1
  H  H47  1  0.88210000  0.42470000  0.48640000  1
  H  H48  1  0.61790000  0.42470000  0.93830000  1
  H  H49  1  0.41790000  0.42260000  0.63360000  1
  H  H50  1  0.08210000  0.42260000  0.78900000  1
  H  H51  1  0.25000000  0.41365000  0.58635000  1
  H  H52  1  0.25000000  0.41365000  0.82730000  1
  H  H53  1  0.08210000  0.36640000  0.57740000  1
  H  H54  1  0.41790000  0.36640000  0.78900000  1
  H  H55  1  0.08980000  0.32260000  0.00790000  1
  H  H56  1  0.41020000  0.32260000  0.31470000  1
  H  H57  1  0.91020000  0.31470000  0.32260000  1
  H  H58  1  0.58980000  0.31470000  0.99210000  1
  H  H59  1  0.37420000  0.27610000  0.12400000  1
  H  H60  1  0.12580000  0.27610000  0.15210000  1
  H  H61  1  0.86730000  0.22810000  0.42940000  1
  H  H62  1  0.63270000  0.22810000  0.79870000  1
  H  H63  1  0.48890000  0.21950000  0.01150000  1
  H  H64  1  0.01110000  0.21950000  0.20800000  1
  H  H65  1  0.41790000  0.21100000  0.57740000  1
  H  H66  1  0.08210000  0.21100000  0.63360000  1
  H  H67  1  0.51110000  0.20800000  0.21950000  1
  H  H68  1  0.98890000  0.20800000  0.98850000  1
  H  H69  1  0.63270000  0.20130000  0.42940000  1
  H  H70  1  0.86730000  0.20130000  0.77190000  1
  H  H71  1  0.25000000  0.17270000  0.58635000  1
  H  H72  1  0.62580000  0.15210000  0.27610000  1
  H  H73  1  0.87420000  0.15210000  0.87600000  1
  H  H74  1  0.87420000  0.12400000  0.27610000  1
  H  H75  1  0.62580000  0.12400000  0.84790000  1
  H  H76  1  0.61790000  0.06170000  0.48640000  1
  H  H77  1  0.88210000  0.06170000  0.57530000  1
  H  H78  1  0.98890000  0.01150000  0.21950000  1
  H  H79  1  0.51110000  0.01150000  0.79200000  1
  H  H80  1  0.58980000  0.00790000  0.32260000  1
  H  H81  1  0.91020000  0.00790000  0.68530000  1
  C  C82  1  0.17080000  0.96960000  0.45790000  1
  C  C83  1  0.32920000  0.96960000  0.51170000  1
  C  C84  1  0.54600000  0.96100000  0.29830000  1
  C  C85  1  0.95400000  0.96100000  0.66270000  1
  C  C86  1  0.48500000  0.94950000  0.23100000  1
  C  C87  1  0.01500000  0.94950000  0.71850000  1
  C  C88  1  0.67230000  0.93760000  0.44180000  1
  C  C89  1  0.82770000  0.93760000  0.49580000  1
  C  C90  1  0.25000000  0.92360000  0.46180000  1
  C  C91  1  0.53940000  0.89980000  0.32870000  1
  C  C92  1  0.96060000  0.89980000  0.57110000  1
  C  C93  1  0.75000000  0.89000000  0.44500000  1
  C  C94  1  0.41640000  0.88020000  0.19570000  1
  C  C95  1  0.08360000  0.88020000  0.68450000  1
  C  C96  1  0.47370000  0.82770000  0.29200000  1
  C  C97  1  0.02630000  0.82770000  0.53570000  1
  C  C98  1  0.25000000  0.82120000  0.41060000  1
  C  C99  1  0.41140000  0.81850000  0.22550000  1
  C  C100  1  0.08860000  0.81850000  0.59300000  1
  C  C101  1  0.55790000  0.81180000  0.38750000  1
  C  C102  1  0.94210000  0.81180000  0.42430000  1
  C  C103  1  0.08360000  0.80430000  0.11980000  1
  C  C104  1  0.41640000  0.80430000  0.68450000  1
  C  C105  1  0.08860000  0.77450000  0.18150000  1
  C  C106  1  0.41140000  0.77450000  0.59300000  1
  C  C107  1  0.01500000  0.76900000  0.05050000  1
  C  C108  1  0.48500000  0.76900000  0.71850000  1
  C  C109  1  0.98500000  0.71850000  0.76900000  1
  C  C110  1  0.51500000  0.71850000  0.94950000  1
  C  C111  1  0.02630000  0.70800000  0.17230000  1
  C  C112  1  0.47370000  0.70800000  0.53570000  1
  C  C113  1  0.95400000  0.70170000  0.03900000  1
  C  C114  1  0.54600000  0.70170000  0.66270000  1
  C  C115  1  0.91640000  0.68450000  0.80430000  1
  C  C116  1  0.58360000  0.68450000  0.88020000  1
  C  C117  1  0.96060000  0.67130000  0.10020000  1
  C  C118  1  0.53940000  0.67130000  0.57110000  1
  C  C119  1  0.04600000  0.66270000  0.70170000  1
  C  C120  1  0.45400000  0.66270000  0.96100000  1
  C  C121  1  0.94210000  0.61250000  0.18820000  1
  C  C122  1  0.55790000  0.61250000  0.42430000  1
  C  C123  1  0.91140000  0.59300000  0.77450000  1
  C  C124  1  0.58860000  0.59300000  0.81850000  1
  C  C125  1  0.25000000  0.58940000  0.17880000  1
  C  C126  1  0.25000000  0.58940000  0.41060000  1
  C  C127  1  0.55790000  0.57570000  0.18820000  1
  C  C128  1  0.94210000  0.57570000  0.38750000  1
  C  C129  1  0.03940000  0.57110000  0.67130000  1
  C  C130  1  0.46060000  0.57110000  0.89980000  1
  C  C131  1  0.82770000  0.55820000  0.06240000  1
  C  C132  1  0.67230000  0.55820000  0.49580000  1
  C  C133  1  0.75000000  0.55500000  0.11000000  1
  C  C134  1  0.75000000  0.55500000  0.44500000  1
  C  C135  1  0.32920000  0.54210000  0.03040000  1
  C  C136  1  0.17080000  0.54210000  0.51170000  1
  C  C137  1  0.25000000  0.53820000  0.07640000  1
  C  C138  1  0.25000000  0.53820000  0.46180000  1
  C  C139  1  0.97370000  0.53570000  0.70800000  1
  C  C140  1  0.52630000  0.53570000  0.82770000  1
  C  C141  1  0.67080000  0.51170000  0.54210000  1
  C  C142  1  0.82920000  0.51170000  0.96960000  1
  C  C143  1  0.67230000  0.50420000  0.06240000  1
  C  C144  1  0.82770000  0.50420000  0.44180000  1
  C  C145  1  0.17230000  0.49580000  0.55820000  1
  C  C146  1  0.32770000  0.49580000  0.93760000  1
  C  C147  1  0.17080000  0.48830000  0.03040000  1
  C  C148  1  0.32920000  0.48830000  0.45790000  1
  C  C149  1  0.47370000  0.46430000  0.17230000  1
  C  C150  1  0.02630000  0.46430000  0.29200000  1
  C  C151  1  0.75000000  0.46180000  0.53820000  1
  C  C152  1  0.75000000  0.46180000  0.92360000  1
  C  C153  1  0.82920000  0.45790000  0.48830000  1
  C  C154  1  0.67080000  0.45790000  0.96960000  1
  C  C155  1  0.25000000  0.44500000  0.55500000  1
  C  C156  1  0.25000000  0.44500000  0.89000000  1
  C  C157  1  0.32770000  0.44180000  0.50420000  1
  C  C158  1  0.17230000  0.44180000  0.93760000  1
  C  C159  1  0.53940000  0.42890000  0.10020000  1
  C  C160  1  0.96060000  0.42890000  0.32870000  1
  C  C161  1  0.05790000  0.42430000  0.61250000  1
  C  C162  1  0.44210000  0.42430000  0.81180000  1
  C  C163  1  0.75000000  0.41060000  0.58940000  1
  C  C164  1  0.75000000  0.41060000  0.82120000  1
  C  C165  1  0.41140000  0.40700000  0.18150000  1
  C  C166  1  0.08860000  0.40700000  0.22550000  1
  C  C167  1  0.44210000  0.38750000  0.57570000  1
  C  C168  1  0.05790000  0.38750000  0.81180000  1
  C  C169  1  0.54600000  0.33730000  0.03900000  1
  C  C170  1  0.95400000  0.33730000  0.29830000  1
  C  C171  1  0.46060000  0.32870000  0.42890000  1
  C  C172  1  0.03940000  0.32870000  0.89980000  1
  C  C173  1  0.41640000  0.31550000  0.11980000  1
  C  C174  1  0.08360000  0.31550000  0.19570000  1
  C  C175  1  0.45400000  0.29830000  0.33730000  1
  C  C176  1  0.04600000  0.29830000  0.96100000  1
  C  C177  1  0.52630000  0.29200000  0.46430000  1
  C  C178  1  0.97370000  0.29200000  0.82770000  1
  C  C179  1  0.48500000  0.28150000  0.05050000  1
  C  C180  1  0.01500000  0.28150000  0.23100000  1
  C  C181  1  0.51500000  0.23100000  0.28150000  1
  C  C182  1  0.98500000  0.23100000  0.94950000  1
  C  C183  1  0.58860000  0.22550000  0.40700000  1
  C  C184  1  0.91140000  0.22550000  0.81850000  1
  C  C185  1  0.58360000  0.19570000  0.31550000  1
  C  C186  1  0.91640000  0.19570000  0.88020000  1
  C  C187  1  0.05790000  0.18820000  0.57570000  1
  C  C188  1  0.44210000  0.18820000  0.61250000  1
  C  C189  1  0.91140000  0.18150000  0.40700000  1
  C  C190  1  0.58860000  0.18150000  0.77450000  1
  C  C191  1  0.75000000  0.17880000  0.58940000  1
  C  C192  1  0.97370000  0.17230000  0.46430000  1
  C  C193  1  0.52630000  0.17230000  0.70800000  1
  C  C194  1  0.91640000  0.11980000  0.31550000  1
  C  C195  1  0.58360000  0.11980000  0.80430000  1
  C  C196  1  0.25000000  0.11000000  0.55500000  1
  C  C197  1  0.03940000  0.10020000  0.42890000  1
  C  C198  1  0.46060000  0.10020000  0.67130000  1
  C  C199  1  0.75000000  0.07640000  0.53820000  1
  C  C200  1  0.17230000  0.06240000  0.50420000  1
  C  C201  1  0.32770000  0.06240000  0.55820000  1
  C  C202  1  0.98500000  0.05050000  0.28150000  1
  C  C203  1  0.51500000  0.05050000  0.76900000  1
  C  C204  1  0.04600000  0.03900000  0.33730000  1
  C  C205  1  0.45400000  0.03900000  0.70170000  1
  C  C206  1  0.67080000  0.03040000  0.48830000  1
  C  C207  1  0.82920000  0.03040000  0.54210000  1
  N  N208  1  0.59200000  0.88750000  0.39060000  1
  N  N209  1  0.90800000  0.88750000  0.49690000  1
  N  N210  1  0.48810000  0.77400000  0.33090000  1
  N  N211  1  0.01190000  0.77400000  0.44310000  1
  N  N212  1  0.01190000  0.66910000  0.22600000  1
  N  N213  1  0.48810000  0.66910000  0.44310000  1
  N  N214  1  0.90800000  0.60940000  0.11250000  1
  N  N215  1  0.59200000  0.60940000  0.49690000  1
  N  N216  1  0.48810000  0.55690000  0.22600000  1
  N  N217  1  0.01190000  0.55690000  0.33090000  1
  N  N218  1  0.59200000  0.50310000  0.11250000  1
  N  N219  1  0.90800000  0.50310000  0.39060000  1
  N  N220  1  0.09200000  0.49690000  0.60940000  1
  N  N221  1  0.40800000  0.49690000  0.88750000  1
  N  N222  1  0.98810000  0.44310000  0.66910000  1
  N  N223  1  0.51190000  0.44310000  0.77400000  1
  N  N224  1  0.40800000  0.39060000  0.50310000  1
  N  N225  1  0.09200000  0.39060000  0.88750000  1
  N  N226  1  0.51190000  0.33090000  0.55690000  1
  N  N227  1  0.98810000  0.33090000  0.77400000  1
  N  N228  1  0.98810000  0.22600000  0.55690000  1
  N  N229  1  0.51190000  0.22600000  0.66910000  1
  N  N230  1  0.09200000  0.11250000  0.50310000  1
  N  N231  1  0.40800000  0.11250000  0.60940000  1
  O  O232  1  0.18280000  0.78340000  0.35650000  1
  O  O233  1  0.31720000  0.78340000  0.42690000  1
  O  O234  1  0.31720000  0.64350000  0.21660000  1
  O  O235  1  0.18280000  0.64350000  0.42690000  1
  O  O236  1  0.18280000  0.57310000  0.21660000  1
  O  O237  1  0.31720000  0.57310000  0.35650000  1
  O  O238  1  0.68280000  0.42690000  0.64350000  1
  O  O239  1  0.81720000  0.42690000  0.78340000  1
  O  O240  1  0.81720000  0.35650000  0.57310000  1
  O  O241  1  0.68280000  0.35650000  0.78340000  1
  O  O242  1  0.68280000  0.21660000  0.57310000  1
  O  O243  1  0.81720000  0.21660000  0.64350000  1
