# generated using pymatgen
data_Mn3W6C6(S4N3)2
_symmetry_space_group_name_H-M   'P 1'
_cell_length_a   13.25010000
_cell_length_b   13.25010000
_cell_length_c   18.49890000
_cell_angle_alpha   92.55590000
_cell_angle_beta   92.55590000
_cell_angle_gamma   112.73200000
_symmetry_Int_Tables_number   1
_chemical_formula_structural   Mn3W6C6(S4N3)2
_chemical_formula_sum   'Mn6 W12 C12 S16 N12'
_cell_volume   2985.75957397
_cell_formula_units_Z   2
loop_
 _symmetry_equiv_pos_site_id
 _symmetry_equiv_pos_as_xyz
  1  'x, y, z'
loop_
 _atom_site_type_symbol
 _atom_site_label
 _atom_site_symmetry_multiplicity
 _atom_site_fract_x
 _atom_site_fract_y
 _atom_site_fract_z
 _atom_site_occupancy
  Mn  Mn0  1  0.50000000  1.00000000  0.50000000  1
  Mn  Mn1  1  0.70699000  0.78757000  0.30304000  1
  Mn  Mn2  1  0.78757000  0.70699000  0.80304000  1
  Mn  Mn3  1  0.00000000  0.50000000  1.00000000  1
  Mn  Mn4  1  0.21243000  0.29301000  0.19696000  1
  Mn  Mn5  1  0.29301000  0.21243000  0.69696000  1
  W  W6  1  0.55047000  0.96509000  0.08918000  1
  W  W7  1  0.56965000  0.92069000  0.94902000  1
  W  W8  1  0.37111000  0.87149000  0.99880000  1
  W  W9  1  0.12851000  0.62889000  0.50120000  1
  W  W10  1  0.92069000  0.56965000  0.44902000  1
  W  W11  1  0.96509000  0.55047000  0.58918000  1
  W  W12  1  0.03491000  0.44953000  0.41082000  1
  W  W13  1  0.07931000  0.43035000  0.55098000  1
  W  W14  1  0.87149000  0.37111000  0.49880000  1
  W  W15  1  0.62889000  0.12851000  0.00120000  1
  W  W16  1  0.43035000  0.07931000  0.05098000  1
  W  W17  1  0.44953000  0.03491000  0.91082000  1
  C  C18  1  0.61130000  0.91790000  0.18790000  1
  C  C19  1  0.65260000  0.83000000  0.89590000  1
  C  C20  1  0.27650000  0.77630000  0.50310000  1
  C  C21  1  0.22370000  0.72350000  0.99690000  1
  C  C22  1  0.83000000  0.65260000  0.39590000  1
  C  C23  1  0.91790000  0.61130000  0.68790000  1
  C  C24  1  0.08210000  0.38870000  0.31210000  1
  C  C25  1  0.17000000  0.34740000  0.60410000  1
  C  C26  1  0.77630000  0.27650000  0.00310000  1
  C  C27  1  0.72350000  0.22370000  0.49690000  1
  C  C28  1  0.34740000  0.17000000  0.10410000  1
  C  C29  1  0.38870000  0.08210000  0.81210000  1
  S  S30  1  0.27095000  0.98645000  0.96477000  1
  S  S31  1  0.36432000  0.92268000  0.12767000  1
  S  S32  1  0.39970000  0.84130000  0.87003000  1
  S  S33  1  0.49158000  0.77722000  0.03409000  1
  S  S34  1  0.01355000  0.72905000  0.53523000  1
  S  S35  1  0.07732000  0.63568000  0.37233000  1
  S  S36  1  0.15870000  0.60030000  0.62997000  1
  S  S37  1  0.22278000  0.50842000  0.46591000  1
  S  S38  1  0.77722000  0.49158000  0.53409000  1
  S  S39  1  0.84130000  0.39970000  0.37003000  1
  S  S40  1  0.92268000  0.36432000  0.62767000  1
  S  S41  1  0.98645000  0.27095000  0.46477000  1
  S  S42  1  0.50842000  0.22278000  0.96591000  1
  S  S43  1  0.60030000  0.15870000  0.12997000  1
  S  S44  1  0.63568000  0.07732000  0.87233000  1
  S  S45  1  0.72905000  0.01355000  0.03523000  1
  N  N46  1  0.64230000  0.88210000  0.23570000  1
  N  N47  1  0.35450000  0.85430000  0.50590000  1
  N  N48  1  0.69780000  0.78060000  0.86620000  1
  N  N49  1  0.78060000  0.69780000  0.36620000  1
  N  N50  1  0.14570000  0.64550000  0.99410000  1
  N  N51  1  0.88210000  0.64230000  0.73570000  1
  N  N52  1  0.11790000  0.35770000  0.26430000  1
  N  N53  1  0.85430000  0.35450000  0.00590000  1
  N  N54  1  0.21940000  0.30220000  0.63380000  1
  N  N55  1  0.30220000  0.21940000  0.13380000  1
  N  N56  1  0.64550000  0.14570000  0.49410000  1
  N  N57  1  0.35770000  0.11790000  0.76430000  1
