# generated using pymatgen
data_Al2P2C3(O3F)2
_symmetry_space_group_name_H-M   'P 1'
_cell_length_a   4.91140000
_cell_length_b   12.05910000
_cell_length_c   19.16470000
_cell_angle_alpha   90.00000000
_cell_angle_beta   90.00000000
_cell_angle_gamma   90.00000000
_symmetry_Int_Tables_number   1
_chemical_formula_structural   Al2P2C3(O3F)2
_chemical_formula_sum   'Al8 P8 C12 O24 F8'
_cell_volume   1135.06890846
_cell_formula_units_Z   4
loop_
 _symmetry_equiv_pos_site_id
 _symmetry_equiv_pos_as_xyz
  1  'x, y, z'
loop_
 _atom_site_type_symbol
 _atom_site_label
 _atom_site_symmetry_multiplicity
 _atom_site_fract_x
 _atom_site_fract_y
 _atom_site_fract_z
 _atom_site_occupancy
  Al  Al0  1  0.00000000  0.00000000  0.00000000  1
  Al  Al1  1  0.00000000  1.00000000  0.50000000  1
  Al  Al2  1  0.73370000  0.25000000  0.06234000  1
  Al  Al3  1  0.73370000  0.25000000  0.43766000  1
  Al  Al4  1  0.00000000  0.50000000  0.00000000  1
  Al  Al5  1  0.00000000  0.50000000  0.50000000  1
  Al  Al6  1  0.26630000  0.75000000  0.56234000  1
  Al  Al7  1  0.26630000  0.75000000  0.93766000  1
  P  P8  1  0.50240000  0.01543000  0.10471000  1
  P  P9  1  0.50240000  0.01543000  0.39529000  1
  P  P10  1  0.50240000  0.48457000  0.10471000  1
  P  P11  1  0.50240000  0.48457000  0.39529000  1
  P  P12  1  0.49760000  0.51543000  0.60471000  1
  P  P13  1  0.49760000  0.51543000  0.89529000  1
  P  P14  1  0.49760000  0.98457000  0.60471000  1
  P  P15  1  0.49760000  0.98457000  0.89529000  1
  C  C16  1  0.45140000  0.01240000  0.25000000  1
  C  C17  1  0.44080000  0.05160000  0.68758000  1
  C  C18  1  0.44080000  0.05160000  0.81242000  1
  C  C19  1  0.44080000  0.44840000  0.68758000  1
  C  C20  1  0.44080000  0.44840000  0.81242000  1
  C  C21  1  0.45140000  0.48760000  0.25000000  1
  C  C22  1  0.54860000  0.51240000  0.75000000  1
  C  C23  1  0.55920000  0.55160000  0.18758000  1
  C  C24  1  0.55920000  0.55160000  0.31242000  1
  C  C25  1  0.55920000  0.94840000  0.18758000  1
  C  C26  1  0.55920000  0.94840000  0.31242000  1
  C  C27  1  0.54860000  0.98760000  0.75000000  1
  O  O28  1  0.20030000  0.00300000  0.08533000  1
  O  O29  1  0.20030000  0.00300000  0.41467000  1
  O  O30  1  0.31720000  0.04130000  0.54920000  1
  O  O31  1  0.31720000  0.04130000  0.95080000  1
  O  O32  1  0.53440000  0.14240000  0.11020000  1
  O  O33  1  0.53440000  0.14240000  0.38980000  1
  O  O34  1  0.53440000  0.35760000  0.11020000  1
  O  O35  1  0.53440000  0.35760000  0.38980000  1
  O  O36  1  0.31720000  0.45870000  0.54920000  1
  O  O37  1  0.31720000  0.45870000  0.95080000  1
  O  O38  1  0.20030000  0.49700000  0.08533000  1
  O  O39  1  0.20030000  0.49700000  0.41467000  1
  O  O40  1  0.79970000  0.50300000  0.58533000  1
  O  O41  1  0.79970000  0.50300000  0.91467000  1
  O  O42  1  0.68280000  0.54130000  0.04920000  1
  O  O43  1  0.68280000  0.54130000  0.45080000  1
  O  O44  1  0.46560000  0.64240000  0.61020000  1
  O  O45  1  0.46560000  0.64240000  0.88980000  1
  O  O46  1  0.46560000  0.85760000  0.61020000  1
  O  O47  1  0.46560000  0.85760000  0.88980000  1
  O  O48  1  0.68280000  0.95870000  0.04920000  1
  O  O49  1  0.68280000  0.95870000  0.45080000  1
  O  O50  1  0.79970000  0.99700000  0.58533000  1
  O  O51  1  0.79970000  0.99700000  0.91467000  1
  F  F52  1  0.92630000  0.14610000  0.01350000  1
  F  F53  1  0.92630000  0.14610000  0.48650000  1
  F  F54  1  0.92630000  0.35390000  0.01350000  1
  F  F55  1  0.92630000  0.35390000  0.48650000  1
  F  F56  1  0.07370000  0.64610000  0.51350000  1
  F  F57  1  0.07370000  0.64610000  0.98650000  1
  F  F58  1  0.07370000  0.85390000  0.51350000  1
  F  F59  1  0.07370000  0.85390000  0.98650000  1
