# generated using pymatgen
data_Cu3H8(C11O6)2
_symmetry_space_group_name_H-M   'P 1'
_cell_length_a   17.55766127
_cell_length_b   17.55750000
_cell_length_c   17.55750000
_cell_angle_alpha   108.33900000
_cell_angle_beta   110.04036822
_cell_angle_gamma   110.04036822
_symmetry_Int_Tables_number   1
_chemical_formula_structural   Cu3H8(C11O6)2
_chemical_formula_sum   'Cu12 H32 C88 O48'
_cell_volume   4165.26146519
_cell_formula_units_Z   4
loop_
 _symmetry_equiv_pos_site_id
 _symmetry_equiv_pos_as_xyz
  1  'x, y, z'
loop_
 _atom_site_type_symbol
 _atom_site_label
 _atom_site_symmetry_multiplicity
 _atom_site_fract_x
 _atom_site_fract_y
 _atom_site_fract_z
 _atom_site_occupancy
  Cu  Cu0  1  0.00248000  0.42564000  0.95532000  1
  Cu  Cu1  1  0.00248000  0.04716000  0.57684000  1
  Cu  Cu2  1  0.06600000  0.56600000  0.50000000  1
  Cu  Cu3  1  0.43440000  1.00000000  0.43440000  1
  Cu  Cu4  1  0.47032000  0.42564000  0.42316000  1
  Cu  Cu5  1  0.47032000  0.04716000  0.04468000  1
  Cu  Cu6  1  0.52968000  0.95284000  0.95532000  1
  Cu  Cu7  1  0.52968000  0.57436000  0.57684000  1
  Cu  Cu8  1  0.56560000  1.00000000  0.56560000  1
  Cu  Cu9  1  0.93400000  0.43400000  0.50000000  1
  Cu  Cu10  1  0.99752000  0.95284000  0.42316000  1
  Cu  Cu11  1  0.99752000  0.57436000  0.04468000  1
  H  H12  1  0.06320000  0.53550000  0.79910000  1
  H  H13  1  0.06320000  0.26410000  0.52770000  1
  H  H14  1  0.15590000  0.99290000  0.75660000  1
  H  H15  1  0.15590000  0.39930000  0.16300000  1
  H  H16  1  0.23630000  0.99290000  0.83700000  1
  H  H17  1  0.23630000  0.39930000  0.24340000  1
  H  H18  1  0.24960000  0.99620000  0.54180000  1
  H  H19  1  0.24960000  0.70780000  0.25340000  1
  H  H20  1  0.25730000  0.14570000  0.48280000  1
  H  H21  1  0.25730000  0.77450000  0.11160000  1
  H  H22  1  0.26360000  0.73590000  0.79910000  1
  H  H23  1  0.26360000  0.46450000  0.52770000  1
  H  H24  1  0.33710000  0.22550000  0.48280000  1
  H  H25  1  0.33710000  0.85430000  0.11160000  1
  H  H26  1  0.45440000  0.99620000  0.74660000  1
  H  H27  1  0.45440000  0.70780000  0.45820000  1
  H  H28  1  0.54560000  0.29220000  0.54180000  1
  H  H29  1  0.54560000  0.00380000  0.25340000  1
  H  H30  1  0.66290000  0.14570000  0.88840000  1
  H  H31  1  0.66290000  0.77450000  0.51720000  1
  H  H32  1  0.73640000  0.53550000  0.47230000  1
  H  H33  1  0.73640000  0.26410000  0.20090000  1
  H  H34  1  0.74270000  0.22550000  0.88840000  1
  H  H35  1  0.74270000  0.85430000  0.51720000  1
  H  H36  1  0.75040000  0.29220000  0.74660000  1
  H  H37  1  0.75040000  0.00380000  0.45820000  1
  H  H38  1  0.76370000  0.60070000  0.75660000  1
  H  H39  1  0.76370000  0.00710000  0.16300000  1
  H  H40  1  0.84410000  0.60070000  0.83700000  1
  H  H41  1  0.84410000  0.00710000  0.24340000  1
  H  H42  1  0.93680000  0.73590000  0.47230000  1
  H  H43  1  0.93680000  0.46450000  0.20090000  1
  C  C44  1  0.08770000  0.58590000  0.67360000  1
  C  C45  1  0.08770000  0.41410000  0.50180000  1
  C  C46  1  0.11200000  0.60340000  0.97080000  1
  C  C47  1  0.11200000  0.14120000  0.50860000  1
  C  C48  1  0.11240000  0.59820000  0.83060000  1
  C  C49  1  0.11240000  0.28180000  0.51420000  1
  C  C50  1  0.13430000  0.98530000  0.59240000  1
  C  C51  1  0.13430000  0.54190000  0.14900000  1
  C  C52  1  0.14110000  0.63950000  0.78060000  1
  C  C53  1  0.14110000  0.36050000  0.50160000  1
  C  C54  1  0.14200000  0.85800000  0.71600000  1
  C  C55  1  0.14200000  0.42600000  0.28400000  1
  C  C56  1  0.15440000  0.64750000  0.92030000  1
  C  C57  1  0.15440000  0.23410000  0.50690000  1
  C  C58  1  0.19770000  0.96690000  0.76920000  1
  C  C59  1  0.19770000  0.42850000  0.23080000  1
  C  C60  1  0.22440000  0.99020000  0.64440000  1
  C  C61  1  0.22440000  0.58000000  0.23420000  1
  C  C62  1  0.23240000  0.71820000  0.83060000  1
  C  C63  1  0.23240000  0.40180000  0.51420000  1
  C  C64  1  0.24320000  0.73250000  0.97570000  1
  C  C65  1  0.24320000  0.26750000  0.51070000  1
  C  C66  1  0.25390000  0.98040000  0.72650000  1
  C  C67  1  0.25390000  0.52740000  0.27350000  1
  C  C68  1  0.27220000  0.99280000  0.59740000  1
  C  C69  1  0.27220000  0.67480000  0.27940000  1
  C  C70  1  0.27280000  0.76590000  0.92030000  1
  C  C71  1  0.27280000  0.35250000  0.50690000  1
  C  C72  1  0.30100000  0.21350000  0.51450000  1
  C  C73  1  0.30100000  0.78650000  0.08750000  1
  C  C74  1  0.34580000  0.99020000  0.76580000  1
  C  C75  1  0.34580000  0.58000000  0.35560000  1
  C  C76  1  0.35680000  0.99050000  0.63370000  1
  C  C77  1  0.35680000  0.72310000  0.36630000  1
  C  C78  1  0.36600000  0.24800000  0.61400000  1
  C  C79  1  0.36600000  0.75200000  0.11800000  1
  C  C80  1  0.36740000  0.85880000  0.97080000  1
  C  C81  1  0.36740000  0.39660000  0.50860000  1
  C  C82  1  0.39290000  0.98530000  0.85100000  1
  C  C83  1  0.39290000  0.54190000  0.40760000  1
  C  C84  1  0.39540000  0.99280000  0.72060000  1
  C  C85  1  0.39540000  0.67480000  0.40260000  1
  C  C86  1  0.41290000  0.00020000  0.58730000  1
  C  C87  1  0.41290000  0.82560000  0.41270000  1
  C  C88  1  0.58710000  0.17440000  0.58730000  1
  C  C89  1  0.58710000  0.99980000  0.41270000  1
  C  C90  1  0.60460000  0.32520000  0.59740000  1
  C  C91  1  0.60460000  0.00720000  0.27940000  1
  C  C92  1  0.60710000  0.45810000  0.59240000  1
  C  C93  1  0.60710000  0.01470000  0.14900000  1
  C  C94  1  0.63260000  0.60340000  0.49140000  1
  C  C95  1  0.63260000  0.14120000  0.02920000  1
  C  C96  1  0.63400000  0.24800000  0.88200000  1
  C  C97  1  0.63400000  0.75200000  0.38600000  1
  C  C98  1  0.64320000  0.27690000  0.63370000  1
  C  C99  1  0.64320000  0.00950000  0.36630000  1
  C  C100  1  0.65420000  0.42000000  0.64440000  1
  C  C101  1  0.65420000  0.00980000  0.23420000  1
  C  C102  1  0.69900000  0.21350000  0.91250000  1
  C  C103  1  0.69900000  0.78650000  0.48550000  1
  C  C104  1  0.72720000  0.64750000  0.49310000  1
  C  C105  1  0.72720000  0.23410000  0.07970000  1
  C  C106  1  0.72780000  0.32520000  0.72060000  1
  C  C107  1  0.72780000  0.00720000  0.40260000  1
  C  C108  1  0.74610000  0.47260000  0.72650000  1
  C  C109  1  0.74610000  0.01960000  0.27350000  1
  C  C110  1  0.75680000  0.73250000  0.48930000  1
  C  C111  1  0.75680000  0.26750000  0.02430000  1
  C  C112  1  0.76760000  0.59820000  0.48580000  1
  C  C113  1  0.76760000  0.28180000  0.16940000  1
  C  C114  1  0.77560000  0.42000000  0.76580000  1
  C  C115  1  0.77560000  0.00980000  0.35560000  1
  C  C116  1  0.80230000  0.57150000  0.76920000  1
  C  C117  1  0.80230000  0.03310000  0.23080000  1
  C  C118  1  0.84560000  0.76590000  0.49310000  1
  C  C119  1  0.84560000  0.35250000  0.07970000  1
  C  C120  1  0.85800000  0.57400000  0.71600000  1
  C  C121  1  0.85800000  0.14200000  0.28400000  1
  C  C122  1  0.85890000  0.63950000  0.49840000  1
  C  C123  1  0.85890000  0.36050000  0.21940000  1
  C  C124  1  0.86570000  0.45810000  0.85100000  1
  C  C125  1  0.86570000  0.01470000  0.40760000  1
  C  C126  1  0.88760000  0.71820000  0.48580000  1
  C  C127  1  0.88760000  0.40180000  0.16940000  1
  C  C128  1  0.88800000  0.85880000  0.49140000  1
  C  C129  1  0.88800000  0.39660000  0.02920000  1
  C  C130  1  0.91230000  0.58590000  0.49820000  1
  C  C131  1  0.91230000  0.41410000  0.32640000  1
  O  O132  1  0.01250000  0.51360000  0.63570000  1
  O  O133  1  0.01250000  0.37680000  0.49890000  1
  O  O134  1  0.09160000  0.51540000  0.94480000  1
  O  O135  1  0.09160000  0.14680000  0.57620000  1
  O  O136  1  0.09330000  0.07380000  0.44990000  1
  O  O137  1  0.09330000  0.64340000  0.01950000  1
  O  O138  1  0.09490000  0.94810000  0.51260000  1
  O  O139  1  0.09490000  0.58230000  0.14680000  1
  O  O140  1  0.10600000  0.02700000  0.64160000  1
  O  O141  1  0.10600000  0.46440000  0.07900000  1
  O  O142  1  0.12210000  0.62320000  0.63570000  1
  O  O143  1  0.12210000  0.48640000  0.49890000  1
  O  O144  1  0.37350000  0.99530000  0.50580000  1
  O  O145  1  0.37350000  0.86770000  0.37820000  1
  O  O146  1  0.37610000  0.35660000  0.44990000  1
  O  O147  1  0.37610000  0.92620000  0.01950000  1
  O  O148  1  0.38540000  0.02700000  0.92100000  1
  O  O149  1  0.38540000  0.46440000  0.35840000  1
  O  O150  1  0.42940000  0.85320000  0.94480000  1
  O  O151  1  0.42940000  0.48460000  0.57620000  1
  O  O152  1  0.43550000  0.94810000  0.85320000  1
  O  O153  1  0.43550000  0.58230000  0.48740000  1
  O  O154  1  0.48950000  0.99530000  0.62180000  1
  O  O155  1  0.48950000  0.86770000  0.49420000  1
  O  O156  1  0.51050000  0.13230000  0.50580000  1
  O  O157  1  0.51050000  0.00470000  0.37820000  1
  O  O158  1  0.56450000  0.41770000  0.51260000  1
  O  O159  1  0.56450000  0.05190000  0.14680000  1
  O  O160  1  0.57060000  0.51540000  0.42380000  1
  O  O161  1  0.57060000  0.14680000  0.05520000  1
  O  O162  1  0.61460000  0.53560000  0.64160000  1
  O  O163  1  0.61460000  0.97300000  0.07900000  1
  O  O164  1  0.62390000  0.07380000  0.98050000  1
  O  O165  1  0.62390000  0.64340000  0.55010000  1
  O  O166  1  0.62650000  0.13230000  0.62180000  1
  O  O167  1  0.62650000  0.00470000  0.49420000  1
  O  O168  1  0.87790000  0.51360000  0.50110000  1
  O  O169  1  0.87790000  0.37680000  0.36430000  1
  O  O170  1  0.89400000  0.53560000  0.92100000  1
  O  O171  1  0.89400000  0.97300000  0.35840000  1
  O  O172  1  0.90510000  0.41770000  0.85320000  1
  O  O173  1  0.90510000  0.05190000  0.48740000  1
  O  O174  1  0.90670000  0.35660000  0.98050000  1
  O  O175  1  0.90670000  0.92620000  0.55010000  1
  O  O176  1  0.90840000  0.85320000  0.42380000  1
  O  O177  1  0.90840000  0.48460000  0.05520000  1
  O  O178  1  0.98750000  0.62320000  0.50110000  1
  O  O179  1  0.98750000  0.48640000  0.36430000  1
