# generated using pymatgen
data_CuH5C7NO5
_symmetry_space_group_name_H-M   'P 1'
_cell_length_a   24.17032399
_cell_length_b   24.17032399
_cell_length_c   24.17032399
_cell_angle_alpha   60.00000000
_cell_angle_beta   60.00000000
_cell_angle_gamma   60.00000000
_symmetry_Int_Tables_number   1
_chemical_formula_structural   CuH5C7NO5
_chemical_formula_sum   'Cu24 H120 C168 N24 O120'
_cell_volume   9984.64016914
_cell_formula_units_Z   24
loop_
 _symmetry_equiv_pos_site_id
 _symmetry_equiv_pos_as_xyz
  1  'x, y, z'
loop_
 _atom_site_type_symbol
 _atom_site_label
 _atom_site_symmetry_multiplicity
 _atom_site_fract_x
 _atom_site_fract_y
 _atom_site_fract_z
 _atom_site_occupancy
  C  C0  1  0.66920000  0.32520000  0.18380000  1
  C  C1  1  0.32520000  0.66920000  0.82180000  1
  C  C2  1  0.67790000  0.31610000  0.83130000  1
  C  C3  1  0.31610000  0.67790000  0.17470000  1
  C  C4  1  0.45010000  0.53590000  0.10070000  1
  C  C5  1  0.53590000  0.45010000  0.91330000  1
  C  C6  1  0.58720000  0.39860000  0.05060000  1
  C  C7  1  0.39860000  0.58720000  0.96360000  1
  C  C8  1  0.63150000  0.35370000  0.88090000  1
  C  C9  1  0.35370000  0.63150000  0.13390000  1
  C  C10  1  0.41270000  0.57190000  0.15450000  1
  C  C11  1  0.57190000  0.41270000  0.86090000  1
  C  C12  1  0.61810000  0.36610000  0.14730000  1
  C  C13  1  0.36610000  0.61810000  0.86850000  1
  C  C14  1  0.63770000  0.34530000  0.08830000  1
  C  C15  1  0.34530000  0.63770000  0.92870000  1
  C  C16  1  0.67210000  0.24510000  0.06450000  1
  C  C17  1  0.24510000  0.67210000  0.01830000  1
  C  C18  1  0.43510000  0.48190000  0.25510000  1
  C  C19  1  0.48190000  0.43510000  0.82790000  1
  C  C20  1  0.18380000  0.66920000  0.32520000  1
  C  C21  1  0.66920000  0.18380000  0.82180000  1
  C  C22  1  0.67790000  0.17470000  0.31610000  1
  C  C23  1  0.17470000  0.67790000  0.83130000  1
  C  C24  1  0.67050000  0.17550000  0.08890000  1
  C  C25  1  0.17550000  0.67050000  0.06510000  1
  C  C26  1  0.40990000  0.43490000  0.32490000  1
  C  C27  1  0.43490000  0.40990000  0.83030000  1
  C  C28  1  0.67010000  0.15530000  0.04490000  1
  C  C29  1  0.15530000  0.67010000  0.12970000  1
  C  C30  1  0.45480000  0.36960000  0.34580000  1
  C  C31  1  0.36960000  0.45480000  0.82980000  1
  C  C32  1  0.34580000  0.45480000  0.36960000  1
  C  C33  1  0.45480000  0.34580000  0.82980000  1
  C  C34  1  0.67010000  0.12970000  0.15530000  1
  C  C35  1  0.12970000  0.67010000  0.04490000  1
  C  C36  1  0.63150000  0.13390000  0.35370000  1
  C  C37  1  0.14730000  0.61810000  0.36610000  1
  C  C38  1  0.61810000  0.14730000  0.86850000  1
  C  C39  1  0.13390000  0.63150000  0.88090000  1
  C  C40  1  0.43490000  0.32490000  0.40990000  1
  C  C41  1  0.32490000  0.43490000  0.83030000  1
  C  C42  1  0.67050000  0.08890000  0.06510000  1
  C  C43  1  0.08890000  0.67050000  0.17550000  1
  C  C44  1  0.48190000  0.25510000  0.43510000  1
  C  C45  1  0.25510000  0.48190000  0.82790000  1
  C  C46  1  0.67210000  0.06450000  0.01830000  1
  C  C47  1  0.06450000  0.67210000  0.24510000  1
  C  C48  1  0.67050000  0.06510000  0.17550000  1
  C  C49  1  0.06510000  0.67050000  0.08890000  1
  C  C50  1  0.32490000  0.40990000  0.43490000  1
  C  C51  1  0.40990000  0.32490000  0.83030000  1
  C  C52  1  0.57190000  0.15450000  0.41270000  1
  C  C53  1  0.15450000  0.57190000  0.86090000  1
  C  C54  1  0.63770000  0.08830000  0.92870000  1
  C  C55  1  0.08830000  0.63770000  0.34530000  1
  C  C56  1  0.36960000  0.34580000  0.45480000  1
  C  C57  1  0.34580000  0.36960000  0.82980000  1
  C  C58  1  0.67010000  0.04490000  0.12970000  1
  C  C59  1  0.04490000  0.67010000  0.15530000  1
  C  C60  1  0.67210000  0.01830000  0.24510000  1
  C  C61  1  0.01830000  0.67210000  0.06450000  1
  C  C62  1  0.25510000  0.43510000  0.48190000  1
  C  C63  1  0.43510000  0.25510000  0.82790000  1
  C  C64  1  0.58720000  0.05060000  0.96360000  1
  C  C65  1  0.05060000  0.58720000  0.39860000  1
  C  C66  1  0.53590000  0.10070000  0.45010000  1
  C  C67  1  0.10070000  0.53590000  0.91330000  1
  C  C68  1  0.15450000  0.41270000  0.57190000  1
  C  C69  1  0.41270000  0.15450000  0.86090000  1
  C  C70  1  0.63770000  0.92870000  0.34530000  1
  C  C71  1  0.92870000  0.63770000  0.08830000  1
  C  C72  1  0.58720000  0.96360000  0.39860000  1
  C  C73  1  0.10070000  0.45010000  0.53590000  1
  C  C74  1  0.45010000  0.10070000  0.91330000  1
  C  C75  1  0.96360000  0.58720000  0.05060000  1
  C  C76  1  0.36610000  0.14730000  0.61810000  1
  C  C77  1  0.14730000  0.36610000  0.86850000  1
  C  C78  1  0.63150000  0.88090000  0.13390000  1
  C  C79  1  0.88090000  0.63150000  0.35370000  1
  C  C80  1  0.67790000  0.83130000  0.17470000  1
  C  C81  1  0.83130000  0.67790000  0.31610000  1
  C  C82  1  0.32520000  0.18380000  0.66920000  1
  C  C83  1  0.18380000  0.32520000  0.82180000  1
  C  C84  1  0.66920000  0.82180000  0.32520000  1
  C  C85  1  0.82180000  0.66920000  0.18380000  1
  C  C86  1  0.17470000  0.31610000  0.67790000  1
  C  C87  1  0.31610000  0.17470000  0.83130000  1
  C  C88  1  0.13390000  0.35370000  0.63150000  1
  C  C89  1  0.35370000  0.13390000  0.88090000  1
  C  C90  1  0.61810000  0.86850000  0.36610000  1
  C  C91  1  0.86850000  0.61810000  0.14730000  1
  C  C92  1  0.39860000  0.05060000  0.58720000  1
  C  C93  1  0.53590000  0.91330000  0.10070000  1
  C  C94  1  0.91330000  0.53590000  0.45010000  1
  C  C95  1  0.05060000  0.39860000  0.96360000  1
  C  C96  1  0.34530000  0.08830000  0.63770000  1
  C  C97  1  0.08830000  0.34530000  0.92870000  1
  C  C98  1  0.57190000  0.86090000  0.15450000  1
  C  C99  1  0.86090000  0.57190000  0.41270000  1
  C  C100  1  0.45010000  0.91330000  0.53590000  1
  C  C101  1  0.91330000  0.45010000  0.10070000  1
  C  C102  1  0.96360000  0.39860000  0.58720000  1
  C  C103  1  0.39860000  0.96360000  0.05060000  1
  C  C104  1  0.48190000  0.82790000  0.25510000  1
  C  C105  1  0.82790000  0.48190000  0.43510000  1
  C  C106  1  0.24510000  0.06450000  0.67210000  1
  C  C107  1  0.06450000  0.24510000  0.01830000  1
  C  C108  1  0.12970000  0.15530000  0.67010000  1
  C  C109  1  0.15530000  0.12970000  0.04490000  1
  C  C110  1  0.45480000  0.82980000  0.36960000  1
  C  C111  1  0.82980000  0.45480000  0.34580000  1
  C  C112  1  0.92870000  0.34530000  0.63770000  1
  C  C113  1  0.34530000  0.92870000  0.08830000  1
  C  C114  1  0.41270000  0.86090000  0.57190000  1
  C  C115  1  0.86090000  0.41270000  0.15450000  1
  C  C116  1  0.43490000  0.83030000  0.32490000  1
  C  C117  1  0.83030000  0.43490000  0.40990000  1
  C  C118  1  0.17550000  0.08890000  0.67050000  1
  C  C119  1  0.08890000  0.17550000  0.06510000  1
  C  C120  1  0.01830000  0.24510000  0.67210000  1
  C  C121  1  0.24510000  0.01830000  0.06450000  1
  C  C122  1  0.43510000  0.82790000  0.48190000  1
  C  C123  1  0.82790000  0.43510000  0.25510000  1
  C  C124  1  0.06510000  0.17550000  0.67050000  1
  C  C125  1  0.17550000  0.06510000  0.08890000  1
  C  C126  1  0.40990000  0.83030000  0.43490000  1
  C  C127  1  0.83030000  0.40990000  0.32490000  1
  C  C128  1  0.35370000  0.88090000  0.63150000  1
  C  C129  1  0.36610000  0.86850000  0.14730000  1
  C  C130  1  0.86850000  0.36610000  0.61810000  1
  C  C131  1  0.88090000  0.35370000  0.13390000  1
  C  C132  1  0.15530000  0.04490000  0.67010000  1
  C  C133  1  0.04490000  0.15530000  0.12970000  1
  C  C134  1  0.36960000  0.82980000  0.34580000  1
  C  C135  1  0.82980000  0.36960000  0.45480000  1
  C  C136  1  0.34580000  0.82980000  0.45480000  1
  C  C137  1  0.82980000  0.34580000  0.36960000  1
  C  C138  1  0.04490000  0.12970000  0.67010000  1
  C  C139  1  0.12970000  0.04490000  0.15530000  1
  C  C140  1  0.32490000  0.83030000  0.40990000  1
  C  C141  1  0.83030000  0.32490000  0.43490000  1
  C  C142  1  0.08890000  0.06510000  0.67050000  1
  C  C143  1  0.06510000  0.08890000  0.17550000  1
  C  C144  1  0.31610000  0.83130000  0.67790000  1
  C  C145  1  0.83130000  0.31610000  0.17470000  1
  C  C146  1  0.32520000  0.82180000  0.18380000  1
  C  C147  1  0.82180000  0.32520000  0.66920000  1
  C  C148  1  0.25510000  0.82790000  0.43510000  1
  C  C149  1  0.82790000  0.25510000  0.48190000  1
  C  C150  1  0.06450000  0.01830000  0.67210000  1
  C  C151  1  0.01830000  0.06450000  0.24510000  1
  C  C152  1  0.08830000  0.92870000  0.63770000  1
  C  C153  1  0.92870000  0.08830000  0.34530000  1
  C  C154  1  0.14730000  0.86850000  0.61810000  1
  C  C155  1  0.86850000  0.14730000  0.36610000  1
  C  C156  1  0.15450000  0.86090000  0.41270000  1
  C  C157  1  0.86090000  0.15450000  0.57190000  1
  C  C158  1  0.88090000  0.13390000  0.63150000  1
  C  C159  1  0.13390000  0.88090000  0.35370000  1
  C  C160  1  0.05060000  0.96360000  0.58720000  1
  C  C161  1  0.96360000  0.05060000  0.39860000  1
  C  C162  1  0.10070000  0.91330000  0.45010000  1
  C  C163  1  0.91330000  0.10070000  0.53590000  1
  C  C164  1  0.83130000  0.17470000  0.67790000  1
  C  C165  1  0.17470000  0.83130000  0.31610000  1
  C  C166  1  0.18380000  0.82180000  0.66920000  1
  C  C167  1  0.82180000  0.18380000  0.32520000  1
  Cu  Cu168  1  0.21099000  0.78901000  0.78901000  1
  Cu  Cu169  1  0.28911000  0.71089000  0.71089000  1
  Cu  Cu170  1  0.71089000  0.28911000  0.28911000  1
  Cu  Cu171  1  0.78901000  0.21099000  0.21099000  1
  Cu  Cu172  1  0.28911000  0.71089000  0.28911000  1
  Cu  Cu173  1  0.78901000  0.21099000  0.78901000  1
  Cu  Cu174  1  0.21099000  0.78901000  0.21099000  1
  Cu  Cu175  1  0.71089000  0.28911000  0.71089000  1
  Cu  Cu176  1  0.96843000  0.96843000  0.53157000  1
  Cu  Cu177  1  0.45428000  0.45428000  0.04572000  1
  Cu  Cu178  1  0.28911000  0.28911000  0.71089000  1
  Cu  Cu179  1  0.78901000  0.78901000  0.21099000  1
  Cu  Cu180  1  0.96843000  0.53157000  0.96843000  1
  Cu  Cu181  1  0.45428000  0.04572000  0.45428000  1
  Cu  Cu182  1  0.53157000  0.96843000  0.96843000  1
  Cu  Cu183  1  0.96843000  0.53157000  0.53157000  1
  Cu  Cu184  1  0.04572000  0.45428000  0.45428000  1
  Cu  Cu185  1  0.45428000  0.04572000  0.04572000  1
  Cu  Cu186  1  0.04572000  0.45428000  0.04572000  1
  Cu  Cu187  1  0.53157000  0.96843000  0.53157000  1
  Cu  Cu188  1  0.21099000  0.21099000  0.78901000  1
  Cu  Cu189  1  0.71089000  0.71089000  0.28911000  1
  Cu  Cu190  1  0.04572000  0.04572000  0.45428000  1
  Cu  Cu191  1  0.53157000  0.53157000  0.96843000  1
  H  H192  1  0.88890000  0.08650000  0.65710000  1
  H  H193  1  0.08650000  0.88890000  0.36750000  1
  H  H194  1  0.13070000  0.84290000  0.61290000  1
  H  H195  1  0.84290000  0.13070000  0.41350000  1
  H  H196  1  0.05770000  0.91150000  0.68290000  1
  H  H197  1  0.91150000  0.05770000  0.34790000  1
  H  H198  1  0.15200000  0.81700000  0.44340000  1
  H  H199  1  0.81700000  0.15200000  0.58760000  1
  H  H200  1  0.57450000  0.36090000  0.17950000  1
  H  H201  1  0.36090000  0.57450000  0.88510000  1
  H  H202  1  0.61450000  0.31930000  0.92550000  1
  H  H203  1  0.31930000  0.61450000  0.14070000  1
  H  H204  1  0.62000000  0.25740000  0.15120000  1
  H  H205  1  0.25740000  0.62000000  0.97140000  1
  H  H206  1  0.34910000  0.52630000  0.24170000  1
  H  H207  1  0.52630000  0.34910000  0.88290000  1
  H  H208  1  0.66970000  0.18530000  0.00150000  1
  H  H209  1  0.18530000  0.66970000  0.14350000  1
  H  H210  1  0.49830000  0.35630000  0.31610000  1
  H  H211  1  0.35630000  0.49830000  0.82930000  1
  H  H212  1  0.31610000  0.49830000  0.35630000  1
  H  H213  1  0.49830000  0.31610000  0.82930000  1
  H  H214  1  0.66970000  0.14350000  0.18530000  1
  H  H215  1  0.14350000  0.66970000  0.00150000  1
  H  H216  1  0.62000000  0.15120000  0.97140000  1
  H  H217  1  0.15120000  0.62000000  0.25740000  1
  H  H218  1  0.52630000  0.24170000  0.34910000  1
  H  H219  1  0.24170000  0.52630000  0.88290000  1
  H  H220  1  0.61450000  0.14070000  0.31930000  1
  H  H221  1  0.14070000  0.61450000  0.92550000  1
  H  H222  1  0.17950000  0.57450000  0.36090000  1
  H  H223  1  0.57450000  0.17950000  0.88510000  1
  H  H224  1  0.08650000  0.65710000  0.88890000  1
  H  H225  1  0.13070000  0.61290000  0.41350000  1
  H  H226  1  0.61290000  0.13070000  0.84290000  1
  H  H227  1  0.65710000  0.08650000  0.36750000  1
  H  H228  1  0.68290000  0.05770000  0.91150000  1
  H  H229  1  0.05770000  0.68290000  0.34790000  1
  H  H230  1  0.15200000  0.58760000  0.81700000  1
  H  H231  1  0.58760000  0.15200000  0.44340000  1
  H  H232  1  0.35630000  0.31610000  0.49830000  1
  H  H233  1  0.31610000  0.35630000  0.82930000  1
  H  H234  1  0.66970000  0.00150000  0.14350000  1
  H  H235  1  0.00150000  0.66970000  0.18530000  1
  H  H236  1  0.15200000  0.44340000  0.58760000  1
  H  H237  1  0.44340000  0.15200000  0.81700000  1
  H  H238  1  0.91150000  0.68290000  0.05770000  1
  H  H239  1  0.68290000  0.91150000  0.34790000  1
  H  H240  1  0.62000000  0.97140000  0.25740000  1
  H  H241  1  0.97140000  0.62000000  0.15120000  1
  H  H242  1  0.24170000  0.34910000  0.52630000  1
  H  H243  1  0.34910000  0.24170000  0.88290000  1
  H  H244  1  0.65710000  0.88890000  0.08650000  1
  H  H245  1  0.88890000  0.65710000  0.36750000  1
  H  H246  1  0.13070000  0.41350000  0.84290000  1
  H  H247  1  0.41350000  0.13070000  0.61290000  1
  H  H248  1  0.36090000  0.17950000  0.57450000  1
  H  H249  1  0.17950000  0.36090000  0.88510000  1
  H  H250  1  0.61450000  0.92550000  0.14070000  1
  H  H251  1  0.92550000  0.61450000  0.31930000  1
  H  H252  1  0.14070000  0.31930000  0.61450000  1
  H  H253  1  0.31930000  0.14070000  0.92550000  1
  H  H254  1  0.57450000  0.88510000  0.36090000  1
  H  H255  1  0.88510000  0.57450000  0.17950000  1
  H  H256  1  0.84290000  0.61290000  0.13070000  1
  H  H257  1  0.61290000  0.84290000  0.41350000  1
  H  H258  1  0.08650000  0.36750000  0.65710000  1
  H  H259  1  0.36750000  0.08650000  0.88890000  1
  H  H260  1  0.52630000  0.88290000  0.24170000  1
  H  H261  1  0.88290000  0.52630000  0.34910000  1
  H  H262  1  0.25740000  0.15120000  0.62000000  1
  H  H263  1  0.15120000  0.25740000  0.97140000  1
  H  H264  1  0.05770000  0.34790000  0.91150000  1
  H  H265  1  0.34790000  0.05770000  0.68290000  1
  H  H266  1  0.58760000  0.81700000  0.15200000  1
  H  H267  1  0.81700000  0.58760000  0.44340000  1
  H  H268  1  0.14350000  0.18530000  0.66970000  1
  H  H269  1  0.18530000  0.14350000  0.00150000  1
  H  H270  1  0.49830000  0.82930000  0.35630000  1
  H  H271  1  0.82930000  0.49830000  0.31610000  1
  H  H272  1  0.81700000  0.44340000  0.15200000  1
  H  H273  1  0.44340000  0.81700000  0.58760000  1
  H  H274  1  0.91150000  0.34790000  0.68290000  1
  H  H275  1  0.34790000  0.91150000  0.05770000  1
  H  H276  1  0.88890000  0.36750000  0.08650000  1
  H  H277  1  0.41350000  0.84290000  0.13070000  1
  H  H278  1  0.84290000  0.41350000  0.61290000  1
  H  H279  1  0.36750000  0.88890000  0.65710000  1
  H  H280  1  0.36090000  0.88510000  0.17950000  1
  H  H281  1  0.88510000  0.36090000  0.57450000  1
  H  H282  1  0.31930000  0.92550000  0.61450000  1
  H  H283  1  0.92550000  0.31930000  0.14070000  1
  H  H284  1  0.34910000  0.88290000  0.52630000  1
  H  H285  1  0.88290000  0.34910000  0.24170000  1
  H  H286  1  0.97140000  0.25740000  0.62000000  1
  H  H287  1  0.25740000  0.97140000  0.15120000  1
  H  H288  1  0.18530000  0.00150000  0.66970000  1
  H  H289  1  0.00150000  0.18530000  0.14350000  1
  H  H290  1  0.35630000  0.82930000  0.31610000  1
  H  H291  1  0.82930000  0.35630000  0.49830000  1
  H  H292  1  0.31610000  0.82930000  0.49830000  1
  H  H293  1  0.82930000  0.31610000  0.35630000  1
  H  H294  1  0.00150000  0.14350000  0.66970000  1
  H  H295  1  0.14350000  0.00150000  0.18530000  1
  H  H296  1  0.24170000  0.88290000  0.34910000  1
  H  H297  1  0.88290000  0.24170000  0.52630000  1
  H  H298  1  0.15120000  0.97140000  0.62000000  1
  H  H299  1  0.97140000  0.15120000  0.25740000  1
  H  H300  1  0.92550000  0.14070000  0.61450000  1
  H  H301  1  0.14070000  0.92550000  0.31930000  1
  H  H302  1  0.17950000  0.88510000  0.57450000  1
  H  H303  1  0.88510000  0.17950000  0.36090000  1
  H  H304  1  0.44340000  0.58760000  0.15200000  1
  H  H305  1  0.58760000  0.44340000  0.81700000  1
  H  H306  1  0.68290000  0.34790000  0.05770000  1
  H  H307  1  0.34790000  0.68290000  0.91150000  1
  H  H308  1  0.61290000  0.41350000  0.13070000  1
  H  H309  1  0.41350000  0.61290000  0.84290000  1
  H  H310  1  0.65710000  0.36750000  0.88890000  1
  H  H311  1  0.36750000  0.65710000  0.08650000  1
  N  N312  1  0.39020000  0.52720000  0.22200000  1
  N  N313  1  0.52720000  0.39020000  0.86060000  1
  N  N314  1  0.63970000  0.27730000  0.10950000  1
  N  N315  1  0.27730000  0.63970000  0.97350000  1
  N  N316  1  0.52720000  0.22200000  0.39020000  1
  N  N317  1  0.63970000  0.10950000  0.97350000  1
  N  N318  1  0.10950000  0.63970000  0.27730000  1
  N  N319  1  0.22200000  0.52720000  0.86060000  1
  N  N320  1  0.63970000  0.97350000  0.27730000  1
  N  N321  1  0.97350000  0.63970000  0.10950000  1
  N  N322  1  0.22200000  0.39020000  0.52720000  1
  N  N323  1  0.39020000  0.22200000  0.86060000  1
  N  N324  1  0.52720000  0.86060000  0.22200000  1
  N  N325  1  0.86060000  0.52720000  0.39020000  1
  N  N326  1  0.27730000  0.10950000  0.63970000  1
  N  N327  1  0.10950000  0.27730000  0.97350000  1
  N  N328  1  0.39020000  0.86060000  0.52720000  1
  N  N329  1  0.97350000  0.27730000  0.63970000  1
  N  N330  1  0.27730000  0.97350000  0.10950000  1
  N  N331  1  0.86060000  0.39020000  0.22200000  1
  N  N332  1  0.10950000  0.97350000  0.63970000  1
  N  N333  1  0.97350000  0.10950000  0.27730000  1
  N  N334  1  0.22200000  0.86060000  0.39020000  1
  N  N335  1  0.86060000  0.22200000  0.52720000  1
  O  O336  1  0.15700000  0.82820000  0.72680000  1
  O  O337  1  0.21200000  0.77320000  0.34240000  1
  O  O338  1  0.77320000  0.21200000  0.67240000  1
  O  O339  1  0.82820000  0.15700000  0.28800000  1
  O  O340  1  0.72210000  0.26030000  0.85070000  1
  O  O341  1  0.26030000  0.72210000  0.16690000  1
  O  O342  1  0.64890000  0.33330000  0.23930000  1
  O  O343  1  0.33330000  0.64890000  0.77850000  1
  O  O344  1  0.49530000  0.47950000  0.22910000  1
  O  O345  1  0.47950000  0.49530000  0.79610000  1
  O  O346  1  0.70380000  0.27080000  0.00420000  1
  O  O347  1  0.27080000  0.70380000  0.02120000  1
  O  O348  1  0.04540000  0.90360000  0.48720000  1
  O  O349  1  0.90360000  0.04540000  0.56380000  1
  O  O350  1  0.01360000  0.93520000  0.59680000  1
  O  O351  1  0.93520000  0.01360000  0.45440000  1
  O  O352  1  0.43655000  0.48545000  0.11605000  1
  O  O353  1  0.48545000  0.43655000  0.96195000  1
  O  O354  1  0.53750000  0.38390000  0.06390000  1
  O  O355  1  0.38390000  0.53750000  0.01470000  1
  O  O356  1  0.72210000  0.16690000  0.26030000  1
  O  O357  1  0.16690000  0.72210000  0.85070000  1
  O  O358  1  0.23930000  0.64890000  0.33330000  1
  O  O359  1  0.64890000  0.23930000  0.77850000  1
  O  O360  1  0.21200000  0.67240000  0.77320000  1
  O  O361  1  0.67240000  0.21200000  0.34240000  1
  O  O362  1  0.72680000  0.15700000  0.82820000  1
  O  O363  1  0.15700000  0.72680000  0.28800000  1
  O  O364  1  0.70380000  0.02120000  0.27080000  1
  O  O365  1  0.02120000  0.70380000  0.00420000  1
  O  O366  1  0.22910000  0.49530000  0.47950000  1
  O  O367  1  0.49530000  0.22910000  0.79610000  1
  O  O368  1  0.47950000  0.22910000  0.49530000  1
  O  O369  1  0.22910000  0.47950000  0.79610000  1
  O  O370  1  0.70380000  0.00420000  0.02120000  1
  O  O371  1  0.00420000  0.70380000  0.27080000  1
  O  O372  1  0.59680000  0.01360000  0.93520000  1
  O  O373  1  0.01360000  0.59680000  0.45440000  1
  O  O374  1  0.04540000  0.56380000  0.90360000  1
  O  O375  1  0.56380000  0.04540000  0.48720000  1
  O  O376  1  0.48545000  0.11605000  0.43655000  1
  O  O377  1  0.11605000  0.48545000  0.96195000  1
  O  O378  1  0.53750000  0.06390000  0.01470000  1
  O  O379  1  0.06390000  0.53750000  0.38390000  1
  O  O380  1  0.72210000  0.85070000  0.16690000  1
  O  O381  1  0.85070000  0.72210000  0.26030000  1
  O  O382  1  0.33330000  0.23930000  0.64890000  1
  O  O383  1  0.23930000  0.33330000  0.77850000  1
  O  O384  1  0.82820000  0.72680000  0.15700000  1
  O  O385  1  0.72680000  0.82820000  0.28800000  1
  O  O386  1  0.21200000  0.34240000  0.67240000  1
  O  O387  1  0.34240000  0.21200000  0.77320000  1
  O  O388  1  0.11605000  0.43655000  0.48545000  1
  O  O389  1  0.43655000  0.11605000  0.96195000  1
  O  O390  1  0.53750000  0.01470000  0.38390000  1
  O  O391  1  0.01470000  0.53750000  0.06390000  1
  O  O392  1  0.04540000  0.48720000  0.56380000  1
  O  O393  1  0.48720000  0.04540000  0.90360000  1
  O  O394  1  0.93520000  0.59680000  0.01360000  1
  O  O395  1  0.59680000  0.93520000  0.45440000  1
  O  O396  1  0.01360000  0.45440000  0.93520000  1
  O  O397  1  0.45440000  0.01360000  0.59680000  1
  O  O398  1  0.56380000  0.90360000  0.04540000  1
  O  O399  1  0.90360000  0.56380000  0.48720000  1
  O  O400  1  0.38390000  0.06390000  0.53750000  1
  O  O401  1  0.06390000  0.38390000  0.01470000  1
  O  O402  1  0.48545000  0.96195000  0.11605000  1
  O  O403  1  0.96195000  0.48545000  0.43655000  1
  O  O404  1  0.67240000  0.77320000  0.21200000  1
  O  O405  1  0.77320000  0.67240000  0.34240000  1
  O  O406  1  0.15700000  0.28800000  0.82820000  1
  O  O407  1  0.28800000  0.15700000  0.72680000  1
  O  O408  1  0.64890000  0.77850000  0.33330000  1
  O  O409  1  0.77850000  0.64890000  0.23930000  1
  O  O410  1  0.16690000  0.26030000  0.72210000  1
  O  O411  1  0.26030000  0.16690000  0.85070000  1
  O  O412  1  0.01470000  0.38390000  0.53750000  1
  O  O413  1  0.38390000  0.01470000  0.06390000  1
  O  O414  1  0.43655000  0.96195000  0.48545000  1
  O  O415  1  0.96195000  0.43655000  0.11605000  1
  O  O416  1  0.90360000  0.48720000  0.04540000  1
  O  O417  1  0.48720000  0.90360000  0.56380000  1
  O  O418  1  0.93520000  0.45440000  0.59680000  1
  O  O419  1  0.45440000  0.93520000  0.01360000  1
  O  O420  1  0.02120000  0.27080000  0.70380000  1
  O  O421  1  0.27080000  0.02120000  0.00420000  1
  O  O422  1  0.49530000  0.79610000  0.47950000  1
  O  O423  1  0.79610000  0.49530000  0.22910000  1
  O  O424  1  0.47950000  0.79610000  0.22910000  1
  O  O425  1  0.79610000  0.47950000  0.49530000  1
  O  O426  1  0.27080000  0.00420000  0.70380000  1
  O  O427  1  0.00420000  0.27080000  0.02120000  1
  O  O428  1  0.82820000  0.28800000  0.72680000  1
  O  O429  1  0.28800000  0.82820000  0.15700000  1
  O  O430  1  0.77320000  0.34240000  0.21200000  1
  O  O431  1  0.34240000  0.77320000  0.67240000  1
  O  O432  1  0.33330000  0.77850000  0.23930000  1
  O  O433  1  0.77850000  0.33330000  0.64890000  1
  O  O434  1  0.26030000  0.85070000  0.72210000  1
  O  O435  1  0.85070000  0.26030000  0.16690000  1
  O  O436  1  0.06390000  0.01470000  0.53750000  1
  O  O437  1  0.01470000  0.06390000  0.38390000  1
  O  O438  1  0.11605000  0.96195000  0.43655000  1
  O  O439  1  0.96195000  0.11605000  0.48545000  1
  O  O440  1  0.59680000  0.45440000  0.01360000  1
  O  O441  1  0.45440000  0.59680000  0.93520000  1
  O  O442  1  0.48720000  0.56380000  0.04540000  1
  O  O443  1  0.56380000  0.48720000  0.90360000  1
  O  O444  1  0.00420000  0.02120000  0.70380000  1
  O  O445  1  0.02120000  0.00420000  0.27080000  1
  O  O446  1  0.22910000  0.79610000  0.49530000  1
  O  O447  1  0.79610000  0.22910000  0.47950000  1
  O  O448  1  0.23930000  0.77850000  0.64890000  1
  O  O449  1  0.77850000  0.23930000  0.33330000  1
  O  O450  1  0.85070000  0.16690000  0.72210000  1
  O  O451  1  0.16690000  0.85070000  0.26030000  1
  O  O452  1  0.72680000  0.28800000  0.15700000  1
  O  O453  1  0.34240000  0.67240000  0.21200000  1
  O  O454  1  0.67240000  0.34240000  0.77320000  1
  O  O455  1  0.28800000  0.72680000  0.82820000  1
