# generated using pymatgen
data_ZnCo2P4(HO3)4
_symmetry_space_group_name_H-M   'P 1'
_cell_length_a   10.46900000
_cell_length_b   14.11300000
_cell_length_c   14.59000000
_cell_angle_alpha   90.00000000
_cell_angle_beta   90.00000000
_cell_angle_gamma   90.00000000
_symmetry_Int_Tables_number   1
_chemical_formula_structural   ZnCo2P4(HO3)4
_chemical_formula_sum   'Zn4 Co8 P16 H16 O48'
_cell_volume   2155.65786623
_cell_formula_units_Z   4
loop_
 _symmetry_equiv_pos_site_id
 _symmetry_equiv_pos_as_xyz
  1  'x, y, z'
loop_
 _atom_site_type_symbol
 _atom_site_label
 _atom_site_symmetry_multiplicity
 _atom_site_fract_x
 _atom_site_fract_y
 _atom_site_fract_z
 _atom_site_occupancy
  Zn  Zn0  1  0.64991000  0.25361000  0.03869000  1
  Zn  Zn1  1  0.61921000  0.38638000  0.65152000  1
  Zn  Zn2  1  0.11921000  0.61362000  0.34848000  1
  Zn  Zn3  1  0.14991000  0.74639000  0.96131000  1
  Co  Co4  1  0.68264000  0.10308000  0.66970000  1
  Co  Co5  1  0.11921000  0.11362000  0.15152000  1
  Co  Co6  1  0.14991000  0.24639000  0.53869000  1
  Co  Co7  1  0.18264000  0.39692000  0.16970000  1
  Co  Co8  1  0.68264000  0.60308000  0.83030000  1
  Co  Co9  1  0.64991000  0.75361000  0.46131000  1
  Co  Co10  1  0.61921000  0.88638000  0.84848000  1
  Co  Co11  1  0.18264000  0.89692000  0.33030000  1
  P  P12  1  0.62130000  0.10100000  0.88489000  1
  P  P13  1  0.16960000  0.11566000  0.36821000  1
  P  P14  1  0.42640000  0.21776000  0.63845000  1
  P  P15  1  0.36490000  0.22350000  0.08982000  1
  P  P16  1  0.86490000  0.27650000  0.58982000  1
  P  P17  1  0.92640000  0.28224000  0.13845000  1
  P  P18  1  0.66960000  0.38434000  0.86821000  1
  P  P19  1  0.12130000  0.39900000  0.38489000  1
  P  P20  1  0.62130000  0.60100000  0.61511000  1
  P  P21  1  0.16960000  0.61566000  0.13179000  1
  P  P22  1  0.42640000  0.71776000  0.86155000  1
  P  P23  1  0.36490000  0.72350000  0.41018000  1
  P  P24  1  0.86490000  0.77650000  0.91018000  1
  P  P25  1  0.92640000  0.78224000  0.36155000  1
  P  P26  1  0.66960000  0.88434000  0.63179000  1
  P  P27  1  0.12130000  0.89900000  0.11511000  1
  H  H28  1  0.51600000  0.15800000  0.86100000  1
  H  H29  1  0.27500000  0.18200000  0.36000000  1
  H  H30  1  0.34400000  0.23400000  0.99170000  1
  H  H31  1  0.40400000  0.23600000  0.72800000  1
  H  H32  1  0.90400000  0.26400000  0.22800000  1
  H  H33  1  0.84400000  0.26600000  0.49170000  1
  H  H34  1  0.77500000  0.31800000  0.86000000  1
  H  H35  1  0.01600000  0.34200000  0.36100000  1
  H  H36  1  0.51600000  0.65800000  0.63900000  1
  H  H37  1  0.27500000  0.68200000  0.14000000  1
  H  H38  1  0.34400000  0.73400000  0.50830000  1
  H  H39  1  0.40400000  0.73600000  0.77200000  1
  H  H40  1  0.90400000  0.76400000  0.27200000  1
  H  H41  1  0.84400000  0.76600000  0.00830000  1
  H  H42  1  0.77500000  0.81800000  0.64000000  1
  H  H43  1  0.01600000  0.84200000  0.13900000  1
  O  O44  1  0.57020000  0.00430000  0.91040000  1
  O  O45  1  0.23020000  0.01860000  0.38620000  1
  O  O46  1  0.70330000  0.09690000  0.80040000  1
  O  O47  1  0.09080000  0.11890000  0.28250000  1
  O  O48  1  0.50600000  0.12720000  0.63450000  1
  O  O49  1  0.29720000  0.13540000  0.12280000  1
  O  O50  1  0.69560000  0.14500000  0.96390000  1
  O  O51  1  0.09250000  0.14690000  0.45200000  1
  O  O52  1  0.80480000  0.18560000  0.61500000  1
  O  O53  1  0.30050000  0.19700000  0.59280000  1
  O  O54  1  0.99340000  0.19800000  0.09580000  1
  O  O55  1  0.50620000  0.21890000  0.11340000  1
  O  O56  1  0.00620000  0.28110000  0.61340000  1
  O  O57  1  0.49340000  0.30200000  0.59580000  1
  O  O58  1  0.80050000  0.30300000  0.09280000  1
  O  O59  1  0.30480000  0.31440000  0.11500000  1
  O  O60  1  0.59250000  0.35310000  0.95200000  1
  O  O61  1  0.19560000  0.35500000  0.46390000  1
  O  O62  1  0.79720000  0.36460000  0.62280000  1
  O  O63  1  0.00600000  0.37280000  0.13450000  1
  O  O64  1  0.59080000  0.38110000  0.78250000  1
  O  O65  1  0.20330000  0.40310000  0.30040000  1
  O  O66  1  0.73020000  0.48140000  0.88620000  1
  O  O67  1  0.07020000  0.49570000  0.41040000  1
  O  O68  1  0.57020000  0.50430000  0.58960000  1
  O  O69  1  0.23020000  0.51860000  0.11380000  1
  O  O70  1  0.70330000  0.59690000  0.69960000  1
  O  O71  1  0.09080000  0.61890000  0.21750000  1
  O  O72  1  0.50600000  0.62720000  0.86550000  1
  O  O73  1  0.29720000  0.63540000  0.37720000  1
  O  O74  1  0.69560000  0.64500000  0.53610000  1
  O  O75  1  0.09250000  0.64690000  0.04800000  1
  O  O76  1  0.80480000  0.68560000  0.88500000  1
  O  O77  1  0.30050000  0.69700000  0.90720000  1
  O  O78  1  0.99340000  0.69800000  0.40420000  1
  O  O79  1  0.50620000  0.71890000  0.38660000  1
  O  O80  1  0.00620000  0.78110000  0.88660000  1
  O  O81  1  0.49340000  0.80200000  0.90420000  1
  O  O82  1  0.80050000  0.80300000  0.40720000  1
  O  O83  1  0.30480000  0.81440000  0.38500000  1
  O  O84  1  0.59250000  0.85310000  0.54800000  1
  O  O85  1  0.19560000  0.85500000  0.03610000  1
  O  O86  1  0.79720000  0.86460000  0.87720000  1
  O  O87  1  0.00600000  0.87280000  0.36550000  1
  O  O88  1  0.59080000  0.88110000  0.71750000  1
  O  O89  1  0.20330000  0.90310000  0.19960000  1
  O  O90  1  0.73020000  0.98140000  0.61380000  1
  O  O91  1  0.07020000  0.99570000  0.08960000  1
