# generated using pymatgen
data_CuH2(C3O2)2
_symmetry_space_group_name_H-M   'P 1'
_cell_length_a   18.66260000
_cell_length_b   18.66260000
_cell_length_c   18.66260000
_cell_angle_alpha   60.00000000
_cell_angle_beta   60.00000000
_cell_angle_gamma   60.00000000
_symmetry_Int_Tables_number   1
_chemical_formula_structural   CuH2(C3O2)2
_chemical_formula_sum   'Cu12 H24 C72 O48'
_cell_volume   4596.22674613
_cell_formula_units_Z   12
loop_
 _symmetry_equiv_pos_site_id
 _symmetry_equiv_pos_as_xyz
  1  'x, y, z'
loop_
 _atom_site_type_symbol
 _atom_site_label
 _atom_site_symmetry_multiplicity
 _atom_site_fract_x
 _atom_site_fract_y
 _atom_site_fract_z
 _atom_site_occupancy
  Cu  Cu0  1  0.06986000  0.50000000  0.93014000  1
  Cu  Cu1  1  0.50000000  0.06986000  0.93014000  1
  Cu  Cu2  1  0.50000000  0.50000000  0.93014000  1
  Cu  Cu3  1  0.06986000  0.50000000  0.50000000  1
  Cu  Cu4  1  0.50000000  0.06986000  0.50000000  1
  Cu  Cu5  1  0.06986000  0.93014000  0.50000000  1
  Cu  Cu6  1  0.93014000  0.06986000  0.50000000  1
  Cu  Cu7  1  0.50000000  0.93014000  0.50000000  1
  Cu  Cu8  1  0.93014000  0.50000000  0.50000000  1
  Cu  Cu9  1  0.50000000  0.50000000  0.06986000  1
  Cu  Cu10  1  0.50000000  0.93014000  0.06986000  1
  Cu  Cu11  1  0.93014000  0.50000000  0.06986000  1
  H  H12  1  0.46820000  0.77180000  0.98820000  1
  H  H13  1  0.77180000  0.46820000  0.98820000  1
  H  H14  1  0.77180000  0.77180000  0.98820000  1
  H  H15  1  0.46820000  0.77180000  0.77180000  1
  H  H16  1  0.77180000  0.46820000  0.77180000  1
  H  H17  1  0.46820000  0.98820000  0.77180000  1
  H  H18  1  0.98820000  0.46820000  0.77180000  1
  H  H19  1  0.77180000  0.98820000  0.77180000  1
  H  H20  1  0.98820000  0.77180000  0.77180000  1
  H  H21  1  0.01180000  0.22820000  0.53180000  1
  H  H22  1  0.22820000  0.01180000  0.53180000  1
  H  H23  1  0.22820000  0.22820000  0.53180000  1
  H  H24  1  0.77180000  0.77180000  0.46820000  1
  H  H25  1  0.77180000  0.98820000  0.46820000  1
  H  H26  1  0.98820000  0.77180000  0.46820000  1
  H  H27  1  0.01180000  0.22820000  0.22820000  1
  H  H28  1  0.22820000  0.01180000  0.22820000  1
  H  H29  1  0.01180000  0.53180000  0.22820000  1
  H  H30  1  0.53180000  0.01180000  0.22820000  1
  H  H31  1  0.22820000  0.53180000  0.22820000  1
  H  H32  1  0.53180000  0.22820000  0.22820000  1
  H  H33  1  0.22820000  0.22820000  0.01180000  1
  H  H34  1  0.22820000  0.53180000  0.01180000  1
  H  H35  1  0.53180000  0.22820000  0.01180000  1
  C  C36  1  0.47428000  0.66332000  0.93120000  1
  C  C37  1  0.66332000  0.47428000  0.93120000  1
  C  C38  1  0.47428000  0.93120000  0.93120000  1
  C  C39  1  0.93120000  0.47428000  0.93120000  1
  C  C40  1  0.66332000  0.93120000  0.93120000  1
  C  C41  1  0.93120000  0.66332000  0.93120000  1
  C  C42  1  0.46734000  0.80090000  0.93086000  1
  C  C43  1  0.80090000  0.46734000  0.93086000  1
  C  C44  1  0.80090000  0.80090000  0.93086000  1
  C  C45  1  0.46676000  0.75844000  0.88740000  1
  C  C46  1  0.75844000  0.46676000  0.88740000  1
  C  C47  1  0.46676000  0.88740000  0.88740000  1
  C  C48  1  0.88740000  0.46676000  0.88740000  1
  C  C49  1  0.75844000  0.88740000  0.88740000  1
  C  C50  1  0.88740000  0.75844000  0.88740000  1
  C  C51  1  0.46734000  0.80090000  0.80090000  1
  C  C52  1  0.80090000  0.46734000  0.80090000  1
  C  C53  1  0.46734000  0.93086000  0.80090000  1
  C  C54  1  0.93086000  0.46734000  0.80090000  1
  C  C55  1  0.80090000  0.93086000  0.80090000  1
  C  C56  1  0.93086000  0.80090000  0.80090000  1
  C  C57  1  0.46676000  0.88740000  0.75844000  1
  C  C58  1  0.88740000  0.46676000  0.75844000  1
  C  C59  1  0.88740000  0.88740000  0.75844000  1
  C  C60  1  0.47428000  0.93120000  0.66332000  1
  C  C61  1  0.93120000  0.47428000  0.66332000  1
  C  C62  1  0.93120000  0.93120000  0.66332000  1
  C  C63  1  0.11260000  0.11260000  0.53324000  1
  C  C64  1  0.11260000  0.24156000  0.53324000  1
  C  C65  1  0.24156000  0.11260000  0.53324000  1
  C  C66  1  0.06914000  0.19910000  0.53266000  1
  C  C67  1  0.19910000  0.06914000  0.53266000  1
  C  C68  1  0.19910000  0.19910000  0.53266000  1
  C  C69  1  0.06880000  0.06880000  0.52572000  1
  C  C70  1  0.06880000  0.33668000  0.52572000  1
  C  C71  1  0.33668000  0.06880000  0.52572000  1
  C  C72  1  0.66332000  0.93120000  0.47428000  1
  C  C73  1  0.93120000  0.66332000  0.47428000  1
  C  C74  1  0.93120000  0.93120000  0.47428000  1
  C  C75  1  0.80090000  0.80090000  0.46734000  1
  C  C76  1  0.80090000  0.93086000  0.46734000  1
  C  C77  1  0.93086000  0.80090000  0.46734000  1
  C  C78  1  0.75844000  0.88740000  0.46676000  1
  C  C79  1  0.88740000  0.75844000  0.46676000  1
  C  C80  1  0.88740000  0.88740000  0.46676000  1
  C  C81  1  0.06880000  0.06880000  0.33668000  1
  C  C82  1  0.06880000  0.52572000  0.33668000  1
  C  C83  1  0.52572000  0.06880000  0.33668000  1
  C  C84  1  0.11260000  0.11260000  0.24156000  1
  C  C85  1  0.11260000  0.53324000  0.24156000  1
  C  C86  1  0.53324000  0.11260000  0.24156000  1
  C  C87  1  0.06914000  0.19910000  0.19910000  1
  C  C88  1  0.19910000  0.06914000  0.19910000  1
  C  C89  1  0.06914000  0.53266000  0.19910000  1
  C  C90  1  0.53266000  0.06914000  0.19910000  1
  C  C91  1  0.19910000  0.53266000  0.19910000  1
  C  C92  1  0.53266000  0.19910000  0.19910000  1
  C  C93  1  0.11260000  0.24156000  0.11260000  1
  C  C94  1  0.24156000  0.11260000  0.11260000  1
  C  C95  1  0.11260000  0.53324000  0.11260000  1
  C  C96  1  0.53324000  0.11260000  0.11260000  1
  C  C97  1  0.24156000  0.53324000  0.11260000  1
  C  C98  1  0.53324000  0.24156000  0.11260000  1
  C  C99  1  0.19910000  0.19910000  0.06914000  1
  C  C100  1  0.19910000  0.53266000  0.06914000  1
  C  C101  1  0.53266000  0.19910000  0.06914000  1
  C  C102  1  0.06880000  0.33668000  0.06880000  1
  C  C103  1  0.33668000  0.06880000  0.06880000  1
  C  C104  1  0.06880000  0.52572000  0.06880000  1
  C  C105  1  0.52572000  0.06880000  0.06880000  1
  C  C106  1  0.33668000  0.52572000  0.06880000  1
  C  C107  1  0.52572000  0.33668000  0.06880000  1
  O  O108  1  0.11242000  0.37394000  0.99244000  1
  O  O109  1  0.37394000  0.11242000  0.99244000  1
  O  O110  1  0.11242000  0.52120000  0.99244000  1
  O  O111  1  0.52120000  0.11242000  0.99244000  1
  O  O112  1  0.37394000  0.52120000  0.99244000  1
  O  O113  1  0.52120000  0.37394000  0.99244000  1
  O  O114  1  0.00756000  0.47880000  0.88758000  1
  O  O115  1  0.47880000  0.00756000  0.88758000  1
  O  O116  1  0.00756000  0.62606000  0.88758000  1
  O  O117  1  0.62606000  0.00756000  0.88758000  1
  O  O118  1  0.47880000  0.62606000  0.88758000  1
  O  O119  1  0.62606000  0.47880000  0.88758000  1
  O  O120  1  0.00756000  0.47880000  0.62606000  1
  O  O121  1  0.47880000  0.00756000  0.62606000  1
  O  O122  1  0.00756000  0.88758000  0.62606000  1
  O  O123  1  0.88758000  0.00756000  0.62606000  1
  O  O124  1  0.47880000  0.88758000  0.62606000  1
  O  O125  1  0.88758000  0.47880000  0.62606000  1
  O  O126  1  0.11242000  0.37394000  0.52120000  1
  O  O127  1  0.37394000  0.11242000  0.52120000  1
  O  O128  1  0.11242000  0.99244000  0.52120000  1
  O  O129  1  0.99244000  0.11242000  0.52120000  1
  O  O130  1  0.37394000  0.99244000  0.52120000  1
  O  O131  1  0.99244000  0.37394000  0.52120000  1
  O  O132  1  0.00756000  0.62606000  0.47880000  1
  O  O133  1  0.62606000  0.00756000  0.47880000  1
  O  O134  1  0.00756000  0.88758000  0.47880000  1
  O  O135  1  0.88758000  0.00756000  0.47880000  1
  O  O136  1  0.62606000  0.88758000  0.47880000  1
  O  O137  1  0.88758000  0.62606000  0.47880000  1
  O  O138  1  0.11242000  0.52120000  0.37394000  1
  O  O139  1  0.52120000  0.11242000  0.37394000  1
  O  O140  1  0.11242000  0.99244000  0.37394000  1
  O  O141  1  0.99244000  0.11242000  0.37394000  1
  O  O142  1  0.52120000  0.99244000  0.37394000  1
  O  O143  1  0.99244000  0.52120000  0.37394000  1
  O  O144  1  0.37394000  0.52120000  0.11242000  1
  O  O145  1  0.52120000  0.37394000  0.11242000  1
  O  O146  1  0.37394000  0.99244000  0.11242000  1
  O  O147  1  0.99244000  0.37394000  0.11242000  1
  O  O148  1  0.52120000  0.99244000  0.11242000  1
  O  O149  1  0.99244000  0.52120000  0.11242000  1
  O  O150  1  0.47880000  0.62606000  0.00756000  1
  O  O151  1  0.62606000  0.47880000  0.00756000  1
  O  O152  1  0.47880000  0.88758000  0.00756000  1
  O  O153  1  0.88758000  0.47880000  0.00756000  1
  O  O154  1  0.62606000  0.88758000  0.00756000  1
  O  O155  1  0.88758000  0.62606000  0.00756000  1
