# generated using pymatgen
data_CoHC4O3
_symmetry_space_group_name_H-M   'P 1'
_cell_length_a   6.79040000
_cell_length_b   15.11810000
_cell_length_c   15.11809401
_cell_angle_alpha   117.79934799
_cell_angle_beta   98.61052941
_cell_angle_gamma   98.61070000
_symmetry_Int_Tables_number   1
_chemical_formula_structural   CoHC4O3
_chemical_formula_sum   'Co6 H6 C24 O18'
_cell_volume   1313.93682323
_cell_formula_units_Z   6
loop_
 _symmetry_equiv_pos_site_id
 _symmetry_equiv_pos_as_xyz
  1  'x, y, z'
loop_
 _atom_site_type_symbol
 _atom_site_label
 _atom_site_symmetry_multiplicity
 _atom_site_fract_x
 _atom_site_fract_y
 _atom_site_fract_z
 _atom_site_occupancy
  Co  Co0  1  0.39554000  0.57745000  0.28017000  1
  Co  Co1  1  0.81809000  0.42255000  0.70272000  1
  Co  Co2  1  0.81809000  0.70272000  0.42255000  1
  Co  Co3  1  0.11537000  0.29728000  0.71983000  1
  Co  Co4  1  0.11537000  0.71983000  0.29728000  1
  Co  Co5  1  0.39554000  0.28017000  0.57745000  1
  H  H6  1  0.52300000  0.00000000  0.43900000  1
  H  H7  1  0.72900000  0.46350000  0.46350000  1
  H  H8  1  0.26550000  0.53650000  1.00000000  1
  H  H9  1  0.08400000  0.56100000  0.56100000  1
  H  H10  1  0.52300000  0.43900000  0.00000000  1
  H  H11  1  0.26550000  0.00000000  0.53650000  1
  C  C12  1  0.50530000  0.56130000  0.46560000  1
  C  C13  1  0.94400000  0.43870000  0.90430000  1
  C  C14  1  0.59180000  0.49620000  0.49620000  1
  C  C15  1  0.09560000  0.50380000  1.00000000  1
  C  C16  1  0.56020000  0.81490000  0.35470000  1
  C  C17  1  0.74530000  0.18510000  0.53980000  1
  C  C18  1  0.68630000  0.00000000  0.43990000  1
  C  C19  1  0.73680000  0.90650000  0.41190000  1
  C  C20  1  0.83030000  0.09350000  0.50540000  1
  C  C21  1  0.94400000  0.90430000  0.43870000  1
  C  C22  1  0.03970000  0.09570000  0.53440000  1
  C  C23  1  0.74530000  0.53980000  0.18510000  1
  C  C24  1  0.20550000  0.46020000  0.64530000  1
  C  C25  1  0.09560000  1.00000000  0.50380000  1
  C  C26  1  0.24640000  0.56010000  0.56010000  1
  C  C27  1  0.68630000  0.43990000  0.00000000  1
  C  C28  1  0.83030000  0.50540000  0.09350000  1
  C  C29  1  0.32490000  0.49460000  0.58810000  1
  C  C30  1  0.20550000  0.64530000  0.46020000  1
  C  C31  1  0.56020000  0.35470000  0.81490000  1
  C  C32  1  0.32490000  0.58810000  0.49460000  1
  C  C33  1  0.73680000  0.41190000  0.90650000  1
  C  C34  1  0.03970000  0.53440000  0.09570000  1
  C  C35  1  0.50530000  0.46560000  0.56130000  1
  O  O36  1  0.37940000  0.82650000  0.32870000  1
  O  O37  1  0.55290000  0.17350000  0.50220000  1
  O  O38  1  0.58260000  0.58550000  0.40330000  1
  O  O39  1  0.99710000  0.41450000  0.81780000  1
  O  O40  1  0.59220000  0.72880000  0.34180000  1
  O  O41  1  0.86340000  0.27120000  0.61300000  1
  O  O42  1  0.55290000  0.50220000  0.17350000  1
  O  O43  1  0.05070000  0.49780000  0.67130000  1
  O  O44  1  0.05070000  0.67130000  0.49780000  1
  O  O45  1  0.37940000  0.32870000  0.82650000  1
  O  O46  1  0.99710000  0.81780000  0.41450000  1
  O  O47  1  0.17930000  0.18220000  0.59670000  1
  O  O48  1  0.86340000  0.61300000  0.27120000  1
  O  O49  1  0.25040000  0.38700000  0.65820000  1
  O  O50  1  0.25040000  0.65820000  0.38700000  1
  O  O51  1  0.59220000  0.34180000  0.72880000  1
  O  O52  1  0.17930000  0.59670000  0.18220000  1
  O  O53  1  0.58260000  0.40330000  0.58550000  1
