# generated using pymatgen
data_MoH9C7N3O
_symmetry_space_group_name_H-M   'P 1'
_cell_length_a   12.42090000
_cell_length_b   12.44710000
_cell_length_c   15.11550000
_cell_angle_alpha   90.00000000
_cell_angle_beta   90.00000000
_cell_angle_gamma   90.00000000
_symmetry_Int_Tables_number   1
_chemical_formula_structural   MoH9C7N3O
_chemical_formula_sum   'Mo8 H72 C56 N24 O8'
_cell_volume   2336.91954915
_cell_formula_units_Z   8
loop_
 _symmetry_equiv_pos_site_id
 _symmetry_equiv_pos_as_xyz
  1  'x, y, z'
loop_
 _atom_site_type_symbol
 _atom_site_label
 _atom_site_symmetry_multiplicity
 _atom_site_fract_x
 _atom_site_fract_y
 _atom_site_fract_z
 _atom_site_occupancy
  Mo  Mo0  1  0.08607000  0.10284000  0.93931000  1
  Mo  Mo1  1  0.08607000  0.39716000  0.93931000  1
  Mo  Mo2  1  0.41393000  0.10284000  0.43931000  1
  Mo  Mo3  1  0.41393000  0.39716000  0.43931000  1
  Mo  Mo4  1  0.58607000  0.60284000  0.56069000  1
  Mo  Mo5  1  0.58607000  0.89716000  0.56069000  1
  Mo  Mo6  1  0.91393000  0.60284000  0.06069000  1
  Mo  Mo7  1  0.91393000  0.89716000  0.06069000  1
  H  H8  1  0.03240000  0.08440000  0.32240000  1
  H  H9  1  0.03240000  0.41560000  0.32240000  1
  H  H10  1  0.04670000  0.09130000  0.17700000  1
  H  H11  1  0.04670000  0.40870000  0.17700000  1
  H  H12  1  0.06700000  0.08490000  0.47800000  1
  H  H13  1  0.06700000  0.41510000  0.47800000  1
  H  H14  1  0.06970000  0.25000000  0.55620000  1
  H  H15  1  0.10370000  0.64850000  0.47440000  1
  H  H16  1  0.10370000  0.85150000  0.47440000  1
  H  H17  1  0.11710000  0.58470000  0.56480000  1
  H  H18  1  0.11710000  0.91530000  0.56480000  1
  H  H19  1  0.13860000  0.68700000  0.70830000  1
  H  H20  1  0.13860000  0.81300000  0.70830000  1
  H  H21  1  0.14100000  0.14780000  0.34170000  1
  H  H22  1  0.14100000  0.35220000  0.34170000  1
  H  H23  1  0.16300000  0.25000000  0.48440000  1
  H  H24  1  0.20450000  0.59160000  0.07060000  1
  H  H25  1  0.20450000  0.90840000  0.07060000  1
  H  H26  1  0.29550000  0.59160000  0.57060000  1
  H  H27  1  0.29550000  0.90840000  0.57060000  1
  H  H28  1  0.33700000  0.25000000  0.98440000  1
  H  H29  1  0.35900000  0.14780000  0.84170000  1
  H  H30  1  0.35900000  0.35220000  0.84170000  1
  H  H31  1  0.36140000  0.68700000  0.20830000  1
  H  H32  1  0.36140000  0.81300000  0.20830000  1
  H  H33  1  0.38290000  0.58470000  0.06480000  1
  H  H34  1  0.38290000  0.91530000  0.06480000  1
  H  H35  1  0.39630000  0.64850000  0.97440000  1
  H  H36  1  0.39630000  0.85150000  0.97440000  1
  H  H37  1  0.43030000  0.25000000  0.05620000  1
  H  H38  1  0.43300000  0.08490000  0.97800000  1
  H  H39  1  0.43300000  0.41510000  0.97800000  1
  H  H40  1  0.45330000  0.09130000  0.67700000  1
  H  H41  1  0.45330000  0.40870000  0.67700000  1
  H  H42  1  0.46760000  0.08440000  0.82240000  1
  H  H43  1  0.46760000  0.41560000  0.82240000  1
  H  H44  1  0.53240000  0.58440000  0.17760000  1
  H  H45  1  0.53240000  0.91560000  0.17760000  1
  H  H46  1  0.54670000  0.59130000  0.32300000  1
  H  H47  1  0.54670000  0.90870000  0.32300000  1
  H  H48  1  0.56700000  0.58490000  0.02200000  1
  H  H49  1  0.56700000  0.91510000  0.02200000  1
  H  H50  1  0.56970000  0.75000000  0.94380000  1
  H  H51  1  0.60370000  0.14850000  0.02560000  1
  H  H52  1  0.60370000  0.35150000  0.02560000  1
  H  H53  1  0.61710000  0.08470000  0.93520000  1
  H  H54  1  0.61710000  0.41530000  0.93520000  1
  H  H55  1  0.63860000  0.18700000  0.79170000  1
  H  H56  1  0.63860000  0.31300000  0.79170000  1
  H  H57  1  0.64100000  0.64780000  0.15830000  1
  H  H58  1  0.64100000  0.85220000  0.15830000  1
  H  H59  1  0.66300000  0.75000000  0.01560000  1
  H  H60  1  0.70450000  0.09160000  0.42940000  1
  H  H61  1  0.70450000  0.40840000  0.42940000  1
  H  H62  1  0.79550000  0.09160000  0.92940000  1
  H  H63  1  0.79550000  0.40840000  0.92940000  1
  H  H64  1  0.83700000  0.75000000  0.51560000  1
  H  H65  1  0.85900000  0.64780000  0.65830000  1
  H  H66  1  0.85900000  0.85220000  0.65830000  1
  H  H67  1  0.86140000  0.18700000  0.29170000  1
  H  H68  1  0.86140000  0.31300000  0.29170000  1
  H  H69  1  0.88290000  0.08470000  0.43520000  1
  H  H70  1  0.88290000  0.41530000  0.43520000  1
  H  H71  1  0.89630000  0.14850000  0.52560000  1
  H  H72  1  0.89630000  0.35150000  0.52560000  1
  H  H73  1  0.93030000  0.75000000  0.44380000  1
  H  H74  1  0.93300000  0.58490000  0.52200000  1
  H  H75  1  0.93300000  0.91510000  0.52200000  1
  H  H76  1  0.95330000  0.59130000  0.82300000  1
  H  H77  1  0.95330000  0.90870000  0.82300000  1
  H  H78  1  0.96760000  0.58440000  0.67760000  1
  H  H79  1  0.96760000  0.91560000  0.67760000  1
  C  C80  1  0.01450000  0.25000000  0.30823000  1
  C  C81  1  0.03604000  0.14970000  0.44985000  1
  C  C82  1  0.03604000  0.35030000  0.44985000  1
  C  C83  1  0.05091000  0.16323000  0.15825000  1
  C  C84  1  0.05091000  0.33677000  0.15825000  1
  C  C85  1  0.06282000  0.14870000  0.35027000  1
  C  C86  1  0.06282000  0.35130000  0.35027000  1
  C  C87  1  0.08480000  0.25000000  0.49260000  1
  C  C88  1  0.08617000  0.64920000  0.53762000  1
  C  C89  1  0.08617000  0.85080000  0.53762000  1
  C  C90  1  0.10790000  0.75000000  0.68050000  1
  C  C91  1  0.13350000  0.75000000  0.58120000  1
  C  C92  1  0.18136000  0.66352000  0.07004000  1
  C  C93  1  0.18136000  0.83648000  0.07004000  1
  C  C94  1  0.31864000  0.66352000  0.57004000  1
  C  C95  1  0.31864000  0.83648000  0.57004000  1
  C  C96  1  0.36650000  0.75000000  0.08120000  1
  C  C97  1  0.39210000  0.75000000  0.18050000  1
  C  C98  1  0.41383000  0.64920000  0.03762000  1
  C  C99  1  0.41383000  0.85080000  0.03762000  1
  C  C100  1  0.41520000  0.25000000  0.99260000  1
  C  C101  1  0.43718000  0.14870000  0.85027000  1
  C  C102  1  0.43718000  0.35130000  0.85027000  1
  C  C103  1  0.44909000  0.16323000  0.65825000  1
  C  C104  1  0.44909000  0.33677000  0.65825000  1
  C  C105  1  0.46396000  0.14970000  0.94985000  1
  C  C106  1  0.46396000  0.35030000  0.94985000  1
  C  C107  1  0.48550000  0.25000000  0.80823000  1
  C  C108  1  0.51450000  0.75000000  0.19177000  1
  C  C109  1  0.53604000  0.64970000  0.05015000  1
  C  C110  1  0.53604000  0.85030000  0.05015000  1
  C  C111  1  0.55091000  0.66323000  0.34175000  1
  C  C112  1  0.55091000  0.83677000  0.34175000  1
  C  C113  1  0.56282000  0.64870000  0.14973000  1
  C  C114  1  0.56282000  0.85130000  0.14973000  1
  C  C115  1  0.58480000  0.75000000  0.00740000  1
  C  C116  1  0.58617000  0.14920000  0.96238000  1
  C  C117  1  0.58617000  0.35080000  0.96238000  1
  C  C118  1  0.60790000  0.25000000  0.81950000  1
  C  C119  1  0.63350000  0.25000000  0.91880000  1
  C  C120  1  0.68136000  0.16352000  0.42996000  1
  C  C121  1  0.68136000  0.33648000  0.42996000  1
  C  C122  1  0.81864000  0.16352000  0.92996000  1
  C  C123  1  0.81864000  0.33648000  0.92996000  1
  C  C124  1  0.86650000  0.25000000  0.41880000  1
  C  C125  1  0.89210000  0.25000000  0.31950000  1
  C  C126  1  0.91383000  0.14920000  0.46238000  1
  C  C127  1  0.91383000  0.35080000  0.46238000  1
  C  C128  1  0.91520000  0.75000000  0.50740000  1
  C  C129  1  0.93718000  0.64870000  0.64973000  1
  C  C130  1  0.93718000  0.85130000  0.64973000  1
  C  C131  1  0.94909000  0.66323000  0.84175000  1
  C  C132  1  0.94909000  0.83677000  0.84175000  1
  C  C133  1  0.96396000  0.64970000  0.55015000  1
  C  C134  1  0.96396000  0.85030000  0.55015000  1
  C  C135  1  0.98550000  0.75000000  0.69177000  1
  N  N136  1  0.03950000  0.25000000  0.21165000  1
  N  N137  1  0.06862000  0.19426000  0.07644000  1
  N  N138  1  0.06862000  0.30574000  0.07644000  1
  N  N139  1  0.08054000  0.69467000  0.06748000  1
  N  N140  1  0.08054000  0.80533000  0.06748000  1
  N  N141  1  0.24700000  0.75000000  0.07170000  1
  N  N142  1  0.25300000  0.75000000  0.57170000  1
  N  N143  1  0.41946000  0.69467000  0.56748000  1
  N  N144  1  0.41946000  0.80533000  0.56748000  1
  N  N145  1  0.43138000  0.19426000  0.57644000  1
  N  N146  1  0.43138000  0.30574000  0.57644000  1
  N  N147  1  0.46050000  0.25000000  0.71165000  1
  N  N148  1  0.53950000  0.75000000  0.28835000  1
  N  N149  1  0.56862000  0.69426000  0.42356000  1
  N  N150  1  0.56862000  0.80574000  0.42356000  1
  N  N151  1  0.58054000  0.19467000  0.43252000  1
  N  N152  1  0.58054000  0.30533000  0.43252000  1
  N  N153  1  0.74700000  0.25000000  0.42830000  1
  N  N154  1  0.75300000  0.25000000  0.92830000  1
  N  N155  1  0.91946000  0.19467000  0.93252000  1
  N  N156  1  0.91946000  0.30533000  0.93252000  1
  N  N157  1  0.93138000  0.69426000  0.92356000  1
  N  N158  1  0.93138000  0.80574000  0.92356000  1
  N  N159  1  0.96050000  0.75000000  0.78835000  1
  O  O160  1  0.00000000  0.00000000  0.00000000  1
  O  O161  1  0.00000000  0.50000000  0.00000000  1
  O  O162  1  0.12276000  0.25000000  0.91198000  1
  O  O163  1  0.37724000  0.25000000  0.41198000  1
  O  O164  1  0.50000000  0.00000000  0.50000000  1
  O  O165  1  0.50000000  0.50000000  0.50000000  1
  O  O166  1  0.62276000  0.75000000  0.58802000  1
  O  O167  1  0.87724000  0.75000000  0.08802000  1
