# generated using pymatgen
data_Co2H28C37N9O11
_symmetry_space_group_name_H-M   'P 1'
_cell_length_a   14.78830000
_cell_length_b   19.33860000
_cell_length_c   19.44010000
_cell_angle_alpha   90.00000000
_cell_angle_beta   90.00000000
_cell_angle_gamma   99.72200000
_symmetry_Int_Tables_number   1
_chemical_formula_structural   Co2H28C37N9O11
_chemical_formula_sum   'Co8 H112 C148 N36 O44'
_cell_volume   5479.73460392
_cell_formula_units_Z   4
loop_
 _symmetry_equiv_pos_site_id
 _symmetry_equiv_pos_as_xyz
  1  'x, y, z'
loop_
 _atom_site_type_symbol
 _atom_site_label
 _atom_site_symmetry_multiplicity
 _atom_site_fract_x
 _atom_site_fract_y
 _atom_site_fract_z
 _atom_site_occupancy
  Co  Co0  1  0.94135000  0.88753000  0.95576000  1
  Co  Co1  1  0.94135000  0.38753000  0.54424000  1
  Co  Co2  1  0.83440000  0.65660000  0.46511000  1
  Co  Co3  1  0.83440000  0.15660000  0.03489000  1
  Co  Co4  1  0.16560000  0.84340000  0.96511000  1
  Co  Co5  1  0.16560000  0.34340000  0.53489000  1
  Co  Co6  1  0.05865000  0.61247000  0.45576000  1
  Co  Co7  1  0.05865000  0.11247000  0.04424000  1
  H  H8  1  0.95580000  0.54620000  0.32900000  1
  H  H9  1  0.95580000  0.04620000  0.17100000  1
  H  H10  1  0.95100000  0.45830000  0.25120000  1
  H  H11  1  0.95100000  0.95830000  0.24880000  1
  H  H12  1  0.93260000  0.60900000  0.75110000  1
  H  H13  1  0.93260000  0.10900000  0.74890000  1
  H  H14  1  0.89240000  0.78970000  0.76380000  1
  H  H15  1  0.89240000  0.28970000  0.73620000  1
  H  H16  1  0.87630000  0.25280000  0.84860000  1
  H  H17  1  0.87630000  0.75280000  0.65140000  1
  H  H18  1  0.84620000  0.31210000  0.39280000  1
  H  H19  1  0.84620000  0.81210000  0.10720000  1
  H  H20  1  0.81470000  0.28910000  0.95340000  1
  H  H21  1  0.81470000  0.78910000  0.54660000  1
  H  H22  1  0.81370000  0.99190000  0.90450000  1
  H  H23  1  0.81370000  0.49190000  0.59550000  1
  H  H24  1  0.81280000  0.75580000  0.31380000  1
  H  H25  1  0.81280000  0.25580000  0.18620000  1
  H  H26  1  0.80400000  0.50100000  0.46300000  1
  H  H27  1  0.80400000  0.00100000  0.03700000  1
  H  H28  1  0.79640000  0.29810000  0.32630000  1
  H  H29  1  0.79640000  0.79810000  0.17370000  1
  H  H30  1  0.78950000  0.82280000  0.85570000  1
  H  H31  1  0.78950000  0.32280000  0.64430000  1
  H  H32  1  0.78710000  0.28100000  0.25480000  1
  H  H33  1  0.78710000  0.78100000  0.24520000  1
  H  H34  1  0.76890000  0.37120000  0.45170000  1
  H  H35  1  0.76890000  0.87120000  0.04830000  1
  H  H36  1  0.75840000  0.09550000  0.86700000  1
  H  H37  1  0.75840000  0.59550000  0.63300000  1
  H  H38  1  0.74420000  0.38390000  0.95720000  1
  H  H39  1  0.74420000  0.88390000  0.54280000  1
  H  H40  1  0.69140000  0.71570000  0.38020000  1
  H  H41  1  0.69140000  0.21570000  0.11980000  1
  H  H42  1  0.65120000  0.14780000  0.88500000  1
  H  H43  1  0.65120000  0.64780000  0.61500000  1
  H  H44  1  0.64680000  0.89810000  0.45210000  1
  H  H45  1  0.64680000  0.39810000  0.04790000  1
  H  H46  1  0.63320000  0.35770000  0.39680000  1
  H  H47  1  0.63320000  0.85770000  0.10320000  1
  H  H48  1  0.63250000  0.78840000  0.84850000  1
  H  H49  1  0.63250000  0.28840000  0.65150000  1
  H  H50  1  0.62570000  0.62810000  0.81970000  1
  H  H51  1  0.62570000  0.12810000  0.68030000  1
  H  H52  1  0.60890000  0.78170000  0.31590000  1
  H  H53  1  0.60890000  0.28170000  0.18410000  1
  H  H54  1  0.60700000  0.00610000  0.91460000  1
  H  H55  1  0.60700000  0.50610000  0.58540000  1
  H  H56  1  0.59530000  0.58290000  0.36150000  1
  H  H57  1  0.59530000  0.08290000  0.13850000  1
  H  H58  1  0.58170000  0.32180000  0.28940000  1
  H  H59  1  0.58170000  0.82180000  0.21060000  1
  H  H60  1  0.54210000  0.79680000  0.94420000  1
  H  H61  1  0.54210000  0.29680000  0.55580000  1
  H  H62  1  0.50010000  0.55380000  0.33940000  1
  H  H63  1  0.50010000  0.05380000  0.16060000  1
  H  H64  1  0.49990000  0.94620000  0.83940000  1
  H  H65  1  0.49990000  0.44620000  0.66060000  1
  H  H66  1  0.45790000  0.70320000  0.44420000  1
  H  H67  1  0.45790000  0.20320000  0.05580000  1
  H  H68  1  0.41830000  0.17820000  0.78940000  1
  H  H69  1  0.41830000  0.67820000  0.71060000  1
  H  H70  1  0.40470000  0.91710000  0.86150000  1
  H  H71  1  0.40470000  0.41710000  0.63850000  1
  H  H72  1  0.39300000  0.49390000  0.41460000  1
  H  H73  1  0.39300000  0.99390000  0.08540000  1
  H  H74  1  0.39110000  0.71830000  0.81590000  1
  H  H75  1  0.39110000  0.21830000  0.68410000  1
  H  H76  1  0.37430000  0.87190000  0.31970000  1
  H  H77  1  0.37430000  0.37190000  0.18030000  1
  H  H78  1  0.36750000  0.71160000  0.34850000  1
  H  H79  1  0.36750000  0.21160000  0.15150000  1
  H  H80  1  0.36680000  0.14230000  0.89680000  1
  H  H81  1  0.36680000  0.64230000  0.60320000  1
  H  H82  1  0.35320000  0.60190000  0.95210000  1
  H  H83  1  0.35320000  0.10190000  0.54790000  1
  H  H84  1  0.34880000  0.35220000  0.38500000  1
  H  H85  1  0.34880000  0.85220000  0.11500000  1
  H  H86  1  0.30860000  0.78430000  0.88020000  1
  H  H87  1  0.30860000  0.28430000  0.61980000  1
  H  H88  1  0.25580000  0.11610000  0.45720000  1
  H  H89  1  0.25580000  0.61610000  0.04280000  1
  H  H90  1  0.24160000  0.40450000  0.36700000  1
  H  H91  1  0.24160000  0.90450000  0.13300000  1
  H  H92  1  0.23110000  0.12880000  0.95170000  1
  H  H93  1  0.23110000  0.62880000  0.54830000  1
  H  H94  1  0.21290000  0.21900000  0.75480000  1
  H  H95  1  0.21290000  0.71900000  0.74520000  1
  H  H96  1  0.21050000  0.67720000  0.35570000  1
  H  H97  1  0.21050000  0.17720000  0.14430000  1
  H  H98  1  0.20360000  0.20190000  0.82630000  1
  H  H99  1  0.20360000  0.70190000  0.67370000  1
  H  H100  1  0.19600000  0.99900000  0.96300000  1
  H  H101  1  0.19600000  0.49900000  0.53700000  1
  H  H102  1  0.18720000  0.74420000  0.81380000  1
  H  H103  1  0.18720000  0.24420000  0.68620000  1
  H  H104  1  0.18630000  0.50810000  0.40450000  1
  H  H105  1  0.18630000  0.00810000  0.09550000  1
  H  H106  1  0.18530000  0.21090000  0.45340000  1
  H  H107  1  0.18530000  0.71090000  0.04660000  1
  H  H108  1  0.15380000  0.18790000  0.89280000  1
  H  H109  1  0.15380000  0.68790000  0.60720000  1
  H  H110  1  0.12370000  0.24720000  0.34860000  1
  H  H111  1  0.12370000  0.74720000  0.15140000  1
  H  H112  1  0.10760000  0.71030000  0.26380000  1
  H  H113  1  0.10760000  0.21030000  0.23620000  1
  H  H114  1  0.06740000  0.89100000  0.25110000  1
  H  H115  1  0.06740000  0.39100000  0.24890000  1
  H  H116  1  0.04900000  0.04170000  0.75120000  1
  H  H117  1  0.04900000  0.54170000  0.74880000  1
  H  H118  1  0.04420000  0.95380000  0.82900000  1
  H  H119  1  0.04420000  0.45380000  0.67100000  1
  C  C120  1  1.00000000  0.03240000  0.78170000  1
  C  C121  1  0.00000000  0.53240000  0.71830000  1
  C  C122  1  0.00000000  0.46760000  0.28170000  1
  C  C123  1  0.00000000  0.96760000  0.21830000  1
  C  C124  1  0.99820000  0.27450000  0.35860000  1
  C  C125  1  0.99820000  0.77450000  0.14140000  1
  C  C126  1  0.99650000  0.97950000  0.82880000  1
  C  C127  1  0.99650000  0.47950000  0.67120000  1
  C  C128  1  0.98690000  0.19850000  0.93090000  1
  C  C129  1  0.98690000  0.69850000  0.56910000  1
  C  C130  1  0.97890000  0.72660000  0.27710000  1
  C  C131  1  0.97890000  0.22660000  0.22290000  1
  C  C132  1  0.96970000  0.69910000  0.34910000  1
  C  C133  1  0.96970000  0.19910000  0.15090000  1
  C  C134  1  0.94100000  0.27380000  0.75810000  1
  C  C135  1  0.94100000  0.77380000  0.74190000  1
  C  C136  1  0.93080000  0.25110000  0.82530000  1
  C  C137  1  0.93080000  0.75110000  0.67470000  1
  C  C138  1  0.93050000  0.07180000  0.77950000  1
  C  C139  1  0.93050000  0.57180000  0.72050000  1
  C  C140  1  0.91780000  0.27640000  0.32360000  1
  C  C141  1  0.91780000  0.77640000  0.17640000  1
  C  C142  1  0.90670000  0.25270000  0.25510000  1
  C  C143  1  0.90670000  0.75270000  0.24490000  1
  C  C144  1  0.87950000  0.51120000  0.46740000  1
  C  C145  1  0.87950000  0.01120000  0.03260000  1
  C  C146  1  0.86090000  0.00110000  0.87250000  1
  C  C147  1  0.86090000  0.50110000  0.62750000  1
  C  C148  1  0.85780000  0.05430000  0.82450000  1
  C  C149  1  0.85780000  0.55430000  0.67550000  1
  C  C150  1  0.77410000  0.29300000  0.98910000  1
  C  C151  1  0.77410000  0.79300000  0.51090000  1
  C  C152  1  0.75370000  0.82610000  0.89450000  1
  C  C153  1  0.75370000  0.32610000  0.60550000  1
  C  C154  1  0.74240000  0.11420000  0.77170000  1
  C  C155  1  0.74240000  0.61420000  0.72830000  1
  C  C156  1  0.74130000  0.35410000  0.49260000  1
  C  C157  1  0.74130000  0.85410000  0.00740000  1
  C  C158  1  0.73290000  0.35000000  0.99150000  1
  C  C159  1  0.73290000  0.85000000  0.50850000  1
  C  C160  1  0.70160000  0.75040000  0.41370000  1
  C  C161  1  0.70160000  0.25040000  0.08630000  1
  C  C162  1  0.68120000  0.57580000  0.47940000  1
  C  C163  1  0.68120000  0.07580000  0.02060000  1
  C  C164  1  0.67390000  0.85820000  0.45530000  1
  C  C165  1  0.67390000  0.35820000  0.04470000  1
  C  C166  1  0.65920000  0.80520000  0.88980000  1
  C  C167  1  0.65920000  0.30520000  0.61020000  1
  C  C168  1  0.65670000  0.80670000  0.40810000  1
  C  C169  1  0.65670000  0.30670000  0.09190000  1
  C  C170  1  0.65160000  0.13580000  0.78120000  1
  C  C171  1  0.65160000  0.63580000  0.71880000  1
  C  C172  1  0.64650000  0.33350000  0.49280000  1
  C  C173  1  0.64650000  0.83350000  0.00720000  1
  C  C174  1  0.61650000  0.14880000  0.84520000  1
  C  C175  1  0.61650000  0.64880000  0.65480000  1
  C  C176  1  0.60550000  0.80980000  0.94680000  1
  C  C177  1  0.60550000  0.30980000  0.55320000  1
  C  C178  1  0.60080000  0.63770000  0.77750000  1
  C  C179  1  0.60080000  0.13770000  0.72250000  1
  C  C180  1  0.58880000  0.53730000  0.48870000  1
  C  C181  1  0.58880000  0.03730000  0.01130000  1
  C  C182  1  0.56300000  0.00360000  0.94910000  1
  C  C183  1  0.56300000  0.50360000  0.55090000  1
  C  C184  1  0.53680000  0.84790000  0.34220000  1
  C  C185  1  0.53680000  0.34790000  0.15780000  1
  C  C186  1  0.52600000  0.16350000  0.84780000  1
  C  C187  1  0.52600000  0.66350000  0.65220000  1
  C  C188  1  0.52310000  0.33320000  0.28730000  1
  C  C189  1  0.52310000  0.83320000  0.21270000  1
  C  C190  1  0.52270000  0.53290000  0.43540000  1
  C  C191  1  0.52270000  0.03290000  0.06460000  1
  C  C192  1  0.51270000  0.65380000  0.77530000  1
  C  C193  1  0.51270000  0.15380000  0.72470000  1
  C  C194  1  0.50660000  0.32240000  0.41810000  1
  C  C195  1  0.50660000  0.82240000  0.08190000  1
  C  C196  1  0.49340000  0.17760000  0.91810000  1
  C  C197  1  0.49340000  0.67760000  0.58190000  1
  C  C198  1  0.48730000  0.84620000  0.27530000  1
  C  C199  1  0.48730000  0.34620000  0.22470000  1
  C  C200  1  0.47730000  0.96710000  0.93540000  1
  C  C201  1  0.47730000  0.46710000  0.56460000  1
  C  C202  1  0.47690000  0.16680000  0.78730000  1
  C  C203  1  0.47690000  0.66680000  0.71270000  1
  C  C204  1  0.47400000  0.33650000  0.34780000  1
  C  C205  1  0.47400000  0.83650000  0.15220000  1
  C  C206  1  0.46320000  0.65210000  0.84220000  1
  C  C207  1  0.46320000  0.15210000  0.65780000  1
  C  C208  1  0.43700000  0.49640000  0.44910000  1
  C  C209  1  0.43700000  0.99640000  0.05090000  1
  C  C210  1  0.41120000  0.96270000  0.98870000  1
  C  C211  1  0.41120000  0.46270000  0.51130000  1
  C  C212  1  0.39920000  0.86230000  0.27750000  1
  C  C213  1  0.39920000  0.36230000  0.22250000  1
  C  C214  1  0.39450000  0.69020000  0.44680000  1
  C  C215  1  0.39450000  0.19020000  0.05320000  1
  C  C216  1  0.38350000  0.35120000  0.34520000  1
  C  C217  1  0.38350000  0.85120000  0.15480000  1
  C  C218  1  0.35350000  0.16650000  0.99280000  1
  C  C219  1  0.35350000  0.66650000  0.50720000  1
  C  C220  1  0.34840000  0.36420000  0.28120000  1
  C  C221  1  0.34840000  0.86420000  0.21880000  1
  C  C222  1  0.34330000  0.69330000  0.90810000  1
  C  C223  1  0.34330000  0.19330000  0.59190000  1
  C  C224  1  0.34080000  0.69480000  0.38980000  1
  C  C225  1  0.34080000  0.19480000  0.11020000  1
  C  C226  1  0.32610000  0.64180000  0.95530000  1
  C  C227  1  0.32610000  0.14180000  0.54470000  1
  C  C228  1  0.31880000  0.92420000  0.97940000  1
  C  C229  1  0.31880000  0.42420000  0.52060000  1
  C  C230  1  0.29840000  0.74960000  0.91370000  1
  C  C231  1  0.29840000  0.24960000  0.58630000  1
  C  C232  1  0.26710000  0.15000000  0.49150000  1
  C  C233  1  0.26710000  0.65000000  0.00850000  1
  C  C234  1  0.25870000  0.14590000  0.99260000  1
  C  C235  1  0.25870000  0.64590000  0.50740000  1
  C  C236  1  0.25760000  0.38580000  0.27170000  1
  C  C237  1  0.25760000  0.88580000  0.22830000  1
  C  C238  1  0.24630000  0.67390000  0.39450000  1
  C  C239  1  0.24630000  0.17390000  0.10550000  1
  C  C240  1  0.22590000  0.20700000  0.48910000  1
  C  C241  1  0.22590000  0.70700000  0.01090000  1
  C  C242  1  0.14220000  0.44570000  0.32450000  1
  C  C243  1  0.14220000  0.94570000  0.17550000  1
  C  C244  1  0.13910000  0.49890000  0.37250000  1
  C  C245  1  0.13910000  0.99890000  0.12750000  1
  C  C246  1  0.12050000  0.98880000  0.96740000  1
  C  C247  1  0.12050000  0.48880000  0.53260000  1
  C  C248  1  0.09330000  0.24730000  0.75510000  1
  C  C249  1  0.09330000  0.74730000  0.74490000  1
  C  C250  1  0.08220000  0.22360000  0.82360000  1
  C  C251  1  0.08220000  0.72360000  0.67640000  1
  C  C252  1  0.06950000  0.42820000  0.27950000  1
  C  C253  1  0.06950000  0.92820000  0.22050000  1
  C  C254  1  0.06920000  0.24890000  0.32530000  1
  C  C255  1  0.06920000  0.74890000  0.17470000  1
  C  C256  1  0.05900000  0.22620000  0.25810000  1
  C  C257  1  0.05900000  0.72620000  0.24190000  1
  C  C258  1  0.03030000  0.80090000  0.84910000  1
  C  C259  1  0.03030000  0.30090000  0.65090000  1
  C  C260  1  0.02110000  0.77340000  0.77710000  1
  C  C261  1  0.02110000  0.27340000  0.72290000  1
  C  C262  1  0.01310000  0.30150000  0.43090000  1
  C  C263  1  0.01310000  0.80150000  0.06910000  1
  C  C264  1  0.00350000  0.52050000  0.32880000  1
  C  C265  1  0.00350000  0.02050000  0.17120000  1
  C  C266  1  0.00180000  0.22550000  0.85860000  1
  C  C267  1  0.00180000  0.72550000  0.64140000  1
  N  N268  1  0.92820000  0.96240000  0.87510000  1
  N  N269  1  0.92820000  0.46240000  0.62490000  1
  N  N270  1  0.84480000  0.29810000  0.35070000  1
  N  N271  1  0.84480000  0.79810000  0.14930000  1
  N  N272  1  0.82560000  0.76460000  0.27120000  1
  N  N273  1  0.82560000  0.26460000  0.22880000  1
  N  N274  1  0.79500000  0.85090000  0.95310000  1
  N  N275  1  0.79500000  0.35090000  0.54690000  1
  N  N276  1  0.78150000  0.08940000  0.82730000  1
  N  N277  1  0.78150000  0.58940000  0.67270000  1
  N  N278  1  0.75930000  0.74300000  0.46510000  1
  N  N279  1  0.75930000  0.24300000  0.03490000  1
  N  N280  1  0.60070000  0.80860000  0.34960000  1
  N  N281  1  0.60070000  0.30860000  0.15040000  1
  N  N282  1  0.59980000  0.34030000  0.43090000  1
  N  N283  1  0.59980000  0.84030000  0.06910000  1
  N  N284  1  0.54170000  0.55990000  0.37080000  1
  N  N285  1  0.54170000  0.05990000  0.12920000  1
  N  N286  1  0.45830000  0.94010000  0.87080000  1
  N  N287  1  0.45830000  0.44010000  0.62920000  1
  N  N288  1  0.40020000  0.15970000  0.93090000  1
  N  N289  1  0.40020000  0.65970000  0.56910000  1
  N  N290  1  0.39930000  0.69140000  0.84960000  1
  N  N291  1  0.39930000  0.19140000  0.65040000  1
  N  N292  1  0.24070000  0.75700000  0.96510000  1
  N  N293  1  0.24070000  0.25700000  0.53490000  1
  N  N294  1  0.21850000  0.41060000  0.32730000  1
  N  N295  1  0.21850000  0.91060000  0.17270000  1
  N  N296  1  0.20500000  0.64910000  0.45310000  1
  N  N297  1  0.20500000  0.14910000  0.04690000  1
  N  N298  1  0.17440000  0.73540000  0.77120000  1
  N  N299  1  0.17440000  0.23540000  0.72880000  1
  N  N300  1  0.15520000  0.20190000  0.85070000  1
  N  N301  1  0.15520000  0.70190000  0.64930000  1
  N  N302  1  0.07180000  0.53760000  0.37510000  1
  N  N303  1  0.07180000  0.03760000  0.12490000  1
  O  O304  1  0.96150000  0.81982000  0.87816000  1
  O  O305  1  0.96150000  0.31982000  0.62184000  1
  O  O306  1  0.94800000  0.32108000  0.46199000  1
  O  O307  1  0.94800000  0.82108000  0.03801000  1
  O  O308  1  0.91940000  0.45953000  0.46819000  1
  O  O309  1  0.91940000  0.95953000  0.03181000  1
  O  O310  1  0.91460000  0.57400000  0.45986000  1
  O  O311  1  0.91460000  0.07400000  0.04014000  1
  O  O312  1  0.90860000  0.20060000  0.95649000  1
  O  O313  1  0.90860000  0.70060000  0.54351000  1
  O  O314  1  0.89020000  0.69470000  0.37592000  1
  O  O315  1  0.89020000  0.19470000  0.12408000  1
  O  O316  1  0.77680000  0.61230000  0.78620000  1
  O  O317  1  0.77680000  0.11230000  0.71380000  1
  O  O318  1  0.73430000  0.09209000  0.96852000  1
  O  O319  1  0.73430000  0.59209000  0.53148000  1
  O  O320  1  0.71200000  0.59534000  0.41978000  1
  O  O321  1  0.71200000  0.09534000  0.08022000  1
  O  O322  1  0.54660000  0.20280000  0.96330000  1
  O  O323  1  0.54660000  0.70280000  0.53670000  1
  O  O324  1  0.51780000  0.88580000  0.38930000  1
  O  O325  1  0.51780000  0.38580000  0.11070000  1
  O  O326  1  0.48220000  0.61420000  0.88930000  1
  O  O327  1  0.48220000  0.11420000  0.61070000  1
  O  O328  1  0.45340000  0.29720000  0.46330000  1
  O  O329  1  0.45340000  0.79720000  0.03670000  1
  O  O330  1  0.28800000  0.90466000  0.91978000  1
  O  O331  1  0.28800000  0.40466000  0.58022000  1
  O  O332  1  0.26570000  0.40791000  0.46852000  1
  O  O333  1  0.26570000  0.90791000  0.03148000  1
  O  O334  1  0.22320000  0.88770000  0.28620000  1
  O  O335  1  0.22320000  0.38770000  0.21380000  1
  O  O336  1  0.10980000  0.80530000  0.87592000  1
  O  O337  1  0.10980000  0.30530000  0.62408000  1
  O  O338  1  0.09140000  0.29940000  0.45649000  1
  O  O339  1  0.09140000  0.79940000  0.04351000  1
  O  O340  1  0.08540000  0.92600000  0.95986000  1
  O  O341  1  0.08540000  0.42600000  0.54014000  1
  O  O342  1  0.08060000  0.04047000  0.96819000  1
  O  O343  1  0.08060000  0.54047000  0.53181000  1
  O  O344  1  0.05200000  0.17892000  0.96199000  1
  O  O345  1  0.05200000  0.67892000  0.53801000  1
  O  O346  1  0.03850000  0.68018000  0.37816000  1
  O  O347  1  0.03850000  0.18018000  0.12184000  1
