# generated using pymatgen
data_Co6H15C28(NO5)4
_symmetry_space_group_name_H-M   'P 1'
_cell_length_a   10.81230000
_cell_length_b   11.13570000
_cell_length_c   11.13570000
_cell_angle_alpha   76.29200000
_cell_angle_beta   77.84300000
_cell_angle_gamma   77.84310000
_symmetry_Int_Tables_number   1
_chemical_formula_structural   Co6H15C28(NO5)4
_chemical_formula_sum   'Co6 H15 C28 N4 O20'
_cell_volume   1255.00724026
_cell_formula_units_Z   1
loop_
 _symmetry_equiv_pos_site_id
 _symmetry_equiv_pos_as_xyz
  1  'x, y, z'
loop_
 _atom_site_type_symbol
 _atom_site_label
 _atom_site_symmetry_multiplicity
 _atom_site_fract_x
 _atom_site_fract_y
 _atom_site_fract_z
 _atom_site_occupancy
  Co  Co0  1  0.93447000  0.07386000  0.10077000  1
  Co  Co1  1  0.75186000  0.91583000  0.08554000  1
  Co  Co2  1  0.56852000  0.90077000  0.92732000  1
  Co  Co3  1  0.43451000  0.10003000  0.07478000  1
  Co  Co4  1  0.25137000  0.08487000  0.91664000  1
  Co  Co5  1  0.06813000  0.92669000  0.90183000  1
  H  H6  1  0.96939000  0.69239000  0.85623000  1
  H  H7  1  0.94300000  0.53147000  0.12937000  1
  H  H8  1  0.89740000  0.97868000  0.53705000  1
  H  H9  1  0.60568000  0.46442000  0.02256000  1
  H  H10  1  0.56003000  0.87213000  0.46977000  1
  H  H11  1  0.53346000  0.14515000  0.30927000  1
  H  H12  1  0.51422000  0.86325000  0.15793000  1
  H  H13  1  0.48888000  0.13765000  0.84408000  1
  H  H14  1  0.46941000  0.85561000  0.69301000  1
  H  H15  1  0.44274000  0.12864000  0.53251000  1
  H  H16  1  0.39733000  0.53631000  0.97938000  1
  H  H17  1  0.10539000  0.02222000  0.46511000  1
  H  H18  1  0.05998000  0.46917000  0.87271000  1
  H  H19  1  0.03354000  0.30824000  0.14585000  1
  H  H20  1  0.01371000  0.15718000  0.86407000  1
  C  C21  1  0.93963000  0.34106000  0.11972000  1
  C  C22  1  0.88676000  0.47103000  0.10945000  1
  C  C23  1  0.81459000  0.94225000  0.81284000  1
  C  C24  1  0.80416000  0.95110000  0.56880000  1
  C  C25  1  0.77713000  0.95674000  0.32730000  1
  C  C26  1  0.76846000  0.52488000  0.06760000  1
  C  C27  1  0.75199000  0.29788000  0.06926000  1
  C  C28  1  0.75108000  0.93195000  0.70353000  1
  C  C29  1  0.73460000  0.93375000  0.47652000  1
  C  C30  1  0.72598000  0.67413000  0.04467000  1
  C  C31  1  0.69893000  0.43263000  0.05015000  1
  C  C32  1  0.68840000  0.18864000  0.05905000  1
  C  C33  1  0.61627000  0.89195000  0.53028000  1
  C  C34  1  0.56338000  0.88163000  0.66023000  1
  C  C35  1  0.43949000  0.11913000  0.34202000  1
  C  C36  1  0.38653000  0.10883000  0.47199000  1
  C  C37  1  0.31469000  0.81202000  0.94290000  1
  C  C38  1  0.30409000  0.56809000  0.95178000  1
  C  C39  1  0.27697000  0.32661000  0.95749000  1
  C  C40  1  0.26814000  0.06708000  0.52573000  1
  C  C41  1  0.25181000  0.06884000  0.29870000  1
  C  C42  1  0.25105000  0.70283000  0.93262000  1
  C  C43  1  0.23451000  0.47583000  0.93445000  1
  C  C44  1  0.22549000  0.04418000  0.67495000  1
  C  C45  1  0.19866000  0.04975000  0.43341000  1
  C  C46  1  0.18821000  0.05853000  0.18950000  1
  C  C47  1  0.11622000  0.52964000  0.89256000  1
  C  C48  1  0.06335000  0.65962000  0.88225000  1
  N  N49  1  0.87515000  0.25787000  0.09658000  1
  N  N50  1  0.62789000  0.90465000  0.74345000  1
  N  N51  1  0.37504000  0.09611000  0.25875000  1
  N  N52  1  0.12784000  0.74282000  0.90534000  1
  O  O53  1  0.95135000  0.90473000  0.07296000  1
  O  O54  1  0.93128000  0.93640000  0.81069000  1
  O  O55  1  0.84442000  0.04190000  0.26764000  1
  O  O56  1  0.77698000  0.08174000  0.04623000  1
  O  O57  1  0.76369000  0.73967000  0.10767000  1
  O  O58  1  0.73947000  0.89380000  0.26170000  1
  O  O59  1  0.72623000  0.95514000  0.91956000  1
  O  O60  1  0.65862000  0.73386000  0.95955000  1
  O  O61  1  0.57156000  0.19112000  0.06487000  1
  O  O62  1  0.55273000  0.93034000  0.09520000  1
  O  O63  1  0.45039000  0.07053000  0.90679000  1
  O  O64  1  0.43152000  0.80957000  0.93718000  1
  O  O65  1  0.34441000  0.26694000  0.04257000  1
  O  O66  1  0.27674000  0.04563000  0.08266000  1
  O  O67  1  0.26354000  0.10689000  0.74050000  1
  O  O68  1  0.23917000  0.26103000  0.89461000  1
  O  O69  1  0.22618000  0.91887000  0.95572000  1
  O  O70  1  0.15763000  0.95941000  0.73464000  1
  O  O71  1  0.07138000  0.06425000  0.19197000  1
  O  O72  1  0.05231000  0.09452000  0.93116000  1
