# generated using pymatgen
data_Cu2H6C4IN3
_symmetry_space_group_name_H-M   'P 1'
_cell_length_a   15.41905861
_cell_length_b   15.41910000
_cell_length_c   15.41910000
_cell_angle_alpha   106.00650000
_cell_angle_beta   111.23079474
_cell_angle_gamma   111.23089474
_symmetry_Int_Tables_number   1
_chemical_formula_structural   Cu2H6C4IN3
_chemical_formula_sum   'Cu16 H48 C32 I8 N24'
_cell_volume   2814.30295337
_cell_formula_units_Z   8
loop_
 _symmetry_equiv_pos_site_id
 _symmetry_equiv_pos_as_xyz
  1  'x, y, z'
loop_
 _atom_site_type_symbol
 _atom_site_label
 _atom_site_symmetry_multiplicity
 _atom_site_fract_x
 _atom_site_fract_y
 _atom_site_fract_z
 _atom_site_occupancy
  Cu  Cu0  1  0.82350000  0.09752000  0.02908000  1
  Cu  Cu1  1  0.06844000  0.97092000  0.29442000  1
  Cu  Cu2  1  0.83891000  0.89146000  0.08451000  1
  Cu  Cu3  1  0.66109000  0.74560000  0.05255000  1
  Cu  Cu4  1  0.32350000  0.29442000  0.72598000  1
  Cu  Cu5  1  0.69305000  0.94745000  0.10854000  1
  Cu  Cu6  1  0.80695000  0.91549000  0.25440000  1
  Cu  Cu7  1  0.43156000  0.72598000  0.90248000  1
  Cu  Cu8  1  0.56844000  0.27402000  0.09752000  1
  Cu  Cu9  1  0.19305000  0.08451000  0.74560000  1
  Cu  Cu10  1  0.30695000  0.05255000  0.89146000  1
  Cu  Cu11  1  0.67650000  0.70558000  0.27402000  1
  Cu  Cu12  1  0.33891000  0.25440000  0.94745000  1
  Cu  Cu13  1  0.16109000  0.10854000  0.91549000  1
  Cu  Cu14  1  0.93156000  0.02908000  0.70558000  1
  Cu  Cu15  1  0.17650000  0.90248000  0.97092000  1
  H  H16  1  0.25570000  0.98820000  0.28410000  1
  H  H17  1  0.83410000  0.79670000  0.86820000  1
  H  H18  1  0.08780000  0.10230000  0.13350000  1
  H  H19  1  0.73540000  0.07860000  0.80880000  1
  H  H20  1  0.70290000  0.95910000  0.77980000  1
  H  H21  1  0.07740000  0.20460000  0.16220000  1
  H  H22  1  0.26980000  0.19120000  0.42660000  1
  H  H23  1  0.79590000  0.26750000  0.01180000  1
  H  H24  1  0.29590000  0.28410000  0.52840000  1
  H  H25  1  0.17930000  0.22020000  0.42310000  1
  H  H26  1  0.67930000  0.25620000  0.95910000  1
  H  H27  1  0.57740000  0.41520000  0.87280000  1
  H  H28  1  0.66590000  0.53410000  0.96260000  1
  H  H29  1  0.76980000  0.34320000  0.07860000  1
  H  H30  1  0.45760000  0.87280000  0.79540000  1
  H  H31  1  0.53120000  0.98550000  0.89770000  1
  H  H32  1  0.42850000  0.96260000  0.79670000  1
  H  H33  1  0.04240000  0.83780000  0.41520000  1
  H  H34  1  0.58780000  0.45430000  0.98550000  1
  H  H35  1  0.23540000  0.42660000  0.65680000  1
  H  H36  1  0.79710000  0.57690000  0.25620000  1
  H  H37  1  0.07150000  0.86820000  0.53410000  1
  H  H38  1  0.96880000  0.86650000  0.45430000  1
  H  H39  1  0.24430000  0.52840000  0.73250000  1
  H  H40  1  0.75570000  0.47160000  0.26750000  1
  H  H41  1  0.03120000  0.13350000  0.54570000  1
  H  H42  1  0.92850000  0.13180000  0.46590000  1
  H  H43  1  0.20290000  0.42310000  0.74380000  1
  H  H44  1  0.76460000  0.57340000  0.34320000  1
  H  H45  1  0.41220000  0.54570000  0.01450000  1
  H  H46  1  0.95760000  0.16220000  0.58480000  1
  H  H47  1  0.57150000  0.03740000  0.20330000  1
  H  H48  1  0.46880000  0.01450000  0.10230000  1
  H  H49  1  0.54240000  0.12720000  0.20460000  1
  H  H50  1  0.23020000  0.65680000  0.92140000  1
  H  H51  1  0.33410000  0.46590000  0.03740000  1
  H  H52  1  0.42260000  0.58480000  0.12720000  1
  H  H53  1  0.32070000  0.74380000  0.04090000  1
  H  H54  1  0.82070000  0.77980000  0.57690000  1
  H  H55  1  0.70410000  0.71590000  0.47160000  1
  H  H56  1  0.20410000  0.73250000  0.98820000  1
  H  H57  1  0.73020000  0.80880000  0.57340000  1
  H  H58  1  0.92260000  0.79540000  0.83780000  1
  H  H59  1  0.29710000  0.04090000  0.22020000  1
  H  H60  1  0.26460000  0.92140000  0.19120000  1
  H  H61  1  0.91220000  0.89770000  0.86650000  1
  H  H62  1  0.16590000  0.20330000  0.13180000  1
  H  H63  1  0.74430000  0.01180000  0.71590000  1
  C  C64  1  0.13230000  0.93870000  0.13700000  1
  C  C65  1  0.98820000  0.88200000  0.99520000  1
  C  C66  1  0.09270000  0.16070000  0.11780000  1
  C  C67  1  0.75260000  0.02450000  0.78510000  1
  C  C68  1  0.23940000  0.21490000  0.46750000  1
  C  C69  1  0.73940000  0.27190000  0.02450000  1
  C  C70  1  0.19830000  0.13700000  0.50470000  1
  C  C71  1  0.59270000  0.47490000  0.93200000  1
  C  C72  1  0.69830000  0.19360000  0.06130000  1
  C  C73  1  0.51180000  0.50700000  0.89380000  1
  C  C74  1  0.45710000  0.93200000  0.83930000  1
  C  C75  1  0.11320000  0.99520000  0.50700000  1
  C  C76  1  0.04290000  0.88220000  0.47490000  1
  C  C77  1  0.36770000  0.50470000  0.80640000  1
  C  C78  1  0.25260000  0.46750000  0.72810000  1
  C  C79  1  0.38680000  0.89380000  0.88200000  1
  C  C80  1  0.61320000  0.10620000  0.11800000  1
  C  C81  1  0.74740000  0.53250000  0.27190000  1
  C  C82  1  0.63230000  0.49530000  0.19360000  1
  C  C83  1  0.95710000  0.11780000  0.52510000  1
  C  C84  1  0.88680000  0.00480000  0.49300000  1
  C  C85  1  0.54290000  0.06800000  0.16070000  1
  C  C86  1  0.48820000  0.49300000  0.10620000  1
  C  C87  1  0.30170000  0.80640000  0.93870000  1
  C  C88  1  0.40730000  0.52510000  0.06800000  1
  C  C89  1  0.80170000  0.86300000  0.49530000  1
  C  C90  1  0.26060000  0.72810000  0.97550000  1
  C  C91  1  0.76060000  0.78510000  0.53250000  1
  C  C92  1  0.24740000  0.97550000  0.21490000  1
  C  C93  1  0.90730000  0.83930000  0.88220000  1
  C  C94  1  0.01180000  0.11800000  0.00480000  1
  C  C95  1  0.86770000  0.06130000  0.86300000  1
  I  I96  1  0.66520000  0.84046000  0.91956000  1
  I  I97  1  0.92090000  0.08044000  0.24564000  1
  I  I98  1  0.83480000  0.75436000  0.17526000  1
  I  I99  1  0.42090000  0.17526000  0.84046000  1
  I  I100  1  0.57910000  0.82474000  0.15954000  1
  I  I101  1  0.16520000  0.24564000  0.82474000  1
  I  I102  1  0.07910000  0.91956000  0.75436000  1
  I  I103  1  0.33480000  0.15954000  0.08044000  1
  N  N104  1  0.90770000  0.09350000  0.96660000  1
  N  N105  1  0.05850000  0.93670000  0.16320000  1
  N  N106  1  0.96480000  0.89910000  0.07150000  1
  N  N107  1  0.12690000  0.03340000  0.44110000  1
  N  N108  1  0.72650000  0.12180000  0.06330000  1
  N  N109  1  0.22650000  0.16320000  0.60470000  1
  N  N110  1  0.53520000  0.60670000  0.93430000  1
  N  N111  1  0.40770000  0.44110000  0.81420000  1
  N  N112  1  0.67240000  0.06570000  0.10090000  1
  N  N113  1  0.17240000  0.07150000  0.60670000  1
  N  N114  1  0.44150000  0.60470000  0.87820000  1
  N  N115  1  0.62690000  0.18580000  0.09350000  1
  N  N116  1  0.37310000  0.81420000  0.90650000  1
  N  N117  1  0.55850000  0.39530000  0.12180000  1
  N  N118  1  0.82760000  0.92850000  0.39330000  1
  N  N119  1  0.32760000  0.93430000  0.89910000  1
  N  N120  1  0.59230000  0.55890000  0.18580000  1
  N  N121  1  0.46480000  0.39330000  0.06570000  1
  N  N122  1  0.77350000  0.83680000  0.39530000  1
  N  N123  1  0.27350000  0.87820000  0.93670000  1
  N  N124  1  0.87310000  0.96660000  0.55890000  1
  N  N125  1  0.03520000  0.10090000  0.92850000  1
  N  N126  1  0.94150000  0.06330000  0.83680000  1
  N  N127  1  0.09230000  0.90650000  0.03340000  1
