# generated using pymatgen
data_Tb2H2C8O17
_symmetry_space_group_name_H-M   'P 1'
_cell_length_a   9.79090000
_cell_length_b   14.59290000
_cell_length_c   17.29870000
_cell_angle_alpha   90.00000000
_cell_angle_beta   90.00000000
_cell_angle_gamma   97.13220000
_symmetry_Int_Tables_number   1
_chemical_formula_structural   Tb2H2C8O17
_chemical_formula_sum   'Tb8 H8 C32 O68'
_cell_volume   2452.47273106
_cell_formula_units_Z   4
loop_
 _symmetry_equiv_pos_site_id
 _symmetry_equiv_pos_as_xyz
  1  'x, y, z'
loop_
 _atom_site_type_symbol
 _atom_site_label
 _atom_site_symmetry_multiplicity
 _atom_site_fract_x
 _atom_site_fract_y
 _atom_site_fract_z
 _atom_site_occupancy
  Tb  Tb0  1  0.99535000  0.15841000  0.87811000  1
  Tb  Tb1  1  0.98097000  0.58781000  0.83642000  1
  Tb  Tb2  1  0.51903000  0.91219000  0.33642000  1
  Tb  Tb3  1  0.50465000  0.34159000  0.37811000  1
  Tb  Tb4  1  0.49535000  0.65841000  0.62189000  1
  Tb  Tb5  1  0.48097000  0.08781000  0.66358000  1
  Tb  Tb6  1  0.01903000  0.41219000  0.16358000  1
  Tb  Tb7  1  0.00465000  0.84159000  0.12189000  1
  H  H8  1  0.89300000  0.38500000  0.81800000  1
  H  H9  1  0.80900000  0.47100000  0.81400000  1
  H  H10  1  0.69100000  0.02900000  0.31400000  1
  H  H11  1  0.60700000  0.11500000  0.31800000  1
  H  H12  1  0.39300000  0.88500000  0.68200000  1
  H  H13  1  0.30900000  0.97100000  0.68600000  1
  H  H14  1  0.19100000  0.52900000  0.18600000  1
  H  H15  1  0.10700000  0.61500000  0.18200000  1
  C  C16  1  0.95230000  0.75460000  0.95120000  1
  C  C17  1  0.94220000  0.01810000  0.02420000  1
  C  C18  1  0.93830000  0.52420000  0.01340000  1
  C  C19  1  0.91720000  0.28340000  0.01850000  1
  C  C20  1  0.81290000  0.88360000  0.26440000  1
  C  C21  1  0.79050000  0.63330000  0.69510000  1
  C  C22  1  0.76710000  0.42800000  0.27740000  1
  C  C23  1  0.76020000  0.32250000  0.26510000  1
  C  C24  1  0.73980000  0.17750000  0.76510000  1
  C  C25  1  0.73290000  0.07200000  0.77740000  1
  C  C26  1  0.70950000  0.86670000  0.19510000  1
  C  C27  1  0.68710000  0.61640000  0.76440000  1
  C  C28  1  0.58280000  0.21660000  0.51850000  1
  C  C29  1  0.56170000  0.97580000  0.51340000  1
  C  C30  1  0.55780000  0.48190000  0.52420000  1
  C  C31  1  0.54770000  0.74540000  0.45120000  1
  C  C32  1  0.45230000  0.25460000  0.54880000  1
  C  C33  1  0.44220000  0.51810000  0.47580000  1
  C  C34  1  0.43830000  0.02420000  0.48660000  1
  C  C35  1  0.41720000  0.78340000  0.48150000  1
  C  C36  1  0.31290000  0.38360000  0.23560000  1
  C  C37  1  0.29050000  0.13330000  0.80490000  1
  C  C38  1  0.26710000  0.92800000  0.22260000  1
  C  C39  1  0.26020000  0.82250000  0.23490000  1
  C  C40  1  0.23980000  0.67750000  0.73490000  1
  C  C41  1  0.23290000  0.57200000  0.72260000  1
  C  C42  1  0.20950000  0.36670000  0.30490000  1
  C  C43  1  0.18710000  0.11640000  0.73560000  1
  C  C44  1  0.08280000  0.71660000  0.98150000  1
  C  C45  1  0.06170000  0.47580000  0.98660000  1
  C  C46  1  0.05780000  0.98190000  0.97580000  1
  C  C47  1  0.04770000  0.24540000  0.04880000  1
  O  O48  1  0.93500000  0.87220000  0.25030000  1
  O  O49  1  0.92750000  0.98880000  0.09120000  1
  O  O50  1  0.91880000  0.73690000  0.88290000  1
  O  O51  1  0.91360000  0.52350000  0.08440000  1
  O  O52  1  0.91160000  0.61780000  0.70800000  1
  O  O53  1  0.89010000  0.79960000  0.99920000  1
  O  O54  1  0.87420000  0.26010000  0.95300000  1
  O  O55  1  0.87410000  0.07390000  0.99050000  1
  O  O56  1  0.87130000  0.55870000  0.96210000  1
  O  O57  1  0.86900000  0.43570000  0.80510000  1
  O  O58  1  0.86300000  0.33640000  0.06380000  1
  O  O59  1  0.85320000  0.47830000  0.23850000  1
  O  O60  1  0.84970000  0.29700000  0.22010000  1
  O  O61  1  0.83220000  0.22710000  0.79970000  1
  O  O62  1  0.81700000  0.04670000  0.82620000  1
  O  O63  1  0.76370000  0.90740000  0.32640000  1
  O  O64  1  0.75590000  0.83960000  0.13390000  1
  O  O65  1  0.74410000  0.66040000  0.63390000  1
  O  O66  1  0.73630000  0.59260000  0.82640000  1
  O  O67  1  0.68300000  0.45330000  0.32620000  1
  O  O68  1  0.66780000  0.27290000  0.29970000  1
  O  O69  1  0.65030000  0.20300000  0.72010000  1
  O  O70  1  0.64680000  0.02170000  0.73850000  1
  O  O71  1  0.63700000  0.16360000  0.56380000  1
  O  O72  1  0.63100000  0.06430000  0.30510000  1
  O  O73  1  0.62870000  0.94130000  0.46210000  1
  O  O74  1  0.62590000  0.42610000  0.49050000  1
  O  O75  1  0.62580000  0.23990000  0.45300000  1
  O  O76  1  0.60990000  0.70040000  0.49920000  1
  O  O77  1  0.58840000  0.88220000  0.20800000  1
  O  O78  1  0.58640000  0.97650000  0.58440000  1
  O  O79  1  0.58120000  0.76310000  0.38290000  1
  O  O80  1  0.57250000  0.51120000  0.59120000  1
  O  O81  1  0.56500000  0.62780000  0.75030000  1
  O  O82  1  0.43500000  0.37220000  0.24970000  1
  O  O83  1  0.42750000  0.48880000  0.40880000  1
  O  O84  1  0.41880000  0.23690000  0.61710000  1
  O  O85  1  0.41360000  0.02350000  0.41560000  1
  O  O86  1  0.41160000  0.11780000  0.79200000  1
  O  O87  1  0.39010000  0.29960000  0.50080000  1
  O  O88  1  0.37420000  0.76010000  0.54700000  1
  O  O89  1  0.37410000  0.57390000  0.50950000  1
  O  O90  1  0.37130000  0.05870000  0.53790000  1
  O  O91  1  0.36900000  0.93570000  0.69490000  1
  O  O92  1  0.36300000  0.83640000  0.43620000  1
  O  O93  1  0.35320000  0.97830000  0.26150000  1
  O  O94  1  0.34970000  0.79700000  0.27990000  1
  O  O95  1  0.33220000  0.72710000  0.70030000  1
  O  O96  1  0.31700000  0.54670000  0.67380000  1
  O  O97  1  0.26370000  0.40740000  0.17360000  1
  O  O98  1  0.25590000  0.33960000  0.36610000  1
  O  O99  1  0.24410000  0.16040000  0.86610000  1
  O  O100  1  0.23630000  0.09260000  0.67360000  1
  O  O101  1  0.18300000  0.95330000  0.17380000  1
  O  O102  1  0.16780000  0.77290000  0.20030000  1
  O  O103  1  0.15030000  0.70300000  0.77990000  1
  O  O104  1  0.14680000  0.52170000  0.76150000  1
  O  O105  1  0.13700000  0.66360000  0.93620000  1
  O  O106  1  0.13100000  0.56430000  0.19490000  1
  O  O107  1  0.12870000  0.44130000  0.03790000  1
  O  O108  1  0.12590000  0.92610000  0.00950000  1
  O  O109  1  0.12580000  0.73990000  0.04700000  1
  O  O110  1  0.10990000  0.20040000  0.00080000  1
  O  O111  1  0.08840000  0.38220000  0.29200000  1
  O  O112  1  0.08640000  0.47650000  0.91560000  1
  O  O113  1  0.08120000  0.26310000  0.11710000  1
  O  O114  1  0.07250000  0.01120000  0.90880000  1
  O  O115  1  0.06500000  0.12780000  0.74970000  1
