# generated using pymatgen
data_CeH21C39NO6
_symmetry_space_group_name_H-M   'P 1'
_cell_length_a   7.34450000
_cell_length_b   22.14080000
_cell_length_c   24.55770000
_cell_angle_alpha   90.00000000
_cell_angle_beta   90.00000000
_cell_angle_gamma   90.00000000
_symmetry_Int_Tables_number   1
_chemical_formula_structural   CeH21C39NO6
_chemical_formula_sum   'Ce4 H84 C156 N4 O24'
_cell_volume   3993.40386339
_cell_formula_units_Z   4
loop_
 _symmetry_equiv_pos_site_id
 _symmetry_equiv_pos_as_xyz
  1  'x, y, z'
loop_
 _atom_site_type_symbol
 _atom_site_label
 _atom_site_symmetry_multiplicity
 _atom_site_fract_x
 _atom_site_fract_y
 _atom_site_fract_z
 _atom_site_occupancy
  Ce  Ce0  1  0.28177000  0.26041000  0.23247000  1
  Ce  Ce1  1  0.78177000  0.26041000  0.26753000  1
  Ce  Ce2  1  0.78177000  0.73959000  0.73247000  1
  Ce  Ce3  1  0.28177000  0.73959000  0.76753000  1
  H  H4  1  0.56550000  0.03810000  0.17900000  1
  H  H5  1  0.06550000  0.03810000  0.32100000  1
  H  H6  1  0.19570000  0.04160000  0.18080000  1
  H  H7  1  0.69570000  0.04160000  0.31920000  1
  H  H8  1  0.95510000  0.04760000  0.71350000  1
  H  H9  1  0.45510000  0.04760000  0.78650000  1
  H  H10  1  0.54130000  0.04860000  0.67190000  1
  H  H11  1  0.04130000  0.04860000  0.82810000  1
  H  H12  1  0.39070000  0.12250000  0.63740000  1
  H  H13  1  0.89070000  0.12250000  0.86260000  1
  H  H14  1  0.71840000  0.12870000  0.18900000  1
  H  H15  1  0.21840000  0.12870000  0.31100000  1
  H  H16  1  0.80660000  0.13850000  0.71270000  1
  H  H17  1  0.30660000  0.13850000  0.78730000  1
  H  H18  1  0.84450000  0.16780000  0.58190000  1
  H  H19  1  0.34450000  0.16780000  0.91810000  1
  H  H20  1  0.62980000  0.17550000  0.51650000  1
  H  H21  1  0.12980000  0.17550000  0.98350000  1
  H  H22  1  0.23130000  0.21320000  0.63450000  1
  H  H23  1  0.73130000  0.21320000  0.86550000  1
  H  H24  1  0.05390000  0.23620000  0.05740000  1
  H  H25  1  0.55390000  0.23620000  0.44260000  1
  H  H26  1  0.85900000  0.25110000  0.13130000  1
  H  H27  1  0.35900000  0.25110000  0.36870000  1
  H  H28  1  0.13010000  0.26720000  0.54220000  1
  H  H29  1  0.63010000  0.26720000  0.95780000  1
  H  H30  1  0.43940000  0.27450000  0.03230000  1
  H  H31  1  0.93940000  0.27450000  0.46770000  1
  H  H32  1  0.59920000  0.30290000  0.66450000  1
  H  H33  1  0.09920000  0.30290000  0.83550000  1
  H  H34  1  0.38750000  0.31070000  0.59680000  1
  H  H35  1  0.88750000  0.31070000  0.90320000  1
  H  H36  1  0.32270000  0.36140000  0.73920000  1
  H  H37  1  0.82270000  0.36140000  0.76080000  1
  H  H38  1  0.72850000  0.39020000  0.17470000  1
  H  H39  1  0.22850000  0.39020000  0.32530000  1
  H  H40  1  0.54660000  0.42760000  0.69580000  1
  H  H41  1  0.04660000  0.42760000  0.80420000  1
  H  H42  1  0.58190000  0.48170000  0.16280000  1
  H  H43  1  0.08190000  0.48170000  0.33720000  1
  H  H44  1  0.19890000  0.48180000  0.20470000  1
  H  H45  1  0.69890000  0.48180000  0.29530000  1
  H  H46  1  0.69890000  0.51820000  0.70470000  1
  H  H47  1  0.19890000  0.51820000  0.79530000  1
  H  H48  1  0.08190000  0.51830000  0.66280000  1
  H  H49  1  0.58190000  0.51830000  0.83720000  1
  H  H50  1  0.04660000  0.57240000  0.19580000  1
  H  H51  1  0.54660000  0.57240000  0.30420000  1
  H  H52  1  0.22850000  0.60980000  0.67470000  1
  H  H53  1  0.72850000  0.60980000  0.82530000  1
  H  H54  1  0.82270000  0.63860000  0.23920000  1
  H  H55  1  0.32270000  0.63860000  0.26080000  1
  H  H56  1  0.88750000  0.68930000  0.09680000  1
  H  H57  1  0.38750000  0.68930000  0.40320000  1
  H  H58  1  0.09920000  0.69710000  0.16450000  1
  H  H59  1  0.59920000  0.69710000  0.33550000  1
  H  H60  1  0.93940000  0.72550000  0.53230000  1
  H  H61  1  0.43940000  0.72550000  0.96770000  1
  H  H62  1  0.63010000  0.73280000  0.04220000  1
  H  H63  1  0.13010000  0.73280000  0.45780000  1
  H  H64  1  0.35900000  0.74890000  0.63130000  1
  H  H65  1  0.85900000  0.74890000  0.86870000  1
  H  H66  1  0.55390000  0.76380000  0.55740000  1
  H  H67  1  0.05390000  0.76380000  0.94260000  1
  H  H68  1  0.73130000  0.78680000  0.13450000  1
  H  H69  1  0.23130000  0.78680000  0.36550000  1
  H  H70  1  0.12980000  0.82450000  0.01650000  1
  H  H71  1  0.62980000  0.82450000  0.48350000  1
  H  H72  1  0.34450000  0.83220000  0.08190000  1
  H  H73  1  0.84450000  0.83220000  0.41810000  1
  H  H74  1  0.30660000  0.86150000  0.21270000  1
  H  H75  1  0.80660000  0.86150000  0.28730000  1
  H  H76  1  0.21840000  0.87130000  0.68900000  1
  H  H77  1  0.71840000  0.87130000  0.81100000  1
  H  H78  1  0.89070000  0.87750000  0.13740000  1
  H  H79  1  0.39070000  0.87750000  0.36260000  1
  H  H80  1  0.04130000  0.95140000  0.17190000  1
  H  H81  1  0.54130000  0.95140000  0.32810000  1
  H  H82  1  0.45510000  0.95240000  0.21350000  1
  H  H83  1  0.95510000  0.95240000  0.28650000  1
  H  H84  1  0.69570000  0.95840000  0.68080000  1
  H  H85  1  0.19570000  0.95840000  0.81920000  1
  H  H86  1  0.06550000  0.96190000  0.67900000  1
  H  H87  1  0.56550000  0.96190000  0.82100000  1
  C  C88  1  0.47580000  0.01290000  0.67600000  1
  C  C89  1  0.97580000  0.01290000  0.82400000  1
  C  C90  1  0.28800000  0.01520000  0.67670000  1
  C  C91  1  0.78800000  0.01520000  0.82330000  1
  C  C92  1  0.69200000  0.03850000  0.18030000  1
  C  C93  1  0.19200000  0.03850000  0.31970000  1
  C  C94  1  0.06910000  0.04120000  0.18120000  1
  C  C95  1  0.56910000  0.04120000  0.31880000  1
  C  C96  1  0.18480000  0.07390000  0.67500000  1
  C  C97  1  0.68480000  0.07390000  0.82500000  1
  C  C98  1  0.01140000  0.08090000  0.69760000  1
  C  C99  1  0.51140000  0.08090000  0.80240000  1
  C  C100  1  0.78400000  0.09300000  0.18590000  1
  C  C101  1  0.28400000  0.09300000  0.31410000  1
  C  C102  1  0.97190000  0.09490000  0.18690000  1
  C  C103  1  0.47190000  0.09490000  0.31310000  1
  C  C104  1  0.27400000  0.12520000  0.65150000  1
  C  C105  1  0.77400000  0.12520000  0.84850000  1
  C  C106  1  0.92160000  0.13510000  0.69720000  1
  C  C107  1  0.42160000  0.13510000  0.80280000  1
  C  C108  1  0.07810000  0.15130000  0.19950000  1
  C  C109  1  0.57810000  0.15130000  0.30050000  1
  C  C110  1  0.17680000  0.17980000  0.65080000  1
  C  C111  1  0.67680000  0.17980000  0.84920000  1
  C  C112  1  0.00710000  0.18670000  0.67250000  1
  C  C113  1  0.50710000  0.18670000  0.82750000  1
  C  C114  1  0.75700000  0.19800000  0.58470000  1
  C  C115  1  0.25700000  0.19800000  0.91530000  1
  C  C116  1  0.62660000  0.20230000  0.54560000  1
  C  C117  1  0.12660000  0.20230000  0.95440000  1
  C  C118  1  0.76400000  0.23810000  0.62950000  1
  C  C119  1  0.26400000  0.23810000  0.87050000  1
  C  C120  1  0.93200000  0.24490000  0.05140000  1
  C  C121  1  0.43200000  0.24490000  0.44860000  1
  C  C122  1  0.48790000  0.24530000  0.54750000  1
  C  C123  1  0.98790000  0.24530000  0.95250000  1
  C  C124  1  0.36700000  0.25080000  0.50180000  1
  C  C125  1  0.86700000  0.25080000  0.99820000  1
  C  C126  1  0.81200000  0.25190000  0.09620000  1
  C  C127  1  0.31200000  0.25190000  0.40380000  1
  C  C128  1  0.63000000  0.25980000  0.08890000  1
  C  C129  1  0.13000000  0.25980000  0.41110000  1
  C  C130  1  0.17800000  0.26240000  0.50750000  1
  C  C131  1  0.67800000  0.26240000  0.99250000  1
  C  C132  1  0.51180000  0.26300000  0.13770000  1
  C  C133  1  0.01180000  0.26300000  0.36230000  1
  C  C134  1  0.56300000  0.26680000  0.03750000  1
  C  C135  1  0.06300000  0.26680000  0.46250000  1
  C  C136  1  0.61060000  0.27880000  0.63370000  1
  C  C137  1  0.11060000  0.27880000  0.86630000  1
  C  C138  1  0.48120000  0.28270000  0.59340000  1
  C  C139  1  0.98120000  0.28270000  0.90660000  1
  C  C140  1  0.00470000  0.29580000  0.66950000  1
  C  C141  1  0.50470000  0.29580000  0.83050000  1
  C  C142  1  0.13520000  0.30400000  0.70940000  1
  C  C143  1  0.63520000  0.30400000  0.79060000  1
  C  C144  1  0.96800000  0.34420000  0.63200000  1
  C  C145  1  0.46800000  0.34420000  0.86800000  1
  C  C146  1  0.23340000  0.35710000  0.71270000  1
  C  C147  1  0.73340000  0.35710000  0.78730000  1
  C  C148  1  0.08320000  0.36960000  0.20150000  1
  C  C149  1  0.58320000  0.36960000  0.29850000  1
  C  C150  1  0.06400000  0.39650000  0.63590000  1
  C  C151  1  0.56400000  0.39650000  0.86410000  1
  C  C152  1  0.19920000  0.40510000  0.67590000  1
  C  C153  1  0.69920000  0.40510000  0.82410000  1
  C  C154  1  0.98120000  0.42530000  0.19170000  1
  C  C155  1  0.48120000  0.42530000  0.30830000  1
  C  C156  1  0.79200000  0.42620000  0.17870000  1
  C  C157  1  0.29200000  0.42620000  0.32130000  1
  C  C158  1  0.30300000  0.46280000  0.67920000  1
  C  C159  1  0.80300000  0.46280000  0.82080000  1
  C  C160  1  0.48370000  0.46370000  0.69130000  1
  C  C161  1  0.98370000  0.46370000  0.80870000  1
  C  C162  1  0.70480000  0.48100000  0.17200000  1
  C  C163  1  0.20480000  0.48100000  0.32800000  1
  C  C164  1  0.07500000  0.48170000  0.19710000  1
  C  C165  1  0.57500000  0.48170000  0.30290000  1
  C  C166  1  0.57500000  0.51830000  0.69710000  1
  C  C167  1  0.07500000  0.51830000  0.80290000  1
  C  C168  1  0.20480000  0.51900000  0.67200000  1
  C  C169  1  0.70480000  0.51900000  0.82800000  1
  C  C170  1  0.98370000  0.53630000  0.19130000  1
  C  C171  1  0.48370000  0.53630000  0.30870000  1
  C  C172  1  0.80300000  0.53720000  0.17920000  1
  C  C173  1  0.30300000  0.53720000  0.32080000  1
  C  C174  1  0.29200000  0.57380000  0.67870000  1
  C  C175  1  0.79200000  0.57380000  0.82130000  1
  C  C176  1  0.48120000  0.57470000  0.69170000  1
  C  C177  1  0.98120000  0.57470000  0.80830000  1
  C  C178  1  0.69920000  0.59490000  0.17590000  1
  C  C179  1  0.19920000  0.59490000  0.32410000  1
  C  C180  1  0.56400000  0.60350000  0.13590000  1
  C  C181  1  0.06400000  0.60350000  0.36410000  1
  C  C182  1  0.58320000  0.63040000  0.70150000  1
  C  C183  1  0.08320000  0.63040000  0.79850000  1
  C  C184  1  0.73340000  0.64290000  0.21270000  1
  C  C185  1  0.23340000  0.64290000  0.28730000  1
  C  C186  1  0.46800000  0.65580000  0.13200000  1
  C  C187  1  0.96800000  0.65580000  0.36800000  1
  C  C188  1  0.63520000  0.69600000  0.20940000  1
  C  C189  1  0.13520000  0.69600000  0.29060000  1
  C  C190  1  0.50470000  0.70420000  0.16950000  1
  C  C191  1  0.00470000  0.70420000  0.33050000  1
  C  C192  1  0.98120000  0.71730000  0.09340000  1
  C  C193  1  0.48120000  0.71730000  0.40660000  1
  C  C194  1  0.11060000  0.72120000  0.13370000  1
  C  C195  1  0.61060000  0.72120000  0.36630000  1
  C  C196  1  0.06300000  0.73320000  0.53750000  1
  C  C197  1  0.56300000  0.73320000  0.96250000  1
  C  C198  1  0.01180000  0.73700000  0.63770000  1
  C  C199  1  0.51180000  0.73700000  0.86230000  1
  C  C200  1  0.67800000  0.73760000  0.00750000  1
  C  C201  1  0.17800000  0.73760000  0.49250000  1
  C  C202  1  0.13000000  0.74020000  0.58890000  1
  C  C203  1  0.63000000  0.74020000  0.91110000  1
  C  C204  1  0.31200000  0.74810000  0.59620000  1
  C  C205  1  0.81200000  0.74810000  0.90380000  1
  C  C206  1  0.86700000  0.74920000  0.00180000  1
  C  C207  1  0.36700000  0.74920000  0.49820000  1
  C  C208  1  0.98790000  0.75470000  0.04750000  1
  C  C209  1  0.48790000  0.75470000  0.45250000  1
  C  C210  1  0.43200000  0.75510000  0.55140000  1
  C  C211  1  0.93200000  0.75510000  0.94860000  1
  C  C212  1  0.26400000  0.76190000  0.12950000  1
  C  C213  1  0.76400000  0.76190000  0.37050000  1
  C  C214  1  0.12660000  0.79770000  0.04560000  1
  C  C215  1  0.62660000  0.79770000  0.45440000  1
  C  C216  1  0.25700000  0.80200000  0.08470000  1
  C  C217  1  0.75700000  0.80200000  0.41530000  1
  C  C218  1  0.50710000  0.81330000  0.17250000  1
  C  C219  1  0.00710000  0.81330000  0.32750000  1
  C  C220  1  0.67680000  0.82020000  0.15080000  1
  C  C221  1  0.17680000  0.82020000  0.34920000  1
  C  C222  1  0.57810000  0.84870000  0.69950000  1
  C  C223  1  0.07810000  0.84870000  0.80050000  1
  C  C224  1  0.42160000  0.86490000  0.19720000  1
  C  C225  1  0.92160000  0.86490000  0.30280000  1
  C  C226  1  0.77400000  0.87480000  0.15150000  1
  C  C227  1  0.27400000  0.87480000  0.34850000  1
  C  C228  1  0.47190000  0.90510000  0.68690000  1
  C  C229  1  0.97190000  0.90510000  0.81310000  1
  C  C230  1  0.28400000  0.90700000  0.68590000  1
  C  C231  1  0.78400000  0.90700000  0.81410000  1
  C  C232  1  0.51140000  0.91910000  0.19760000  1
  C  C233  1  0.01140000  0.91910000  0.30240000  1
  C  C234  1  0.68480000  0.92610000  0.17500000  1
  C  C235  1  0.18480000  0.92610000  0.32500000  1
  C  C236  1  0.56910000  0.95880000  0.68120000  1
  C  C237  1  0.06910000  0.95880000  0.81880000  1
  C  C238  1  0.19200000  0.96150000  0.68030000  1
  C  C239  1  0.69200000  0.96150000  0.81970000  1
  C  C240  1  0.78800000  0.98480000  0.17670000  1
  C  C241  1  0.28800000  0.98480000  0.32330000  1
  C  C242  1  0.97580000  0.98710000  0.17600000  1
  C  C243  1  0.47580000  0.98710000  0.32400000  1
  N  N244  1  0.90420000  0.24190000  0.66690000  1
  N  N245  1  0.40420000  0.24190000  0.83310000  1
  N  N246  1  0.40420000  0.75810000  0.16690000  1
  N  N247  1  0.90420000  0.75810000  0.33310000  1
  O  O248  1  0.24600000  0.15270000  0.19430000  1
  O  O249  1  0.74600000  0.15270000  0.30570000  1
  O  O250  1  0.98730000  0.19770000  0.21410000  1
  O  O251  1  0.48730000  0.19770000  0.28590000  1
  O  O252  1  0.57940000  0.26110000  0.18580000  1
  O  O253  1  0.07940000  0.26110000  0.31420000  1
  O  O254  1  0.33980000  0.26490000  0.13240000  1
  O  O255  1  0.83980000  0.26490000  0.36760000  1
  O  O256  1  0.98700000  0.31910000  0.21040000  1
  O  O257  1  0.48700000  0.31910000  0.28960000  1
  O  O258  1  0.25050000  0.36850000  0.20360000  1
  O  O259  1  0.75050000  0.36850000  0.29640000  1
  O  O260  1  0.75050000  0.63150000  0.70360000  1
  O  O261  1  0.25050000  0.63150000  0.79640000  1
  O  O262  1  0.48700000  0.68090000  0.71040000  1
  O  O263  1  0.98700000  0.68090000  0.78960000  1
  O  O264  1  0.83980000  0.73510000  0.63240000  1
  O  O265  1  0.33980000  0.73510000  0.86760000  1
  O  O266  1  0.07940000  0.73890000  0.68580000  1
  O  O267  1  0.57940000  0.73890000  0.81420000  1
  O  O268  1  0.48730000  0.80230000  0.71410000  1
  O  O269  1  0.98730000  0.80230000  0.78590000  1
  O  O270  1  0.74600000  0.84730000  0.69430000  1
  O  O271  1  0.24600000  0.84730000  0.80570000  1
