# generated using pymatgen
data_AgH8(CN)2
_symmetry_space_group_name_H-M   'P 1'
_cell_length_a   6.24300000
_cell_length_b   7.39376045
_cell_length_c   7.39376045
_cell_angle_alpha   91.70419253
_cell_angle_beta   106.92941672
_cell_angle_gamma   106.92941672
_symmetry_Int_Tables_number   1
_chemical_formula_structural   AgH8(CN)2
_chemical_formula_sum   'Ag2 H16 C4 N4'
_cell_volume   309.89563199
_cell_formula_units_Z   2
loop_
 _symmetry_equiv_pos_site_id
 _symmetry_equiv_pos_as_xyz
  1  'x, y, z'
loop_
 _atom_site_type_symbol
 _atom_site_label
 _atom_site_symmetry_multiplicity
 _atom_site_fract_x
 _atom_site_fract_y
 _atom_site_fract_z
 _atom_site_occupancy
  Ag  Ag0  1  1.00000000  0.50000000  0.50000000  1
  Ag  Ag1  1  0.50000000  0.50000000  0.50000000  1
  C  C2  1  0.54550000  0.52830000  0.10650000  1
  C  C3  1  0.04550000  0.10650000  0.52830000  1
  C  C4  1  0.45450000  0.47170000  0.89350000  1
  C  C5  1  0.95450000  0.89350000  0.47170000  1
  H  H6  1  0.57120000  0.66480000  0.13380000  1
  H  H7  1  0.07120000  0.13380000  0.66480000  1
  H  H8  1  0.69750000  0.50560000  0.15820000  1
  H  H9  1  0.19750000  0.15820000  0.50560000  1
  H  H10  1  0.23840000  0.44010000  0.15170000  1
  H  H11  1  0.73840000  0.15170000  0.44010000  1
  H  H12  1  0.64170000  0.70590000  0.82250000  1
  H  H13  1  0.14170000  0.82250000  0.70590000  1
  H  H14  1  0.35830000  0.29410000  0.17750000  1
  H  H15  1  0.85830000  0.17750000  0.29410000  1
  H  H16  1  0.76160000  0.55990000  0.84830000  1
  H  H17  1  0.26160000  0.84830000  0.55990000  1
  H  H18  1  0.30250000  0.49440000  0.84180000  1
  H  H19  1  0.80250000  0.84180000  0.49440000  1
  H  H20  1  0.42880000  0.33520000  0.86620000  1
  H  H21  1  0.92880000  0.86620000  0.33520000  1
  N  N22  1  0.38030000  0.42070000  0.20170000  1
  N  N23  1  0.88030000  0.20170000  0.42070000  1
  N  N24  1  0.61970000  0.57930000  0.79830000  1
  N  N25  1  0.11970000  0.79830000  0.57930000  1
