# generated using pymatgen
data_Cu2H7C18N3O8
_symmetry_space_group_name_H-M   'P 1'
_cell_length_a   18.45418804
_cell_length_b   18.46600000
_cell_length_c   35.38590000
_cell_angle_alpha   89.58950000
_cell_angle_beta   89.86386931
_cell_angle_gamma   60.13086750
_symmetry_Int_Tables_number   1
_chemical_formula_structural   Cu2H7C18N3O8
_chemical_formula_sum   'Cu18 H63 C162 N27 O72'
_cell_volume   10456.54694837
_cell_formula_units_Z   9
loop_
 _symmetry_equiv_pos_site_id
 _symmetry_equiv_pos_as_xyz
  1  'x, y, z'
loop_
 _atom_site_type_symbol
 _atom_site_label
 _atom_site_symmetry_multiplicity
 _atom_site_fract_x
 _atom_site_fract_y
 _atom_site_fract_z
 _atom_site_occupancy
  Cu  Cu0  1  0.01537000  0.49011000  0.00566000  1
  Cu  Cu1  1  0.11110000  0.72111000  0.33640000  1
  Cu  Cu2  1  0.11573000  0.14892000  0.33885000  1
  Cu  Cu3  1  0.15967000  0.62903000  0.27450000  1
  Cu  Cu4  1  0.16602000  0.19466000  0.27766000  1
  Cu  Cu5  1  0.25609000  0.86908000  0.61134000  1
  Cu  Cu6  1  0.34906000  0.82118000  0.67329000  1
  Cu  Cu7  1  0.44172000  0.05748000  0.00412000  1
  Cu  Cu8  1  0.44816000  0.48493000  0.00278000  1
  Cu  Cu9  1  0.48809000  0.96425000  0.94268000  1
  Cu  Cu10  1  0.49460000  0.53313000  0.94118000  1
  Cu  Cu11  1  0.58932000  0.20263000  0.27708000  1
  Cu  Cu12  1  0.68530000  0.15574000  0.33808000  1
  Cu  Cu13  1  0.77936000  0.38716000  0.66948000  1
  Cu  Cu14  1  0.78428000  0.81338000  0.67049000  1
  Cu  Cu15  1  0.82396000  0.29257000  0.60861000  1
  Cu  Cu16  1  0.82719000  0.86448000  0.60861000  1
  Cu  Cu17  1  0.92115000  0.53840000  0.94417000  1
  H  H18  1  0.00208000  0.28530000  0.72845000  1
  H  H19  1  0.01606000  0.68159000  0.72545000  1
  H  H20  1  0.05675000  0.34194000  0.87320000  1
  H  H21  1  0.05871000  0.59472000  0.87274000  1
  H  H22  1  0.06123000  0.10089000  0.64233000  1
  H  H23  1  0.06671000  0.81893000  0.64128000  1
  H  H24  1  0.11915000  0.43150000  0.30839000  1
  H  H25  1  0.15987000  0.91457000  0.30540000  1
  H  H26  1  0.17992000  0.10208000  0.80884000  1
  H  H27  1  0.18876000  0.69700000  0.80912000  1
  H  H28  1  0.19656000  0.23865000  0.97544000  1
  H  H29  1  0.19936000  0.55363000  0.97544000  1
  H  H30  1  0.23092000  0.05175000  0.73527000  1
  H  H31  1  0.23952000  0.69795000  0.73337000  1
  H  H32  1  0.28052000  0.91710000  0.13647000  1
  H  H33  1  0.28272000  0.10547000  0.87017000  1
  H  H34  1  0.28555000  0.73419000  0.21815000  1
  H  H35  1  0.28725000  0.96575000  0.21568000  1
  H  H36  1  0.29147000  0.59157000  0.86921000  1
  H  H37  1  0.31365000  0.09855000  0.41475000  1
  H  H38  1  0.33683000  0.61521000  0.39672000  1
  H  H39  1  0.36304000  0.99559000  0.55163000  1
  H  H40  1  0.38219000  0.91637000  0.07705000  1
  H  H41  1  0.39152000  0.68057000  0.07446000  1
  H  H42  1  0.39609000  0.43208000  0.31038000  1
  H  H43  1  0.39620000  0.67552000  0.53978000  1
  H  H44  1  0.40907000  0.13208000  0.30850000  1
  H  H45  1  0.41471000  0.99570000  0.47428000  1
  H  H46  1  0.42635000  0.78359000  0.97150000  1
  H  H47  1  0.48087000  0.25563000  0.96885000  1
  H  H48  1  0.51839000  0.43422000  0.47545000  1
  H  H49  1  0.53246000  0.56893000  0.64254000  1
  H  H50  1  0.54226000  0.86353000  0.64020000  1
  H  H51  1  0.54232000  0.10488000  0.41175000  1
  H  H52  1  0.57190000  0.38677000  0.40021000  1
  H  H53  1  0.59278000  0.00089000  0.55595000  1
  H  H54  1  0.61407000  0.30135000  0.88005000  1
  H  H55  1  0.61435000  0.06878000  0.88501000  1
  H  H56  1  0.61694000  0.24783000  0.80209000  1
  H  H57  1  0.61802000  0.43570000  0.53720000  1
  H  H58  1  0.67102000  0.95435000  0.06144000  1
  H  H59  1  0.67926000  0.36475000  0.06451000  1
  H  H60  1  0.72230000  0.24566000  0.74440000  1
  H  H61  1  0.72630000  0.76769000  0.97731000  1
  H  H62  1  0.72632000  0.00851000  0.20578000  1
  H  H63  1  0.72746000  0.49522000  0.97519000  1
  H  H64  1  0.72954000  0.36863000  0.14083000  1
  H  H65  1  0.73181000  0.26267000  0.20228000  1
  H  H66  1  0.73578000  0.00758000  0.74346000  1
  H  H67  1  0.76825000  0.10962000  0.63975000  1
  H  H68  1  0.84239000  0.56863000  0.63814000  1
  H  H69  1  0.85336000  0.77127000  0.14049000  1
  H  H70  1  0.86665000  0.21717000  0.30734000  1
  H  H71  1  0.86681000  0.90386000  0.30775000  1
  H  H72  1  0.86993000  0.67407000  0.53427000  1
  H  H73  1  0.87903000  0.43753000  0.53306000  1
  H  H74  1  0.90289000  0.72272000  0.06670000  1
  H  H75  1  0.90855000  0.37016000  0.06355000  1
  H  H76  1  0.95597000  0.77559000  0.20154000  1
  H  H77  1  0.97191000  0.24604000  0.20394000  1
  H  H78  1  0.98049000  0.61839000  0.39152000  1
  H  H79  1  0.98639000  0.43503000  0.47114000  1
  H  H80  1  0.98707000  0.38309000  0.39687000  1
  C  C81  1  0.00150000  0.55701000  0.37984000  1
  C  C82  1  0.00504000  0.21312000  0.27810000  1
  C  C83  1  0.00570000  0.42382000  0.38308000  1
  C  C84  1  0.02119000  0.19969000  0.68313000  1
  C  C85  1  0.03217000  0.75312000  0.68128000  1
  C  C86  1  0.04351000  0.22451000  0.71648000  1
  C  C87  1  0.05332000  0.53108000  0.34802000  1
  C  C88  1  0.05578000  0.39753000  0.35035000  1
  C  C89  1  0.05647000  0.70322000  0.71391000  1
  C  C90  1  0.05988000  0.37612000  0.94657000  1
  C  C91  1  0.06212000  0.55871000  0.94587000  1
  C  C92  1  0.07736000  0.12097000  0.66811000  1
  C  C93  1  0.07901000  0.45182000  0.33302000  1
  C  C94  1  0.08284000  0.58561000  0.33156000  1
  C  C95  1  0.08529000  0.78023000  0.66651000  1
  C  C96  1  0.08577000  0.31337000  0.33445000  1
  C  C97  1  0.10862000  0.29124000  0.88815000  1
  C  C98  1  0.11134000  0.59106000  0.88797000  1
  C  C99  1  0.11789000  0.29748000  0.92706000  1
  C  C100  1  0.11891000  0.17197000  0.73509000  1
  C  C101  1  0.11960000  0.57542000  0.92708000  1
  C  C102  1  0.13079000  0.68339000  0.73277000  1
  C  C103  1  0.15197000  0.63194000  0.76732000  1
  C  C104  1  0.15276000  0.06639000  0.68687000  1
  C  C105  1  0.16035000  0.22590000  0.82613000  1
  C  C106  1  0.16046000  0.76070000  0.68496000  1
  C  C107  1  0.16615000  0.16483000  0.80183000  1
  C  C108  1  0.16750000  0.22243000  0.86763000  1
  C  C109  1  0.17276000  0.09218000  0.72074000  1
  C  C110  1  0.17326000  0.59585000  0.86714000  1
  C  C111  1  0.17599000  0.64754000  0.80197000  1
  C  C112  1  0.18219000  0.71322000  0.71864000  1
  C  C113  1  0.18743000  0.23277000  0.94563000  1
  C  C114  1  0.18843000  0.76448000  0.27977000  1
  C  C115  1  0.19073000  0.56787000  0.94548000  1
  C  C116  1  0.19503000  0.03195000  0.28018000  1
  C  C117  1  0.19753000  0.89550000  0.27999000  1
  C  C118  1  0.20969000  0.98322000  0.67060000  1
  C  C119  1  0.21460000  0.79141000  0.66912000  1
  C  C120  1  0.21895000  0.81844000  0.26359000  1
  C  C121  1  0.22175000  0.94939000  0.26309000  1
  C  C122  1  0.23589000  0.15723000  0.88643000  1
  C  C123  1  0.24276000  0.59012000  0.88577000  1
  C  C124  1  0.24746000  0.16276000  0.92550000  1
  C  C125  1  0.25279000  0.57488000  0.92505000  1
  C  C126  1  0.26768000  0.79410000  0.23078000  1
  C  C127  1  0.26826000  0.92506000  0.22924000  1
  C  C128  1  0.27367000  0.58319000  0.33423000  1
  C  C129  1  0.27555000  0.13063000  0.33964000  1
  C  C130  1  0.29239000  0.84676000  0.21345000  1
  C  C131  1  0.32697000  0.10203000  0.94408000  1
  C  C132  1  0.32989000  0.85524000  0.14430000  1
  C  C133  1  0.33254000  0.55540000  0.94361000  1
  C  C134  1  0.34483000  0.81651000  0.17937000  1
  C  C135  1  0.35360000  0.11376000  0.35898000  1
  C  C136  1  0.35659000  0.52935000  0.35166000  1
  C  C137  1  0.36211000  0.10100000  0.39842000  1
  C  C138  1  0.37941000  0.55514000  0.38444000  1
  C  C139  1  0.38382000  0.79960000  0.07969000  1
  C  C140  1  0.38659000  0.86500000  0.06066000  1
  C  C141  1  0.39038000  0.89834000  0.61476000  1
  C  C142  1  0.39259000  0.73115000  0.05925000  1
  C  C143  1  0.39719000  0.70829000  0.61339000  1
  C  C144  1  0.40338000  0.85966000  0.02143000  1
  C  C145  1  0.40704000  0.72509000  0.02021000  1
  C  C146  1  0.41225000  0.78964000  0.00144000  1
  C  C147  1  0.41338000  0.45216000  0.33582000  1
  C  C148  1  0.41584000  0.12052000  0.33869000  1
  C  C149  1  0.42015000  0.91800000  0.00343000  1
  C  C150  1  0.42226000  0.97704000  0.56532000  1
  C  C151  1  0.42633000  0.64671000  0.00065000  1
  C  C152  1  0.42736000  0.04497000  0.48197000  1
  C  C153  1  0.42992000  0.09865000  0.41734000  1
  C  C154  1  0.44535000  0.92744000  0.59837000  1
  C  C155  1  0.44707000  0.62405000  0.55484000  1
  C  C156  1  0.45212000  0.05875000  0.51680000  1
  C  C157  1  0.45560000  0.62968000  0.59387000  1
  C  C158  1  0.45672000  0.50420000  0.40194000  1
  C  C159  1  0.47483000  0.00481000  0.55053000  1
  C  C160  1  0.48469000  0.11666000  0.35739000  1
  C  C161  1  0.49110000  0.10529000  0.39667000  1
  C  C162  1  0.49134000  0.39987000  0.35301000  1
  C  C163  1  0.49819000  0.55818000  0.49286000  1
  C  C164  1  0.50442000  0.49705000  0.46849000  1
  C  C165  1  0.50502000  0.55458000  0.53440000  1
  C  C166  1  0.51217000  0.42588000  0.38660000  1
  C  C167  1  0.51412000  0.10221000  0.94590000  1
  C  C168  1  0.51937000  0.37064000  0.94346000  1
  C  C169  1  0.51996000  0.23508000  0.94389000  1
  C  C170  1  0.52287000  0.90373000  0.61545000  1
  C  C171  1  0.52373000  0.56364000  0.61264000  1
  C  C172  1  0.54343000  0.15642000  0.92872000  1
  C  C173  1  0.54436000  0.13481000  0.33727000  1
  C  C174  1  0.54500000  0.28812000  0.92666000  1
  C  C175  1  0.54884000  0.31791000  0.33597000  1
  C  C176  1  0.55167000  0.98063000  0.56797000  1
  C  C177  1  0.57181000  0.48802000  0.55339000  1
  C  C178  1  0.57708000  0.92868000  0.59992000  1
  C  C179  1  0.58290000  0.49281000  0.59257000  1
  C  C180  1  0.59394000  0.26159000  0.89364000  1
  C  C181  1  0.59456000  0.12999000  0.89665000  1
  C  C182  1  0.60556000  0.92067000  0.00036000  1
  C  C183  1  0.61082000  0.45927000  0.00052000  1
  C  C184  1  0.62002000  0.18189000  0.87907000  1
  C  C185  1  0.66183000  0.89698000  0.61558000  1
  C  C186  1  0.66199000  0.43097000  0.61116000  1
  C  C187  1  0.66563000  0.18656000  0.81108000  1
  C  C188  1  0.67611000  0.14947000  0.84630000  1
  C  C189  1  0.68889000  0.86694000  0.01744000  1
  C  C190  1  0.69353000  0.43317000  0.01771000  1
  C  C191  1  0.71273000  0.89346000  0.04966000  1
  C  C192  1  0.71891000  0.38539000  0.05128000  1
  C  C193  1  0.72626000  0.12767000  0.74790000  1
  C  C194  1  0.72817000  0.19316000  0.72842000  1
  C  C195  1  0.72854000  0.04080000  0.27947000  1
  C  C196  1  0.72884000  0.22423000  0.27684000  1
  C  C197  1  0.73663000  0.05800000  0.72800000  1
  C  C198  1  0.74434000  0.78841000  0.00232000  1
  C  C199  1  0.74483000  0.18706000  0.68917000  1
  C  C200  1  0.74722000  0.45770000  0.00078000  1
  C  C201  1  0.75095000  0.05126000  0.68903000  1
  C  C202  1  0.75480000  0.11603000  0.66976000  1
  C  C203  1  0.75979000  0.24591000  0.67040000  1
  C  C204  1  0.76880000  0.97336000  0.66956000  1
  C  C205  1  0.77887000  0.95810000  0.22052000  1
  C  C206  1  0.78450000  0.25689000  0.21823000  1
  C  C207  1  0.78762000  0.96312000  0.25958000  1
  C  C208  1  0.78950000  0.84193000  0.06744000  1
  C  C209  1  0.79016000  0.24121000  0.25748000  1
  C  C210  1  0.79126000  0.31865000  0.13348000  1
  C  C211  1  0.79728000  0.36148000  0.06714000  1
  C  C212  1  0.82184000  0.73555000  0.01980000  1
  C  C213  1  0.82450000  0.43705000  0.01742000  1
  C  C214  1  0.83187000  0.89546000  0.15816000  1
  C  C215  1  0.83858000  0.83441000  0.13367000  1
  C  C216  1  0.83909000  0.89099000  0.19961000  1
  C  C217  1  0.84195000  0.70548000  0.60868000  1
  C  C218  1  0.84352000  0.76229000  0.05290000  1
  C  C219  1  0.84464000  0.43304000  0.60799000  1
  C  C220  1  0.84875000  0.38836000  0.05050000  1
  C  C221  1  0.85058000  0.25771000  0.19898000  1
  C  C222  1  0.85259000  0.26172000  0.15747000  1
  C  C223  1  0.85409000  0.56365000  0.60800000  1
  C  C224  1  0.85786000  0.62857000  0.58882000  1
  C  C225  1  0.85811000  0.89889000  0.27782000  1
  C  C226  1  0.86103000  0.23053000  0.27729000  1
  C  C227  1  0.86171000  0.49413000  0.58828000  1
  C  C228  1  0.86944000  0.62328000  0.54960000  1
  C  C229  1  0.87549000  0.48916000  0.54893000  1
  C  C230  1  0.87637000  0.46485000  0.00158000  1
  C  C231  1  0.87745000  0.55464000  0.52950000  1
  C  C232  1  0.87857000  0.65285000  0.00321000  1
  C  C233  1  0.87973000  0.55747000  0.48795000  1
  C  C234  1  0.90835000  0.82615000  0.21807000  1
  C  C235  1  0.91940000  0.83050000  0.25723000  1
  C  C236  1  0.92062000  0.24652000  0.21916000  1
  C  C237  1  0.92669000  0.23283000  0.25828000  1
  C  C238  1  0.93603000  0.49678000  0.46384000  1
  C  C239  1  0.94287000  0.25161000  0.66625000  1
  C  C240  1  0.94867000  0.78198000  0.66465000  1
  C  C241  1  0.97743000  0.50413000  0.39745000  1
  C  C242  1  0.99881000  0.76962000  0.27576000  1
  N  N243  1  0.12064000  0.28173000  0.77124000  1
  N  N244  1  0.13240000  0.29756000  0.80632000  1
  N  N245  1  0.13243000  0.57120000  0.77205000  1
  N  N246  1  0.14020000  0.20272000  0.76787000  1
  N  N247  1  0.14360000  0.55022000  0.80821000  1
  N  N248  1  0.16926000  0.59540000  0.82671000  1
  N  N249  1  0.38265000  0.79603000  0.12021000  1
  N  N250  1  0.40566000  0.73640000  0.17549000  1
  N  N251  1  0.42747000  0.72586000  0.13950000  1
  N  N252  1  0.43378000  0.09816000  0.45779000  1
  N  N253  1  0.45816000  0.61416000  0.43799000  1
  N  N254  1  0.46008000  0.14221000  0.47679000  1
  N  N255  1  0.46982000  0.62997000  0.47311000  1
  N  N256  1  0.47192000  0.11945000  0.51274000  1
  N  N257  1  0.47833000  0.53501000  0.43456000  1
  N  N258  1  0.72175000  0.12644000  0.78835000  1
  N  N259  1  0.73780000  0.06939000  0.84393000  1
  N  N260  1  0.76428000  0.05725000  0.80859000  1
  N  N261  1  0.79027000  0.95221000  0.10357000  1
  N  N262  1  0.80219000  0.96775000  0.13869000  1
  N  N263  1  0.81147000  0.87281000  0.09991000  1
  N  N264  1  0.82789000  0.30705000  0.09935000  1
  N  N265  1  0.83494000  0.62850000  0.46790000  1
  N  N266  1  0.86288000  0.61258000  0.43281000  1
  N  N267  1  0.90650000  0.24640000  0.10233000  1
  N  N268  1  0.92322000  0.21750000  0.13736000  1
  N  N269  1  0.92354000  0.53410000  0.42970000  1
  O  O270  1  0.01316000  0.78258000  0.30939000  1
  O  O271  1  0.01791000  0.18452000  0.31165000  1
  O  O272  1  0.05345000  0.70695000  0.25756000  1
  O  O273  1  0.06043000  0.22209000  0.26070000  1
  O  O274  1  0.07572000  0.53084000  0.97962000  1
  O  O275  1  0.07592000  0.64689000  0.35052000  1
  O  O276  1  0.07659000  0.39061000  0.97954000  1
  O  O277  1  0.07775000  0.25878000  0.35314000  1
  O  O278  1  0.11601000  0.57021000  0.29899000  1
  O  O279  1  0.12074000  0.29598000  0.30223000  1
  O  O280  1  0.15398000  0.78066000  0.31207000  1
  O  O281  1  0.16143000  0.04846000  0.31277000  1
  O  O282  1  0.19502000  0.96700000  0.63764000  1
  O  O283  1  0.19591000  0.70282000  0.26088000  1
  O  O284  1  0.19886000  0.82478000  0.63645000  1
  O  O285  1  0.20372000  0.08645000  0.26188000  1
  O  O286  1  0.21823000  0.64521000  0.35245000  1
  O  O287  1  0.22068000  0.12117000  0.35722000  1
  O  O288  1  0.25837000  0.56729000  0.30129000  1
  O  O289  1  0.26240000  0.15841000  0.30593000  1
  O  O290  1  0.27213000  0.92873000  0.68934000  1
  O  O291  1  0.27583000  0.78488000  0.68819000  1
  O  O292  1  0.32826000  0.90611000  0.59605000  1
  O  O293  1  0.33393000  0.76350000  0.59546000  1
  O  O294  1  0.34188000  0.11525000  0.97761000  1
  O  O295  1  0.34769000  0.52600000  0.97705000  1
  O  O296  1  0.38159000  0.03971000  0.92578000  1
  O  O297  1  0.38707000  0.56415000  0.92531000  1
  O  O298  1  0.40653000  0.86468000  0.64742000  1
  O  O299  1  0.41162000  0.72181000  0.64696000  1
  O  O300  1  0.41235000  0.98072000  0.02150000  1
  O  O301  1  0.41819000  0.59135000  0.01857000  1
  O  O302  1  0.44704000  0.90563000  0.96961000  1
  O  O303  1  0.45463000  0.63325000  0.96711000  1
  O  O304  1  0.48007000  0.11936000  0.97829000  1
  O  O305  1  0.48734000  0.38661000  0.97627000  1
  O  O306  1  0.52266000  0.03906000  0.92790000  1
  O  O307  1  0.52840000  0.42509000  0.92513000  1
  O  O308  1  0.52869000  0.16394000  0.30380000  1
  O  O309  1  0.53269000  0.30172000  0.30326000  1
  O  O310  1  0.55107000  0.98370000  0.01843000  1
  O  O311  1  0.55654000  0.45003000  0.01876000  1
  O  O312  1  0.58859000  0.90316000  0.96811000  1
  O  O313  1  0.59412000  0.49243000  0.96776000  1
  O  O314  1  0.60878000  0.12543000  0.35456000  1
  O  O315  1  0.61224000  0.26373000  0.35420000  1
  O  O316  1  0.66404000  0.09530000  0.26201000  1
  O  O317  1  0.66454000  0.23396000  0.25931000  1
  O  O318  1  0.67774000  0.44438000  0.64449000  1
  O  O319  1  0.68049000  0.86087000  0.64761000  1
  O  O320  1  0.71598000  0.36810000  0.59286000  1
  O  O321  1  0.71609000  0.90424000  0.59629000  1
  O  O322  1  0.74389000  0.19506000  0.31033000  1
  O  O323  1  0.74476000  0.05505000  0.31257000  1
  O  O324  1  0.75226000  0.30914000  0.68795000  1
  O  O325  1  0.75992000  0.91814000  0.68732000  1
  O  O326  1  0.78492000  0.23341000  0.63631000  1
  O  O327  1  0.79538000  0.96091000  0.63579000  1
  O  O328  1  0.81490000  0.44856000  0.64127000  1
  O  O329  1  0.81592000  0.71759000  0.64257000  1
  O  O330  1  0.85152000  0.76043000  0.59111000  1
  O  O331  1  0.85541000  0.36803000  0.59095000  1
  O  O332  1  0.85910000  0.50009000  0.96937000  1
  O  O333  1  0.86392000  0.63746000  0.97008000  1
  O  O334  1  0.88888000  0.31602000  0.68369000  1
  O  O335  1  0.89456000  0.77384000  0.68357000  1
  O  O336  1  0.92516000  0.23333000  0.63427000  1
  O  O337  1  0.93051000  0.81729000  0.63240000  1
  O  O338  1  0.94021000  0.45521000  0.01968000  1
  O  O339  1  0.94030000  0.59765000  0.02199000  1
  O  O340  1  0.99537000  0.43072000  0.92911000  1
  O  O341  1  0.99837000  0.56761000  0.92808000  1
