# generated using pymatgen
data_TbH8C16NO7
_symmetry_space_group_name_H-M   'P 1'
_cell_length_a   14.49270000
_cell_length_b   23.29236400
_cell_length_c   26.07848233
_cell_angle_alpha   85.04084418
_cell_angle_beta   73.86705743
_cell_angle_gamma   71.87421856
_symmetry_Int_Tables_number   1
_chemical_formula_structural   TbH8C16NO7
_chemical_formula_sum   'Tb8 H64 C128 N8 O56'
_cell_volume   8036.96344791
_cell_formula_units_Z   8
loop_
 _symmetry_equiv_pos_site_id
 _symmetry_equiv_pos_as_xyz
  1  'x, y, z'
loop_
 _atom_site_type_symbol
 _atom_site_label
 _atom_site_symmetry_multiplicity
 _atom_site_fract_x
 _atom_site_fract_y
 _atom_site_fract_z
 _atom_site_occupancy
  C  C0  1  0.56468000  0.68832000  0.19242000  1
  C  C1  1  0.94542000  0.81168000  0.30758000  1
  C  C2  1  0.15028000  0.10606000  0.60890000  1
  C  C3  1  0.36524000  0.39394000  0.89110000  1
  C  C4  1  0.13208000  0.62568000  0.13216000  1
  C  C5  1  0.38992000  0.87432000  0.36784000  1
  C  C6  1  0.75309000  0.03722000  0.50432000  1
  C  C7  1  0.79463000  0.46278000  0.99568000  1
  C  C8  1  0.19235000  0.58340000  0.08618000  1
  C  C9  1  0.36193000  0.91660000  0.41382000  1
  C  C10  1  0.72843000  0.07588000  0.54706000  1
  C  C11  1  0.85137000  0.42412000  0.95294000  1
  C  C12  1  0.30581000  0.50610000  0.00070000  1
  C  C13  1  0.31261000  0.99390000  0.49930000  1
  C  C14  1  0.69615000  0.63794000  0.11706000  1
  C  C15  1  0.95115000  0.86206000  0.38294000  1
  C  C16  1  0.15602000  0.15642000  0.68426000  1
  C  C17  1  0.49670000  0.34358000  0.81574000  1
  C  C18  1  0.28769000  0.03586000  0.54616000  1
  C  C19  1  0.36971000  0.46414000  0.95384000  1
  C  C20  1  0.66110000  0.67908000  0.15882000  1
  C  C21  1  0.99900000  0.82092000  0.34118000  1
  C  C22  1  0.20386000  0.11530000  0.64250000  1
  C  C23  1  0.46166000  0.38470000  0.85750000  1
  C  C24  1  0.56131000  0.71310000  0.33088000  1
  C  C25  1  0.10529000  0.78690000  0.16912000  1
  C  C26  1  0.62416000  0.16660000  0.77868000  1
  C  C27  1  0.06945667  0.33336667  0.72132000  1
  C  C28  1  0.29278000  0.55230000  0.08256000  1
  C  C29  1  0.42764000  0.94770000  0.41744000  1
  C  C30  1  0.13684000  0.51364000  0.46018000  1
  C  C31  1  0.61066000  0.98636000  0.03982000  1
  C  C32  1  0.34952000  0.51364000  0.03982000  1
  C  C33  1  0.40298000  0.98636000  0.46018000  1
  C  C34  1  0.15492000  0.55230000  0.41744000  1
  C  C35  1  0.62466000  0.94770000  0.08256000  1
  C  C36  1  0.20924000  0.16660000  0.72132000  1
  C  C37  1  0.59717667  0.33336667  0.77868000  1
  C  C38  1  0.72557333  0.71310000  0.16912000  1
  C  C39  1  0.10779333  0.78690000  0.33088000  1
  C  C40  1  0.68084000  0.11530000  0.85750000  1
  C  C41  1  0.15364000  0.38470000  0.64250000  1
  C  C42  1  0.65982000  0.67908000  0.34118000  1
  C  C43  1  0.18008000  0.82092000  0.15882000  1
  C  C44  1  0.67645000  0.03586000  0.95384000  1
  C  C45  1  0.16615000  0.46414000  0.54616000  1
  C  C46  1  0.68756000  0.15642000  0.81574000  1
  C  C47  1  0.15972000  0.34358000  0.68426000  1
  C  C48  1  0.66591000  0.63794000  0.38294000  1
  C  C49  1  0.18679000  0.86206000  0.11706000  1
  C  C50  1  0.18809000  0.50610000  0.49930000  1
  C  C51  1  0.69349000  0.99390000  0.00070000  1
  C  C52  1  0.19569000  0.07588000  0.95294000  1
  C  C53  1  0.72451000  0.42412000  0.54706000  1
  C  C54  1  0.22425000  0.58340000  0.41382000  1
  C  C55  1  0.72147000  0.91660000  0.08618000  1
  C  C56  1  0.20969000  0.03722000  0.99568000  1
  C  C57  1  0.74259000  0.46278000  0.50432000  1
  C  C58  1  0.24224000  0.62568000  0.36784000  1
  C  C59  1  0.73576000  0.87432000  0.13216000  1
  C  C60  1  0.74366000  0.10606000  0.89110000  1
  C  C61  1  0.24082000  0.39394000  0.60890000  1
  C  C62  1  0.74700000  0.68832000  0.30758000  1
  C  C63  1  0.24290000  0.81168000  0.19242000  1
  C  C64  1  0.75710000  0.18832000  0.80758000  1
  C  C65  1  0.25300000  0.31168000  0.69242000  1
  C  C66  1  0.75918000  0.60606000  0.39110000  1
  C  C67  1  0.25634000  0.89394000  0.10890000  1
  C  C68  1  0.26424000  0.12568000  0.86784000  1
  C  C69  1  0.75776000  0.37432000  0.63216000  1
  C  C70  1  0.25741000  0.53722000  0.49568000  1
  C  C71  1  0.79031000  0.96278000  0.00432000  1
  C  C72  1  0.27853000  0.08340000  0.91382000  1
  C  C73  1  0.77575000  0.41660000  0.58618000  1
  C  C74  1  0.27549000  0.57588000  0.45294000  1
  C  C75  1  0.80431000  0.92412000  0.04706000  1
  C  C76  1  0.30651000  0.00610000  0.99930000  1
  C  C77  1  0.81191000  0.49390000  0.50070000  1
  C  C78  1  0.81321000  0.13794000  0.88294000  1
  C  C79  1  0.33409000  0.36206000  0.61706000  1
  C  C80  1  0.84028000  0.65642000  0.31574000  1
  C  C81  1  0.31244000  0.84358000  0.18426000  1
  C  C82  1  0.83385000  0.53586000  0.45384000  1
  C  C83  1  0.32355000  0.96414000  0.04616000  1
  C  C84  1  0.81992000  0.17908000  0.84118000  1
  C  C85  1  0.34018000  0.32092000  0.65882000  1
  C  C86  1  0.84636000  0.61530000  0.35750000  1
  C  C87  1  0.31916000  0.88470000  0.14250000  1
  C  C88  1  0.89220667  0.21310000  0.66912000  1
  C  C89  1  0.27442667  0.28690000  0.83088000  1
  C  C90  1  0.40282333  0.66663333  0.22132000  1
  C  C91  1  0.79076000  0.83340000  0.27868000  1
  C  C92  1  0.37534000  0.05230000  0.91744000  1
  C  C93  1  0.84508000  0.44770000  0.58256000  1
  C  C94  1  0.59702000  0.01364000  0.53982000  1
  C  C95  1  0.65048000  0.48636000  0.96018000  1
  C  C96  1  0.38934000  0.01364000  0.96018000  1
  C  C97  1  0.86316000  0.48636000  0.53982000  1
  C  C98  1  0.57236000  0.05230000  0.58256000  1
  C  C99  1  0.70722000  0.44770000  0.91744000  1
  C  C100  1  0.93054333  0.66663333  0.27868000  1
  C  C101  1  0.37584000  0.83340000  0.22132000  1
  C  C102  1  0.89471000  0.21310000  0.83088000  1
  C  C103  1  0.43869000  0.28690000  0.66912000  1
  C  C104  1  0.53834000  0.61530000  0.14250000  1
  C  C105  1  0.79614000  0.88470000  0.35750000  1
  C  C106  1  0.00100000  0.17908000  0.65882000  1
  C  C107  1  0.33890000  0.32092000  0.84118000  1
  C  C108  1  0.63029000  0.53586000  0.04616000  1
  C  C109  1  0.71231000  0.96414000  0.45384000  1
  C  C110  1  0.50330000  0.65642000  0.18426000  1
  C  C111  1  0.84398000  0.84358000  0.31574000  1
  C  C112  1  0.04885000  0.13794000  0.61706000  1
  C  C113  1  0.30385000  0.36206000  0.88294000  1
  C  C114  1  0.68739000  0.00610000  0.50070000  1
  C  C115  1  0.69419000  0.49390000  0.99930000  1
  C  C116  1  0.14863000  0.57588000  0.04706000  1
  C  C117  1  0.27157000  0.92412000  0.45294000  1
  C  C118  1  0.63807000  0.08340000  0.58618000  1
  C  C119  1  0.80765000  0.41660000  0.91382000  1
  C  C120  1  0.20537000  0.53722000  0.00432000  1
  C  C121  1  0.24691000  0.96278000  0.49568000  1
  C  C122  1  0.61008000  0.12568000  0.63216000  1
  C  C123  1  0.86792000  0.37432000  0.86784000  1
  C  C124  1  0.63476000  0.60606000  0.10890000  1
  C  C125  1  0.84972000  0.89394000  0.39110000  1
  C  C126  1  0.05458000  0.18832000  0.69242000  1
  C  C127  1  0.43532000  0.31168000  0.80758000  1
  H  H128  1  0.54120000  0.71580000  0.22040000  1
  H  H129  1  0.97740000  0.78420000  0.27960000  1
  H  H130  1  0.74540000  0.55640000  0.04960000  1
  H  H131  1  0.85140000  0.94360000  0.45040000  1
  H  H132  1  0.54590000  0.00720000  0.03740000  1
  H  H133  1  0.09050000  0.49280000  0.46260000  1
  H  H134  1  0.81350000  0.03220000  0.47820000  1
  H  H135  1  0.82390000  0.46780000  0.02180000  1
  H  H136  1  0.12060000  0.55740000  0.39120000  1
  H  H137  1  0.56920000  0.94260000  0.10880000  1
  H  H138  1  0.77250000  0.09660000  0.54940000  1
  H  H139  1  0.91850000  0.40340000  0.95060000  1
  H  H140  1  0.63430000  0.09400000  0.86300000  1
  H  H141  1  0.09130000  0.40600000  0.63700000  1
  H  H142  1  0.76060000  0.63180000  0.09460000  1
  H  H143  1  0.98700000  0.86820000  0.40540000  1
  H  H144  1  0.60760000  0.63180000  0.40540000  1
  H  H145  1  0.14480000  0.86820000  0.09460000  1
  H  H146  1  0.27170000  0.09400000  0.63700000  1
  H  H147  1  0.50270000  0.40600000  0.86300000  1
  H  H148  1  0.13090000  0.09660000  0.95060000  1
  H  H149  1  0.67810000  0.40340000  0.54940000  1
  H  H150  1  0.32200000  0.55740000  0.10880000  1
  H  H151  1  0.48820000  0.94260000  0.39120000  1
  H  H152  1  0.15430000  0.03220000  0.02180000  1
  H  H153  1  0.70830000  0.46780000  0.47820000  1
  H  H154  1  0.44690000  0.00720000  0.46260000  1
  H  H155  1  0.41670000  0.49280000  0.03740000  1
  H  H156  1  0.69820000  0.55640000  0.45040000  1
  H  H157  1  0.20500000  0.94360000  0.04960000  1
  H  H158  1  0.74300000  0.71580000  0.27960000  1
  H  H159  1  0.23840000  0.78420000  0.22040000  1
  H  H160  1  0.76160000  0.21580000  0.77960000  1
  H  H161  1  0.25700000  0.28420000  0.72040000  1
  H  H162  1  0.79500000  0.05640000  0.95040000  1
  H  H163  1  0.30180000  0.44360000  0.54960000  1
  H  H164  1  0.58330000  0.50720000  0.96260000  1
  H  H165  1  0.55310000  0.99280000  0.53740000  1
  H  H166  1  0.29170000  0.53220000  0.52180000  1
  H  H167  1  0.84570000  0.96780000  0.97820000  1
  H  H168  1  0.51180000  0.05740000  0.60880000  1
  H  H169  1  0.67800000  0.44260000  0.89120000  1
  H  H170  1  0.32190000  0.59660000  0.45060000  1
  H  H171  1  0.86910000  0.90340000  0.04940000  1
  H  H172  1  0.49730000  0.59400000  0.13700000  1
  H  H173  1  0.72830000  0.90600000  0.36300000  1
  H  H174  1  0.85520000  0.13180000  0.90540000  1
  H  H175  1  0.39240000  0.36820000  0.59460000  1
  H  H176  1  0.01300000  0.13180000  0.59460000  1
  H  H177  1  0.23940000  0.36820000  0.90540000  1
  H  H178  1  0.90870000  0.59400000  0.36300000  1
  H  H179  1  0.36570000  0.90600000  0.13700000  1
  H  H180  1  0.08150000  0.59660000  0.04940000  1
  H  H181  1  0.22750000  0.90340000  0.45060000  1
  H  H182  1  0.43080000  0.05740000  0.89120000  1
  H  H183  1  0.87940000  0.44260000  0.60880000  1
  H  H184  1  0.17610000  0.53220000  0.97820000  1
  H  H185  1  0.18650000  0.96780000  0.52180000  1
  H  H186  1  0.90950000  0.50720000  0.53740000  1
  H  H187  1  0.45410000  0.99280000  0.96260000  1
  H  H188  1  0.14860000  0.05640000  0.54960000  1
  H  H189  1  0.25460000  0.44360000  0.95040000  1
  H  H190  1  0.02260000  0.21580000  0.72040000  1
  H  H191  1  0.45880000  0.28420000  0.77960000  1
  N  N192  1  0.19188000  0.06394000  0.56510000  1
  N  N193  1  0.32092000  0.43606000  0.93490000  1
  N  N194  1  0.74418000  0.06394000  0.93490000  1
  N  N195  1  0.24302000  0.43606000  0.56510000  1
  N  N196  1  0.75698000  0.56394000  0.43490000  1
  N  N197  1  0.25582000  0.93606000  0.06510000  1
  N  N198  1  0.67908000  0.56394000  0.06510000  1
  N  N199  1  0.80812000  0.93606000  0.43490000  1
  O  O200  1  0.53474000  0.16926000  0.78926000  1
  O  O201  1  0.99326000  0.33074000  0.71074000  1
  O  O202  1  0.48329000  0.70238000  0.36104000  1
  O  O203  1  0.04671000  0.79762000  0.13896000  1
  O  O204  1  0.64538000  0.16728000  0.61516000  1
  O  O205  1  0.92782000  0.33272000  0.88484000  1
  O  O206  1  0.14789000  0.61494000  0.17608000  1
  O  O207  1  0.43891000  0.88506000  0.32392000  1
  O  O208  1  0.09823000  0.74586000  0.20068000  1
  O  O209  1  0.54477000  0.75414000  0.29932000  1
  O  O210  1  0.60185000  0.04188000  0.93982000  1
  O  O211  1  0.08355000  0.45812000  0.56018000  1
  O  O212  1  0.14906000  0.17190000  0.76498000  1
  O  O213  1  0.58594000  0.32810000  0.73502000  1
  O  O214  1  0.67904000  0.17190000  0.73502000  1
  O  O215  1  0.08596000  0.32810000  0.76498000  1
  O  O216  1  0.35627000  0.04188000  0.56018000  1
  O  O217  1  0.45833000  0.45812000  0.93982000  1
  O  O218  1  0.15591000  0.74586000  0.29932000  1
  O  O219  1  0.70109000  0.75414000  0.20068000  1
  O  O220  1  0.23717000  0.61494000  0.32392000  1
  O  O221  1  0.67603000  0.88506000  0.17608000  1
  O  O222  1  0.18734000  0.16728000  0.88484000  1
  O  O223  1  0.73946000  0.33272000  0.61516000  1
  O  O224  1  0.81433000  0.70238000  0.13896000  1
  O  O225  1  0.15567000  0.79762000  0.36104000  1
  O  O226  1  0.29600000  0.16926000  0.71074000  1
  O  O227  1  0.67600000  0.33074000  0.78926000  1
  O  O228  1  0.32400000  0.66926000  0.21074000  1
  O  O229  1  0.70400000  0.83074000  0.28926000  1
  O  O230  1  0.84433000  0.20238000  0.63896000  1
  O  O231  1  0.18567000  0.29762000  0.86104000  1
  O  O232  1  0.26054000  0.66728000  0.38484000  1
  O  O233  1  0.81266000  0.83272000  0.11516000  1
  O  O234  1  0.32397000  0.11494000  0.82392000  1
  O  O235  1  0.76283000  0.38506000  0.67608000  1
  O  O236  1  0.29891000  0.24586000  0.79932000  1
  O  O237  1  0.84409000  0.25414000  0.70068000  1
  O  O238  1  0.54167000  0.54188000  0.06018000  1
  O  O239  1  0.64373000  0.95812000  0.43982000  1
  O  O240  1  0.91404000  0.67190000  0.23502000  1
  O  O241  1  0.32096000  0.82810000  0.26498000  1
  O  O242  1  0.41406000  0.67190000  0.26498000  1
  O  O243  1  0.85094000  0.82810000  0.23502000  1
  O  O244  1  0.91645000  0.54188000  0.43982000  1
  O  O245  1  0.39815000  0.95812000  0.06018000  1
  O  O246  1  0.45523000  0.24586000  0.70068000  1
  O  O247  1  0.90177000  0.25414000  0.79932000  1
  O  O248  1  0.56109000  0.11494000  0.67608000  1
  O  O249  1  0.85211000  0.38506000  0.82392000  1
  O  O250  1  0.07218000  0.66728000  0.11516000  1
  O  O251  1  0.35462000  0.83272000  0.38484000  1
  O  O252  1  0.95329000  0.20238000  0.86104000  1
  O  O253  1  0.51671000  0.29762000  0.63896000  1
  O  O254  1  0.00674000  0.66926000  0.28926000  1
  O  O255  1  0.46526000  0.83074000  0.21074000  1
  Tb  Tb256  1  0.66981000  0.25000000  0.66038000  1
  Tb  Tb257  1  0.08019000  0.25000000  0.83962000  1
  Tb  Tb258  1  0.17129000  0.65742000  0.25000000  1
  Tb  Tb259  1  0.57871000  0.84258000  0.25000000  1
  Tb  Tb260  1  0.42129000  0.15742000  0.75000000  1
  Tb  Tb261  1  0.82871000  0.34258000  0.75000000  1
  Tb  Tb262  1  0.91981000  0.75000000  0.16038000  1
  Tb  Tb263  1  0.33019000  0.75000000  0.33962000  1
