# generated using pymatgen
data_DyP2H5C2O7
_symmetry_space_group_name_H-M   'P 1'
_cell_length_a   8.28920000
_cell_length_b   10.25650000
_cell_length_c   10.45950000
_cell_angle_alpha   90.00000000
_cell_angle_beta   90.00000000
_cell_angle_gamma   90.00000000
_symmetry_Int_Tables_number   1
_chemical_formula_structural   DyP2H5C2O7
_chemical_formula_sum   'Dy4 P8 H20 C8 O28'
_cell_volume   889.24765162
_cell_formula_units_Z   4
loop_
 _symmetry_equiv_pos_site_id
 _symmetry_equiv_pos_as_xyz
  1  'x, y, z'
loop_
 _atom_site_type_symbol
 _atom_site_label
 _atom_site_symmetry_multiplicity
 _atom_site_fract_x
 _atom_site_fract_y
 _atom_site_fract_z
 _atom_site_occupancy
  Dy  Dy0  1  0.25000000  0.86000000  0.12022000  1
  Dy  Dy1  1  0.75000000  0.64000000  0.62022000  1
  Dy  Dy2  1  0.25000000  0.36000000  0.37978000  1
  Dy  Dy3  1  0.75000000  0.14000000  0.87978000  1
  P  P4  1  0.93310000  0.83270000  0.87390000  1
  P  P5  1  0.56690000  0.83270000  0.87390000  1
  P  P6  1  0.43310000  0.66730000  0.37390000  1
  P  P7  1  0.06690000  0.66730000  0.37390000  1
  P  P8  1  0.93310000  0.33270000  0.62610000  1
  P  P9  1  0.56690000  0.33270000  0.62610000  1
  P  P10  1  0.43310000  0.16730000  0.12610000  1
  P  P11  1  0.06690000  0.16730000  0.12610000  1
  H  H12  1  0.81680000  0.99340000  0.01710000  1
  H  H13  1  0.68320000  0.99340000  0.01710000  1
  H  H14  1  0.25000000  0.87670000  0.50360000  1
  H  H15  1  0.34780000  0.80290000  0.60530000  1
  H  H16  1  0.15220000  0.80290000  0.60530000  1
  H  H17  1  0.84780000  0.69710000  0.10530000  1
  H  H18  1  0.65220000  0.69710000  0.10530000  1
  H  H19  1  0.75000000  0.62330000  0.00360000  1
  H  H20  1  0.31680000  0.50660000  0.51710000  1
  H  H21  1  0.18320000  0.50660000  0.51710000  1
  H  H22  1  0.81680000  0.49340000  0.48290000  1
  H  H23  1  0.68320000  0.49340000  0.48290000  1
  H  H24  1  0.25000000  0.37670000  0.99640000  1
  H  H25  1  0.34780000  0.30290000  0.89470000  1
  H  H26  1  0.15220000  0.30290000  0.89470000  1
  H  H27  1  0.84780000  0.19710000  0.39470000  1
  H  H28  1  0.65220000  0.19710000  0.39470000  1
  H  H29  1  0.75000000  0.12330000  0.49640000  1
  H  H30  1  0.31680000  0.00660000  0.98290000  1
  H  H31  1  0.18320000  0.00660000  0.98290000  1
  C  C32  1  0.75000000  0.82110000  0.96850000  1
  C  C33  1  0.25000000  0.80000000  0.55600000  1
  C  C34  1  0.75000000  0.70000000  0.05600000  1
  C  C35  1  0.25000000  0.67890000  0.46850000  1
  C  C36  1  0.75000000  0.32110000  0.53150000  1
  C  C37  1  0.25000000  0.30000000  0.94400000  1
  C  C38  1  0.75000000  0.20000000  0.44400000  1
  C  C39  1  0.25000000  0.17890000  0.03150000  1
  O  O40  1  0.93050000  0.97080000  0.81770000  1
  O  O41  1  0.56950000  0.97080000  0.81770000  1
  O  O42  1  0.75000000  0.94240000  0.04610000  1
  O  O43  1  0.42880000  0.81150000  0.96350000  1
  O  O44  1  0.07120000  0.81150000  0.96350000  1
  O  O45  1  0.42510000  0.77090000  0.27010000  1
  O  O46  1  0.07490000  0.77090000  0.27010000  1
  O  O47  1  0.92510000  0.72910000  0.77010000  1
  O  O48  1  0.57490000  0.72910000  0.77010000  1
  O  O49  1  0.92880000  0.68850000  0.46350000  1
  O  O50  1  0.57120000  0.68850000  0.46350000  1
  O  O51  1  0.25000000  0.55760000  0.54610000  1
  O  O52  1  0.43050000  0.52920000  0.31770000  1
  O  O53  1  0.06950000  0.52920000  0.31770000  1
  O  O54  1  0.93050000  0.47080000  0.68230000  1
  O  O55  1  0.56950000  0.47080000  0.68230000  1
  O  O56  1  0.75000000  0.44240000  0.45390000  1
  O  O57  1  0.42880000  0.31150000  0.53650000  1
  O  O58  1  0.07120000  0.31150000  0.53650000  1
  O  O59  1  0.42510000  0.27090000  0.22990000  1
  O  O60  1  0.07490000  0.27090000  0.22990000  1
  O  O61  1  0.92510000  0.22910000  0.72990000  1
  O  O62  1  0.57490000  0.22910000  0.72990000  1
  O  O63  1  0.92880000  0.18850000  0.03650000  1
  O  O64  1  0.57120000  0.18850000  0.03650000  1
  O  O65  1  0.25000000  0.05760000  0.95390000  1
  O  O66  1  0.43050000  0.02920000  0.18230000  1
  O  O67  1  0.06950000  0.02920000  0.18230000  1
