# generated using pymatgen
data_InC24N2O5
_symmetry_space_group_name_H-M   'P 1'
_cell_length_a   7.15200000
_cell_length_b   16.71810000
_cell_length_c   17.09407550
_cell_angle_alpha   90.00000000
_cell_angle_beta   102.07519808
_cell_angle_gamma   90.00000000
_symmetry_Int_Tables_number   1
_chemical_formula_structural   InC24N2O5
_chemical_formula_sum   'In2 C48 N4 O10'
_cell_volume   1998.67826548
_cell_formula_units_Z   2
loop_
 _symmetry_equiv_pos_site_id
 _symmetry_equiv_pos_as_xyz
  1  'x, y, z'
loop_
 _atom_site_type_symbol
 _atom_site_label
 _atom_site_symmetry_multiplicity
 _atom_site_fract_x
 _atom_site_fract_y
 _atom_site_fract_z
 _atom_site_occupancy
  C  C0  1  0.02026000  0.24770000  0.04052000  1
  C  C1  1  0.02026000  0.75230000  0.04052000  1
  C  C2  1  0.03335000  0.32720000  0.06670000  1
  C  C3  1  0.03335000  0.67280000  0.06670000  1
  C  C4  1  0.07071000  0.35790000  0.14142000  1
  C  C5  1  0.07071000  0.64210000  0.14142000  1
  C  C6  1  0.08766000  0.43210000  0.17532000  1
  C  C7  1  0.08766000  0.56790000  0.17532000  1
  C  C8  1  0.10326000  0.29600000  0.20652000  1
  C  C9  1  0.10326000  0.70400000  0.20652000  1
  C  C10  1  0.27819000  0.26080000  0.24078000  1
  C  C11  1  0.27819000  0.73920000  0.24078000  1
  C  C12  1  0.96259000  0.26080000  0.24078000  1
  C  C13  1  0.96259000  0.73920000  0.24078000  1
  C  C14  1  0.12633000  0.45933000  0.25266000  1
  C  C15  1  0.12633000  0.54067000  0.25266000  1
  C  C16  1  0.30631000  0.19944000  0.30002000  1
  C  C17  1  0.30631000  0.80056000  0.30002000  1
  C  C18  1  0.99371000  0.19944000  0.30002000  1
  C  C19  1  0.99371000  0.80056000  0.30002000  1
  C  C20  1  0.16667333  0.16440000  0.33334667  1
  C  C21  1  0.16667333  0.83560000  0.33334667  1
  C  C22  1  0.19840000  0.10230000  0.39680000  1
  C  C23  1  0.19840000  0.89770000  0.39680000  1
  C  C24  1  0.80160000  0.10230000  0.60320000  1
  C  C25  1  0.80160000  0.89770000  0.60320000  1
  C  C26  1  0.83332667  0.16440000  0.66665333  1
  C  C27  1  0.83332667  0.83560000  0.66665333  1
  C  C28  1  0.69369000  0.19944000  0.69998000  1
  C  C29  1  0.69369000  0.80056000  0.69998000  1
  C  C30  1  0.00629000  0.19944000  0.69998000  1
  C  C31  1  0.00629000  0.80056000  0.69998000  1
  C  C32  1  0.87367000  0.45933000  0.74734000  1
  C  C33  1  0.87367000  0.54067000  0.74734000  1
  C  C34  1  0.72181000  0.26080000  0.75922000  1
  C  C35  1  0.72181000  0.73920000  0.75922000  1
  C  C36  1  0.03741000  0.26080000  0.75922000  1
  C  C37  1  0.03741000  0.73920000  0.75922000  1
  C  C38  1  0.89674000  0.29600000  0.79348000  1
  C  C39  1  0.89674000  0.70400000  0.79348000  1
  C  C40  1  0.91234000  0.43210000  0.82468000  1
  C  C41  1  0.91234000  0.56790000  0.82468000  1
  C  C42  1  0.92929000  0.35790000  0.85858000  1
  C  C43  1  0.92929000  0.64210000  0.85858000  1
  C  C44  1  0.96665000  0.32720000  0.93330000  1
  C  C45  1  0.96665000  0.67280000  0.93330000  1
  C  C46  1  0.97974000  0.24770000  0.95948000  1
  C  C47  1  0.97974000  0.75230000  0.95948000  1
  In  In48  1  0.50000000  1.00000000  0.50000000  1
  In  In49  1  1.00000000  0.00000000  0.50000000  1
  N  N50  1  0.00000000  0.37880000  0.00000000  1
  N  N51  1  0.00000000  0.62120000  0.00000000  1
  N  N52  1  0.06100000  0.50000000  0.12200000  1
  N  N53  1  0.93900000  0.50000000  0.87800000  1
  O  O54  1  0.37309000  0.09160000  0.42078000  1
  O  O55  1  0.37309000  0.90840000  0.42078000  1
  O  O56  1  0.04769000  0.09160000  0.42078000  1
  O  O57  1  0.04769000  0.90840000  0.42078000  1
  O  O58  1  0.73080000  0.00000000  0.46160000  1
  O  O59  1  0.26920000  0.00000000  0.53840000  1
  O  O60  1  0.62691000  0.09160000  0.57922000  1
  O  O61  1  0.62691000  0.90840000  0.57922000  1
  O  O62  1  0.95231000  0.09160000  0.57922000  1
  O  O63  1  0.95231000  0.90840000  0.57922000  1
