# generated using pymatgen
data_Co2H39C63(N2O)6
_symmetry_space_group_name_H-M   'P 1'
_cell_length_a   14.08200000
_cell_length_b   16.90100000
_cell_length_c   16.90100000
_cell_angle_alpha   120.00000000
_cell_angle_beta   90.00000000
_cell_angle_gamma   90.00000000
_symmetry_Int_Tables_number   1
_chemical_formula_structural   Co2H39C63(N2O)6
_chemical_formula_sum   'Co4 H78 C126 N24 O12'
_cell_volume   3483.53176602
_cell_formula_units_Z   2
loop_
 _symmetry_equiv_pos_site_id
 _symmetry_equiv_pos_as_xyz
  1  'x, y, z'
loop_
 _atom_site_type_symbol
 _atom_site_label
 _atom_site_symmetry_multiplicity
 _atom_site_fract_x
 _atom_site_fract_y
 _atom_site_fract_z
 _atom_site_occupancy
  Co  Co0  1  0.39621000  0.66666667  0.33333333  1
  Co  Co1  1  0.10379000  0.66666667  0.33333333  1
  Co  Co2  1  0.89621000  0.33333333  0.66666667  1
  Co  Co3  1  0.60379000  0.33333333  0.66666667  1
  H  H4  1  0.54840000  0.98460000  0.22860000  1
  H  H5  1  0.95160000  0.98460000  0.75600000  1
  H  H6  1  0.42720000  0.97950000  0.32050000  1
  H  H7  1  0.07280000  0.97950000  0.65900000  1
  H  H8  1  0.38350000  0.93550000  0.42750000  1
  H  H9  1  0.11650000  0.93550000  0.50800000  1
  H  H10  1  0.15650000  0.89520000  0.18140000  1
  H  H11  1  0.34350000  0.89520000  0.71380000  1
  H  H12  1  0.75000000  0.82770000  0.41385000  1
  H  H13  1  0.34350000  0.81860000  0.10480000  1
  H  H14  1  0.15650000  0.81860000  0.71380000  1
  H  H15  1  0.35090000  0.78410000  0.22010000  1
  H  H16  1  0.14910000  0.78410000  0.56400000  1
  H  H17  1  0.58530000  0.78300000  0.36400000  1
  H  H18  1  0.91470000  0.78300000  0.41900000  1
  H  H19  1  0.14910000  0.77990000  0.21590000  1
  H  H20  1  0.35090000  0.77990000  0.56400000  1
  H  H21  1  0.95160000  0.77140000  0.01540000  1
  H  H22  1  0.54840000  0.77140000  0.75600000  1
  H  H23  1  0.04840000  0.75600000  0.77140000  1
  H  H24  1  0.45160000  0.75600000  0.98460000  1
  H  H25  1  0.65650000  0.71380000  0.81860000  1
  H  H26  1  0.84350000  0.71380000  0.89520000  1
  H  H27  1  0.07280000  0.67950000  0.02050000  1
  H  H28  1  0.42720000  0.67950000  0.65900000  1
  H  H29  1  0.92720000  0.65900000  0.67950000  1
  H  H30  1  0.57280000  0.65900000  0.97950000  1
  H  H31  1  0.91470000  0.63600000  0.21700000  1
  H  H32  1  0.58530000  0.63600000  0.41900000  1
  H  H33  1  0.75000000  0.58615000  0.17230000  1
  H  H34  1  0.75000000  0.58615000  0.41385000  1
  H  H35  1  0.58530000  0.58100000  0.21700000  1
  H  H36  1  0.91470000  0.58100000  0.36400000  1
  H  H37  1  0.11650000  0.57250000  0.06450000  1
  H  H38  1  0.38350000  0.57250000  0.50800000  1
  H  H39  1  0.85090000  0.56400000  0.77990000  1
  H  H40  1  0.64910000  0.56400000  0.78410000  1
  H  H41  1  0.88350000  0.50800000  0.57250000  1
  H  H42  1  0.61650000  0.50800000  0.93550000  1
  H  H43  1  0.38350000  0.49200000  0.06450000  1
  H  H44  1  0.11650000  0.49200000  0.42750000  1
  H  H45  1  0.35090000  0.43600000  0.21590000  1
  H  H46  1  0.14910000  0.43600000  0.22010000  1
  H  H47  1  0.61650000  0.42750000  0.49200000  1
  H  H48  1  0.88350000  0.42750000  0.93550000  1
  H  H49  1  0.08530000  0.41900000  0.63600000  1
  H  H50  1  0.41470000  0.41900000  0.78300000  1
  H  H51  1  0.25000000  0.41385000  0.58615000  1
  H  H52  1  0.25000000  0.41385000  0.82770000  1
  H  H53  1  0.41470000  0.36400000  0.58100000  1
  H  H54  1  0.08530000  0.36400000  0.78300000  1
  H  H55  1  0.42720000  0.34100000  0.02050000  1
  H  H56  1  0.07280000  0.34100000  0.32050000  1
  H  H57  1  0.57280000  0.32050000  0.34100000  1
  H  H58  1  0.92720000  0.32050000  0.97950000  1
  H  H59  1  0.15650000  0.28620000  0.10480000  1
  H  H60  1  0.34350000  0.28620000  0.18140000  1
  H  H61  1  0.54840000  0.24400000  0.01540000  1
  H  H62  1  0.95160000  0.24400000  0.22860000  1
  H  H63  1  0.45160000  0.22860000  0.24400000  1
  H  H64  1  0.04840000  0.22860000  0.98460000  1
  H  H65  1  0.64910000  0.22010000  0.43600000  1
  H  H66  1  0.85090000  0.22010000  0.78410000  1
  H  H67  1  0.08530000  0.21700000  0.58100000  1
  H  H68  1  0.41470000  0.21700000  0.63600000  1
  H  H69  1  0.85090000  0.21590000  0.43600000  1
  H  H70  1  0.64910000  0.21590000  0.77990000  1
  H  H71  1  0.84350000  0.18140000  0.28620000  1
  H  H72  1  0.65650000  0.18140000  0.89520000  1
  H  H73  1  0.25000000  0.17230000  0.58615000  1
  H  H74  1  0.65650000  0.10480000  0.28620000  1
  H  H75  1  0.84350000  0.10480000  0.81860000  1
  H  H76  1  0.88350000  0.06450000  0.49200000  1
  H  H77  1  0.61650000  0.06450000  0.57250000  1
  H  H78  1  0.92720000  0.02050000  0.34100000  1
  H  H79  1  0.57280000  0.02050000  0.67950000  1
  H  H80  1  0.04840000  0.01540000  0.24400000  1
  H  H81  1  0.45160000  0.01540000  0.77140000  1
  C  C82  1  0.97190000  0.97360000  0.31730000  1
  C  C83  1  0.52810000  0.97360000  0.65630000  1
  C  C84  1  0.04370000  0.96930000  0.25870000  1
  C  C85  1  0.45630000  0.96930000  0.71060000  1
  C  C86  1  0.32960000  0.96720000  0.45920000  1
  C  C87  1  0.17040000  0.96720000  0.50800000  1
  C  C88  1  0.82930000  0.93850000  0.44410000  1
  C  C89  1  0.67070000  0.93850000  0.49440000  1
  C  C90  1  0.25000000  0.92000000  0.46000000  1
  C  C91  1  0.97070000  0.90520000  0.33800000  1
  C  C92  1  0.52930000  0.90520000  0.56720000  1
  C  C93  1  0.10960000  0.89640000  0.22080000  1
  C  C94  1  0.39040000  0.89640000  0.67560000  1
  C  C95  1  0.75000000  0.89130000  0.44565000  1
  C  C96  1  0.03450000  0.83220000  0.30060000  1
  C  C97  1  0.46550000  0.83220000  0.53160000  1
  C  C98  1  0.10580000  0.82790000  0.24100000  1
  C  C99  1  0.39420000  0.82790000  0.58690000  1
  C  C100  1  0.25000000  0.81690000  0.40845000  1
  C  C101  1  0.94290000  0.80930000  0.38780000  1
  C  C102  1  0.55710000  0.80930000  0.42150000  1
  C  C103  1  0.39040000  0.77920000  0.10360000  1
  C  C104  1  0.10960000  0.77920000  0.67560000  1
  C  C105  1  0.39420000  0.75900000  0.17210000  1
  C  C106  1  0.10580000  0.75900000  0.58690000  1
  C  C107  1  0.45630000  0.74130000  0.03070000  1
  C  C108  1  0.04370000  0.74130000  0.71060000  1
  C  C109  1  0.54370000  0.71060000  0.74130000  1
  C  C110  1  0.95630000  0.71060000  0.96930000  1
  C  C111  1  0.46550000  0.69940000  0.16780000  1
  C  C112  1  0.03450000  0.69940000  0.53160000  1
  C  C113  1  0.52810000  0.68270000  0.02640000  1
  C  C114  1  0.97190000  0.68270000  0.65630000  1
  C  C115  1  0.60960000  0.67560000  0.77920000  1
  C  C116  1  0.89040000  0.67560000  0.89640000  1
  C  C117  1  0.52930000  0.66200000  0.09480000  1
  C  C118  1  0.97070000  0.66200000  0.56720000  1
  C  C119  1  0.47190000  0.65630000  0.68270000  1
  C  C120  1  0.02810000  0.65630000  0.97360000  1
  C  C121  1  0.55710000  0.61220000  0.19070000  1
  C  C122  1  0.94290000  0.61220000  0.42150000  1
  C  C123  1  0.25000000  0.59155000  0.18310000  1
  C  C124  1  0.25000000  0.59155000  0.40845000  1
  C  C125  1  0.60580000  0.58690000  0.75900000  1
  C  C126  1  0.89420000  0.58690000  0.82790000  1
  C  C127  1  0.94290000  0.57850000  0.19070000  1
  C  C128  1  0.55710000  0.57850000  0.38780000  1
  C  C129  1  0.47070000  0.56720000  0.66200000  1
  C  C130  1  0.02930000  0.56720000  0.90520000  1
  C  C131  1  0.67070000  0.55590000  0.06150000  1
  C  C132  1  0.82930000  0.55590000  0.49440000  1
  C  C133  1  0.75000000  0.55435000  0.10870000  1
  C  C134  1  0.75000000  0.55435000  0.44565000  1
  C  C135  1  0.17040000  0.54080000  0.03280000  1
  C  C136  1  0.32960000  0.54080000  0.50800000  1
  C  C137  1  0.25000000  0.54000000  0.08000000  1
  C  C138  1  0.25000000  0.54000000  0.46000000  1
  C  C139  1  0.53450000  0.53160000  0.69940000  1
  C  C140  1  0.96550000  0.53160000  0.83220000  1
  C  C141  1  0.82960000  0.50800000  0.54080000  1
  C  C142  1  0.67040000  0.50800000  0.96720000  1
  C  C143  1  0.82930000  0.50560000  0.06150000  1
  C  C144  1  0.67070000  0.50560000  0.44410000  1
  C  C145  1  0.32930000  0.49440000  0.55590000  1
  C  C146  1  0.17070000  0.49440000  0.93850000  1
  C  C147  1  0.32960000  0.49200000  0.03280000  1
  C  C148  1  0.17040000  0.49200000  0.45920000  1
  C  C149  1  0.03450000  0.46840000  0.16780000  1
  C  C150  1  0.46550000  0.46840000  0.30060000  1
  C  C151  1  0.75000000  0.46000000  0.54000000  1
  C  C152  1  0.75000000  0.46000000  0.92000000  1
  C  C153  1  0.67040000  0.45920000  0.49200000  1
  C  C154  1  0.82960000  0.45920000  0.96720000  1
  C  C155  1  0.25000000  0.44565000  0.55435000  1
  C  C156  1  0.25000000  0.44565000  0.89130000  1
  C  C157  1  0.17070000  0.44410000  0.50560000  1
  C  C158  1  0.32930000  0.44410000  0.93850000  1
  C  C159  1  0.97070000  0.43280000  0.09480000  1
  C  C160  1  0.52930000  0.43280000  0.33800000  1
  C  C161  1  0.44290000  0.42150000  0.61220000  1
  C  C162  1  0.05710000  0.42150000  0.80930000  1
  C  C163  1  0.10580000  0.41310000  0.17210000  1
  C  C164  1  0.39420000  0.41310000  0.24100000  1
  C  C165  1  0.75000000  0.40845000  0.59155000  1
  C  C166  1  0.75000000  0.40845000  0.81690000  1
  C  C167  1  0.05710000  0.38780000  0.57850000  1
  C  C168  1  0.44290000  0.38780000  0.80930000  1
  C  C169  1  0.97190000  0.34370000  0.02640000  1
  C  C170  1  0.52810000  0.34370000  0.31730000  1
  C  C171  1  0.02930000  0.33800000  0.43280000  1
  C  C172  1  0.47070000  0.33800000  0.90520000  1
  C  C173  1  0.10960000  0.32440000  0.10360000  1
  C  C174  1  0.39040000  0.32440000  0.22080000  1
  C  C175  1  0.02810000  0.31730000  0.34370000  1
  C  C176  1  0.47190000  0.31730000  0.97360000  1
  C  C177  1  0.96550000  0.30060000  0.46840000  1
  C  C178  1  0.53450000  0.30060000  0.83220000  1
  C  C179  1  0.04370000  0.28940000  0.03070000  1
  C  C180  1  0.45630000  0.28940000  0.25870000  1
  C  C181  1  0.95630000  0.25870000  0.28940000  1
  C  C182  1  0.54370000  0.25870000  0.96930000  1
  C  C183  1  0.89420000  0.24100000  0.41310000  1
  C  C184  1  0.60580000  0.24100000  0.82790000  1
  C  C185  1  0.89040000  0.22080000  0.32440000  1
  C  C186  1  0.60960000  0.22080000  0.89640000  1
  C  C187  1  0.44290000  0.19070000  0.57850000  1
  C  C188  1  0.05710000  0.19070000  0.61220000  1
  C  C189  1  0.75000000  0.18310000  0.59155000  1
  C  C190  1  0.60580000  0.17210000  0.41310000  1
  C  C191  1  0.89420000  0.17210000  0.75900000  1
  C  C192  1  0.53450000  0.16780000  0.46840000  1
  C  C193  1  0.96550000  0.16780000  0.69940000  1
  C  C194  1  0.25000000  0.10870000  0.55435000  1
  C  C195  1  0.60960000  0.10360000  0.32440000  1
  C  C196  1  0.89040000  0.10360000  0.77920000  1
  C  C197  1  0.47070000  0.09480000  0.43280000  1
  C  C198  1  0.02930000  0.09480000  0.66200000  1
  C  C199  1  0.75000000  0.08000000  0.54000000  1
  C  C200  1  0.32930000  0.06150000  0.50560000  1
  C  C201  1  0.17070000  0.06150000  0.55590000  1
  C  C202  1  0.82960000  0.03280000  0.49200000  1
  C  C203  1  0.67040000  0.03280000  0.54080000  1
  C  C204  1  0.54370000  0.03070000  0.28940000  1
  C  C205  1  0.95630000  0.03070000  0.74130000  1
  C  C206  1  0.47190000  0.02640000  0.34370000  1
  C  C207  1  0.02810000  0.02640000  0.68270000  1
  N  N208  1  0.91160000  0.88860000  0.39530000  1
  N  N209  1  0.58840000  0.88860000  0.49330000  1
  N  N210  1  0.01600000  0.77250000  0.33310000  1
  N  N211  1  0.48400000  0.77250000  0.43940000  1
  N  N212  1  0.48400000  0.66690000  0.22750000  1
  N  N213  1  0.01600000  0.66690000  0.43940000  1
  N  N214  1  0.58840000  0.60470000  0.11140000  1
  N  N215  1  0.91160000  0.60470000  0.49330000  1
  N  N216  1  0.01600000  0.56060000  0.22750000  1
  N  N217  1  0.48400000  0.56060000  0.33310000  1
  N  N218  1  0.91160000  0.50670000  0.11140000  1
  N  N219  1  0.58840000  0.50670000  0.39530000  1
  N  N220  1  0.41160000  0.49330000  0.60470000  1
  N  N221  1  0.08840000  0.49330000  0.88860000  1
  N  N222  1  0.51600000  0.43940000  0.66690000  1
  N  N223  1  0.98400000  0.43940000  0.77250000  1
  N  N224  1  0.08840000  0.39530000  0.50670000  1
  N  N225  1  0.41160000  0.39530000  0.88860000  1
  N  N226  1  0.98400000  0.33310000  0.56060000  1
  N  N227  1  0.51600000  0.33310000  0.77250000  1
  N  N228  1  0.51600000  0.22750000  0.56060000  1
  N  N229  1  0.98400000  0.22750000  0.66690000  1
  N  N230  1  0.41160000  0.11140000  0.50670000  1
  N  N231  1  0.08840000  0.11140000  0.60470000  1
  O  O232  1  0.31840000  0.77900000  0.35450000  1
  O  O233  1  0.18160000  0.77900000  0.42450000  1
  O  O234  1  0.18160000  0.64550000  0.22100000  1
  O  O235  1  0.31840000  0.64550000  0.42450000  1
  O  O236  1  0.31840000  0.57550000  0.22100000  1
  O  O237  1  0.18160000  0.57550000  0.35450000  1
  O  O238  1  0.81840000  0.42450000  0.64550000  1
  O  O239  1  0.68160000  0.42450000  0.77900000  1
  O  O240  1  0.68160000  0.35450000  0.57550000  1
  O  O241  1  0.81840000  0.35450000  0.77900000  1
  O  O242  1  0.81840000  0.22100000  0.57550000  1
  O  O243  1  0.68160000  0.22100000  0.64550000  1
