# generated using pymatgen
data_AlPO4
_symmetry_space_group_name_H-M   'P 1'
_cell_length_a   8.34460000
_cell_length_b   14.79530000
_cell_length_c   16.10348496
_cell_angle_alpha   117.34723177
_cell_angle_beta   105.01624995
_cell_angle_gamma   90.00000000
_symmetry_Int_Tables_number   1
_chemical_formula_structural   AlPO4
_chemical_formula_sum   'Al16 P16 O64'
_cell_volume   1689.15445346
_cell_formula_units_Z   16
loop_
 _symmetry_equiv_pos_site_id
 _symmetry_equiv_pos_as_xyz
  1  'x, y, z'
loop_
 _atom_site_type_symbol
 _atom_site_label
 _atom_site_symmetry_multiplicity
 _atom_site_fract_x
 _atom_site_fract_y
 _atom_site_fract_z
 _atom_site_occupancy
  Al  Al0  1  0.83248000  0.14788000  0.10956000  1
  Al  Al1  1  0.22292000  0.03832000  0.89044000  1
  Al  Al2  1  0.00812000  0.31362000  0.44064000  1
  Al  Al3  1  0.06748000  0.87298000  0.55936000  1
  Al  Al4  1  0.61004000  0.42634000  0.65248000  1
  Al  Al5  1  0.45756000  0.77386000  0.34752000  1
  Al  Al6  1  0.41741000  0.36281000  0.26722000  1
  Al  Al7  1  0.65019000  0.09559000  0.73278000  1
  Al  Al8  1  0.15019000  0.63719000  0.73278000  1
  Al  Al9  1  0.91741000  0.90441000  0.26722000  1
  Al  Al10  1  0.95756000  0.57366000  0.34752000  1
  Al  Al11  1  0.11004000  0.22614000  0.65248000  1
  Al  Al12  1  0.56748000  0.68638000  0.55936000  1
  Al  Al13  1  0.50812000  0.12702000  0.44064000  1
  Al  Al14  1  0.72292000  0.85212000  0.89044000  1
  Al  Al15  1  0.33248000  0.96168000  0.10956000  1
  O  O16  1  0.55550000  0.34810000  0.69540000  1
  O  O17  1  0.36010000  0.65270000  0.30460000  1
  O  O18  1  0.42627000  0.20577000  0.39394000  1
  O  O19  1  0.53233000  0.81183000  0.60606000  1
  O  O20  1  0.29425000  0.08575000  0.14330000  1
  O  O21  1  0.65095000  0.94245000  0.85670000  1
  O  O22  1  0.02865000  0.13965000  0.09750000  1
  O  O23  1  0.43115000  0.04215000  0.90250000  1
  O  O24  1  0.20840000  0.31950000  0.43860000  1
  O  O25  1  0.26980000  0.88090000  0.56140000  1
  O  O26  1  0.81839000  0.43569000  0.66598000  1
  O  O27  1  0.65241000  0.76971000  0.33402000  1
  O  O28  1  0.00045000  0.38555000  0.55730000  1
  O  O29  1  0.94315000  0.82825000  0.44270000  1
  O  O30  1  0.50638000  0.38108000  0.53276000  1
  O  O31  1  0.47362000  0.84832000  0.46724000  1
  O  O32  1  0.20861000  0.12281000  0.00182000  1
  O  O33  1  0.70679000  0.12099000  0.99818000  1
  O  O34  1  0.10830000  0.52500000  0.73020000  1
  O  O35  1  0.87810000  0.79480000  0.26980000  1
  O  O36  1  0.83700000  0.27050000  0.19440000  1
  O  O37  1  0.14260000  0.07610000  0.80560000  1
  O  O38  1  0.40304000  0.36034000  0.36928000  1
  O  O39  1  0.53376000  0.99106000  0.63072000  1
  O  O40  1  0.88719000  0.36459000  0.37418000  1
  O  O41  1  0.01301000  0.99041000  0.62582000  1
  O  O42  1  0.56505000  0.54415000  0.72530000  1
  O  O43  1  0.33975000  0.81885000  0.27470000  1
  O  O44  1  0.27673000  0.26683000  0.16766000  1
  O  O45  1  0.60907000  0.09917000  0.83234000  1
  O  O46  1  0.61060000  0.34050000  0.25640000  1
  O  O47  1  0.85420000  0.08410000  0.74360000  1
  O  O48  1  0.35420000  0.65950000  0.74360000  1
  O  O49  1  0.11060000  0.91590000  0.25640000  1
  O  O50  1  0.10907000  0.73317000  0.83234000  1
  O  O51  1  0.77673000  0.90083000  0.16766000  1
  O  O52  1  0.83975000  0.45585000  0.27470000  1
  O  O53  1  0.06505000  0.18115000  0.72530000  1
  O  O54  1  0.51301000  0.63541000  0.62582000  1
  O  O55  1  0.38719000  0.00959000  0.37418000  1
  O  O56  1  0.03376000  0.63966000  0.63072000  1
  O  O57  1  0.90304000  0.00894000  0.36928000  1
  O  O58  1  0.64260000  0.72950000  0.80560000  1
  O  O59  1  0.33700000  0.92390000  0.19440000  1
  O  O60  1  0.37810000  0.47500000  0.26980000  1
  O  O61  1  0.60830000  0.20520000  0.73020000  1
  O  O62  1  0.20679000  0.87719000  0.99818000  1
  O  O63  1  0.70861000  0.87901000  0.00182000  1
  O  O64  1  0.97362000  0.61892000  0.46724000  1
  O  O65  1  0.00638000  0.15168000  0.53276000  1
  O  O66  1  0.44315000  0.61445000  0.44270000  1
  O  O67  1  0.50045000  0.17175000  0.55730000  1
  O  O68  1  0.15241000  0.56431000  0.33402000  1
  O  O69  1  0.31839000  0.23029000  0.66598000  1
  O  O70  1  0.76980000  0.68050000  0.56140000  1
  O  O71  1  0.70840000  0.11910000  0.43860000  1
  O  O72  1  0.93115000  0.86035000  0.90250000  1
  O  O73  1  0.52865000  0.95785000  0.09750000  1
  O  O74  1  0.15095000  0.91425000  0.85670000  1
  O  O75  1  0.79425000  0.05755000  0.14330000  1
  O  O76  1  0.03233000  0.79423000  0.60606000  1
  O  O77  1  0.92627000  0.18817000  0.39394000  1
  O  O78  1  0.86010000  0.65190000  0.30460000  1
  O  O79  1  0.05550000  0.34730000  0.69540000  1
  P  P80  1  0.99312000  0.42412000  0.66004000  1
  P  P81  1  0.83308000  0.76408000  0.33996000  1
  P  P82  1  0.38376000  0.31446000  0.43352000  1
  P  P83  1  0.45024000  0.88094000  0.56648000  1
  P  P84  1  0.20859000  0.15449000  0.10458000  1
  P  P85  1  0.60401000  0.04991000  0.89542000  1
  P  P86  1  0.79519000  0.35899000  0.27778000  1
  P  P87  1  0.01741000  0.08121000  0.72222000  1
  P  P88  1  0.51741000  0.64101000  0.72222000  1
  P  P89  1  0.29519000  0.91879000  0.27778000  1
  P  P90  1  0.10401000  0.84551000  0.89542000  1
  P  P91  1  0.70859000  0.95009000  0.10458000  1
  P  P92  1  0.95024000  0.68554000  0.56648000  1
  P  P93  1  0.88376000  0.11906000  0.43352000  1
  P  P94  1  0.33308000  0.57588000  0.33996000  1
  P  P95  1  0.49312000  0.23592000  0.66004000  1
