# generated using pymatgen
data_AlPO4
_symmetry_space_group_name_H-M   'P 1'
_cell_length_a   9.45370000
_cell_length_b   18.77320000
_cell_length_c   18.77320000
_cell_angle_alpha   90.00000000
_cell_angle_beta   90.00000000
_cell_angle_gamma   90.00000000
_symmetry_Int_Tables_number   1
_chemical_formula_structural   AlPO4
_chemical_formula_sum   'Al24 P24 O96'
_cell_volume   3331.79621361
_cell_formula_units_Z   24
loop_
 _symmetry_equiv_pos_site_id
 _symmetry_equiv_pos_as_xyz
  1  'x, y, z'
loop_
 _atom_site_type_symbol
 _atom_site_label
 _atom_site_symmetry_multiplicity
 _atom_site_fract_x
 _atom_site_fract_y
 _atom_site_fract_z
 _atom_site_occupancy
  Al  Al0  1  0.15780000  0.04423000  0.16401000  1
  Al  Al1  1  0.66420000  0.05070000  0.56519000  1
  Al  Al2  1  0.08090000  0.06412000  0.66568000  1
  Al  Al3  1  0.33580000  0.06519000  0.94930000  1
  Al  Al4  1  0.15780000  0.16401000  0.45577000  1
  Al  Al5  1  0.91910000  0.16568000  0.93588000  1
  Al  Al6  1  0.91910000  0.33432000  0.56412000  1
  Al  Al7  1  0.15780000  0.33599000  0.04423000  1
  Al  Al8  1  0.33580000  0.43481000  0.55070000  1
  Al  Al9  1  0.08090000  0.43588000  0.83432000  1
  Al  Al10  1  0.66420000  0.44930000  0.93481000  1
  Al  Al11  1  0.15780000  0.45577000  0.33599000  1
  Al  Al12  1  0.84220000  0.54423000  0.66401000  1
  Al  Al13  1  0.33580000  0.55070000  0.06519000  1
  Al  Al14  1  0.91910000  0.56412000  0.16568000  1
  Al  Al15  1  0.66420000  0.56519000  0.44930000  1
  Al  Al16  1  0.84220000  0.66401000  0.95577000  1
  Al  Al17  1  0.08090000  0.66568000  0.43588000  1
  Al  Al18  1  0.08090000  0.83432000  0.06412000  1
  Al  Al19  1  0.84220000  0.83599000  0.54423000  1
  Al  Al20  1  0.66420000  0.93481000  0.05070000  1
  Al  Al21  1  0.91910000  0.93588000  0.33432000  1
  Al  Al22  1  0.33580000  0.94930000  0.43481000  1
  Al  Al23  1  0.84220000  0.95577000  0.83599000  1
  P  P24  1  0.16220000  0.05021000  0.33315000  1
  P  P25  1  0.66370000  0.05768000  0.93587000  1
  P  P26  1  0.33630000  0.06413000  0.55768000  1
  P  P27  1  0.09420000  0.06624000  0.83420000  1
  P  P28  1  0.90580000  0.16580000  0.56624000  1
  P  P29  1  0.16220000  0.16685000  0.05021000  1
  P  P30  1  0.16220000  0.33315000  0.44979000  1
  P  P31  1  0.90580000  0.33420000  0.93376000  1
  P  P32  1  0.09420000  0.43376000  0.66580000  1
  P  P33  1  0.33630000  0.43587000  0.94232000  1
  P  P34  1  0.66370000  0.44232000  0.56413000  1
  P  P35  1  0.16220000  0.44979000  0.16685000  1
  P  P36  1  0.83780000  0.55021000  0.83315000  1
  P  P37  1  0.33630000  0.55768000  0.43587000  1
  P  P38  1  0.66370000  0.56413000  0.05768000  1
  P  P39  1  0.90580000  0.56624000  0.33420000  1
  P  P40  1  0.09420000  0.66580000  0.06624000  1
  P  P41  1  0.83780000  0.66685000  0.55021000  1
  P  P42  1  0.83780000  0.83315000  0.94979000  1
  P  P43  1  0.09420000  0.83420000  0.43376000  1
  P  P44  1  0.90580000  0.93376000  0.16580000  1
  P  P45  1  0.66370000  0.93587000  0.44232000  1
  P  P46  1  0.33630000  0.94232000  0.06413000  1
  P  P47  1  0.83780000  0.94979000  0.66685000  1
  O  O48  1  0.98730000  0.00210000  0.15510000  1
  O  O49  1  0.27750000  0.00260000  0.36410000  1
  O  O50  1  0.67610000  0.00500000  0.48380000  1
  O  O51  1  0.70970000  0.01280000  0.87270000  1
  O  O52  1  0.01890000  0.01510000  0.34330000  1
  O  O53  1  0.67610000  0.01620000  0.00500000  1
  O  O54  1  0.24630000  0.05740000  0.62430000  1
  O  O55  1  0.23630000  0.05990000  0.87030000  1
  O  O56  1  0.19320000  0.06240000  0.25580000  1
  O  O57  1  0.48780000  0.07540000  0.58070000  1
  O  O58  1  0.12070000  0.07950000  0.75560000  1
  O  O59  1  0.51220000  0.08070000  0.92460000  1
  O  O60  1  0.15980000  0.12210000  0.37080000  1
  O  O61  1  0.75370000  0.12430000  0.94260000  1
  O  O62  1  0.29030000  0.12730000  0.51280000  1
  O  O63  1  0.15980000  0.12920000  0.12210000  1
  O  O64  1  0.76370000  0.12970000  0.55990000  1
  O  O65  1  0.01460000  0.12970000  0.86300000  1
  O  O66  1  0.27750000  0.13590000  0.00260000  1
  O  O67  1  0.98540000  0.13700000  0.62970000  1
  O  O68  1  0.98730000  0.15510000  0.49790000  1
  O  O69  1  0.01890000  0.15670000  0.01510000  1
  O  O70  1  0.19320000  0.24420000  0.06240000  1
  O  O71  1  0.87930000  0.24440000  0.57950000  1
  O  O72  1  0.87930000  0.25560000  0.92050000  1
  O  O73  1  0.19320000  0.25580000  0.43760000  1
  O  O74  1  0.01890000  0.34330000  0.48490000  1
  O  O75  1  0.98730000  0.34490000  0.00210000  1
  O  O76  1  0.98540000  0.36300000  0.87030000  1
  O  O77  1  0.27750000  0.36410000  0.49740000  1
  O  O78  1  0.01460000  0.37030000  0.63700000  1
  O  O79  1  0.76370000  0.37030000  0.94010000  1
  O  O80  1  0.15980000  0.37080000  0.37790000  1
  O  O81  1  0.29030000  0.37270000  0.98720000  1
  O  O82  1  0.75370000  0.37570000  0.55740000  1
  O  O83  1  0.15980000  0.37790000  0.12920000  1
  O  O84  1  0.51220000  0.41930000  0.57540000  1
  O  O85  1  0.12070000  0.42050000  0.74440000  1
  O  O86  1  0.48780000  0.42460000  0.91930000  1
  O  O87  1  0.19320000  0.43760000  0.24420000  1
  O  O88  1  0.23630000  0.44010000  0.62970000  1
  O  O89  1  0.24630000  0.44260000  0.87570000  1
  O  O90  1  0.67610000  0.48380000  0.49500000  1
  O  O91  1  0.01890000  0.48490000  0.15670000  1
  O  O92  1  0.70970000  0.48720000  0.62730000  1
  O  O93  1  0.67610000  0.49500000  0.01620000  1
  O  O94  1  0.27750000  0.49740000  0.13590000  1
  O  O95  1  0.98730000  0.49790000  0.34490000  1
  O  O96  1  0.01270000  0.50210000  0.65510000  1
  O  O97  1  0.72250000  0.50260000  0.86410000  1
  O  O98  1  0.32390000  0.50500000  0.98380000  1
  O  O99  1  0.29030000  0.51280000  0.37270000  1
  O  O100  1  0.98110000  0.51510000  0.84330000  1
  O  O101  1  0.32390000  0.51620000  0.50500000  1
  O  O102  1  0.75370000  0.55740000  0.12430000  1
  O  O103  1  0.76370000  0.55990000  0.37030000  1
  O  O104  1  0.80680000  0.56240000  0.75580000  1
  O  O105  1  0.51220000  0.57540000  0.08070000  1
  O  O106  1  0.87930000  0.57950000  0.25560000  1
  O  O107  1  0.48780000  0.58070000  0.42460000  1
  O  O108  1  0.84020000  0.62210000  0.87080000  1
  O  O109  1  0.24630000  0.62430000  0.44260000  1
  O  O110  1  0.70970000  0.62730000  0.01280000  1
  O  O111  1  0.84020000  0.62920000  0.62210000  1
  O  O112  1  0.23630000  0.62970000  0.05990000  1
  O  O113  1  0.98540000  0.62970000  0.36300000  1
  O  O114  1  0.72250000  0.63590000  0.50260000  1
  O  O115  1  0.01460000  0.63700000  0.12970000  1
  O  O116  1  0.01270000  0.65510000  0.99790000  1
  O  O117  1  0.98110000  0.65670000  0.51510000  1
  O  O118  1  0.80680000  0.74420000  0.56240000  1
  O  O119  1  0.12070000  0.74440000  0.07950000  1
  O  O120  1  0.12070000  0.75560000  0.42050000  1
  O  O121  1  0.80680000  0.75580000  0.93760000  1
  O  O122  1  0.98110000  0.84330000  0.98490000  1
  O  O123  1  0.01270000  0.84490000  0.50210000  1
  O  O124  1  0.01460000  0.86300000  0.37030000  1
  O  O125  1  0.72250000  0.86410000  0.99740000  1
  O  O126  1  0.98540000  0.87030000  0.13700000  1
  O  O127  1  0.23630000  0.87030000  0.44010000  1
  O  O128  1  0.84020000  0.87080000  0.87790000  1
  O  O129  1  0.70970000  0.87270000  0.48720000  1
  O  O130  1  0.24630000  0.87570000  0.05740000  1
  O  O131  1  0.84020000  0.87790000  0.62920000  1
  O  O132  1  0.48780000  0.91930000  0.07540000  1
  O  O133  1  0.87930000  0.92050000  0.24440000  1
  O  O134  1  0.51220000  0.92460000  0.41930000  1
  O  O135  1  0.80680000  0.93760000  0.74420000  1
  O  O136  1  0.76370000  0.94010000  0.12970000  1
  O  O137  1  0.75370000  0.94260000  0.37570000  1
  O  O138  1  0.32390000  0.98380000  0.99500000  1
  O  O139  1  0.98110000  0.98490000  0.65670000  1
  O  O140  1  0.29030000  0.98720000  0.12730000  1
  O  O141  1  0.32390000  0.99500000  0.51620000  1
  O  O142  1  0.72250000  0.99740000  0.63590000  1
  O  O143  1  0.01270000  0.99790000  0.84490000  1
