# generated using pymatgen
data_AlC8O5
_symmetry_space_group_name_H-M   'P 1'
_cell_length_a   6.61030000
_cell_length_b   11.09890000
_cell_length_c   17.89840000
_cell_angle_alpha   90.00000000
_cell_angle_beta   90.00000000
_cell_angle_gamma   91.24610000
_symmetry_Int_Tables_number   1
_chemical_formula_structural   AlC8O5
_chemical_formula_sum   'Al4 C32 O20'
_cell_volume   1312.84241490
_cell_formula_units_Z   4
loop_
 _symmetry_equiv_pos_site_id
 _symmetry_equiv_pos_as_xyz
  1  'x, y, z'
loop_
 _atom_site_type_symbol
 _atom_site_label
 _atom_site_symmetry_multiplicity
 _atom_site_fract_x
 _atom_site_fract_y
 _atom_site_fract_z
 _atom_site_occupancy
  Al  Al0  1  0.77030000  0.74570000  0.77611000  1
  Al  Al1  1  0.75430000  0.24570000  0.27678000  1
  Al  Al2  1  0.24570000  0.75430000  0.77678000  1
  Al  Al3  1  0.22970000  0.25430000  0.27611000  1
  C  C4  1  0.99478000  0.51694000  0.93351000  1
  C  C5  1  0.99091000  0.40133000  0.36623000  1
  C  C6  1  0.98376000  0.58739000  0.67075000  1
  C  C7  1  0.97511000  0.52430000  0.59630000  1
  C  C8  1  0.84598000  0.56757000  0.98970000  1
  C  C9  1  0.83201000  0.58379000  0.54176000  1
  C  C10  1  0.82168000  0.48900000  0.05870000  1
  C  C11  1  0.80432000  0.50781000  0.47125000  1
  C  C12  1  0.70338000  0.01976000  0.48326000  1
  C  C13  1  0.68886000  0.92428000  0.54363000  1
  C  C14  1  0.67897000  0.04356000  0.05642000  1
  C  C15  1  0.66717000  0.94918000  0.99501000  1
  C  C16  1  0.52012000  0.95041000  0.59870000  1
  C  C17  1  0.51601000  0.85751000  0.65975000  1
  C  C18  1  0.51191000  0.11526000  0.37717000  1
  C  C19  1  0.50545000  0.02702000  0.44103000  1
  C  C20  1  0.49455000  0.97298000  0.94103000  1
  C  C21  1  0.48809000  0.88474000  0.87717000  1
  C  C22  1  0.48399000  0.14249000  0.15975000  1
  C  C23  1  0.47988000  0.04959000  0.09870000  1
  C  C24  1  0.33283000  0.05082000  0.49501000  1
  C  C25  1  0.32103000  0.95644000  0.55642000  1
  C  C26  1  0.31114000  0.07572000  0.04363000  1
  C  C27  1  0.29662000  0.98024000  0.98326000  1
  C  C28  1  0.19568000  0.49219000  0.97125000  1
  C  C29  1  0.17832000  0.51100000  0.55870000  1
  C  C30  1  0.16799000  0.41621000  0.04176000  1
  C  C31  1  0.15402000  0.43243000  0.48970000  1
  C  C32  1  0.02489000  0.47570000  0.09630000  1
  C  C33  1  0.01624000  0.41261000  0.17075000  1
  C  C34  1  0.00909000  0.59867000  0.86623000  1
  C  C35  1  0.00522000  0.48306000  0.43351000  1
  O  O36  1  0.98740000  0.15510000  0.27900000  1
  O  O37  1  0.88480000  0.34400000  0.20150000  1
  O  O38  1  0.83400000  0.64430000  0.69170000  1
  O  O39  1  0.82400000  0.62070000  0.85080000  1
  O  O40  1  0.81820000  0.36320000  0.34950000  1
  O  O41  1  0.68150000  0.15750000  0.36030000  1
  O  O42  1  0.67140000  0.85850000  0.70350000  1
  O  O43  1  0.63630000  0.13950000  0.20427000  1
  O  O44  1  0.63550000  0.83170000  0.85480000  1
  O  O45  1  0.50290000  0.32070000  0.26760000  1
  O  O46  1  0.49710000  0.67930000  0.76760000  1
  O  O47  1  0.36450000  0.16830000  0.35480000  1
  O  O48  1  0.36370000  0.86050000  0.70427000  1
  O  O49  1  0.32860000  0.14150000  0.20350000  1
  O  O50  1  0.31850000  0.84250000  0.86030000  1
  O  O51  1  0.18180000  0.63680000  0.84950000  1
  O  O52  1  0.17600000  0.37930000  0.35080000  1
  O  O53  1  0.16600000  0.35570000  0.19170000  1
  O  O54  1  0.11520000  0.65600000  0.70150000  1
  O  O55  1  0.01260000  0.84490000  0.77900000  1
