# generated using pymatgen
data_Ni3H38C60(N3O7)2
_symmetry_space_group_name_H-M   'P 1'
_cell_length_a   11.21490000
_cell_length_b   17.00250000
_cell_length_c   20.31758674
_cell_angle_alpha   65.26528114
_cell_angle_beta   87.94888609
_cell_angle_gamma   85.09300000
_symmetry_Int_Tables_number   1
_chemical_formula_structural   Ni3H38C60(N3O7)2
_chemical_formula_sum   'Ni6 H76 C120 N12 O28'
_cell_volume   3505.85004711
_cell_formula_units_Z   2
loop_
 _symmetry_equiv_pos_site_id
 _symmetry_equiv_pos_as_xyz
  1  'x, y, z'
loop_
 _atom_site_type_symbol
 _atom_site_label
 _atom_site_symmetry_multiplicity
 _atom_site_fract_x
 _atom_site_fract_y
 _atom_site_fract_z
 _atom_site_occupancy
  Ni  Ni0  1  0.90851000  0.82764000  0.95052000  1
  Ni  Ni1  1  0.75000000  0.76073000  0.47854000  1
  Ni  Ni2  1  0.59149000  0.22184000  0.95052000  1
  Ni  Ni3  1  0.40851000  0.77816000  0.04948000  1
  Ni  Ni4  1  0.25000000  0.23927000  0.52146000  1
  Ni  Ni5  1  0.09149000  0.17236000  0.04948000  1
  H  H6  1  0.99390000  0.31580000  0.09600000  1
  H  H7  1  0.98990000  0.35570000  0.81180000  1
  H  H8  1  0.98530000  0.73990000  0.66800000  1
  H  H9  1  0.97370000  0.57470000  0.31020000  1
  H  H10  1  0.97040000  0.03460000  0.60240000  1
  H  H11  1  0.96750000  0.66320000  0.45640000  1
  H  H12  1  0.96610000  0.13220000  0.84940000  1
  H  H13  1  0.96360000  0.90690000  0.24320000  1
  H  H14  1  0.94670000  0.56340000  0.89620000  1
  H  H15  1  0.92060000  0.20610000  0.26160000  1
  H  H16  1  0.90080000  0.93110000  0.78940000  1
  H  H17  1  0.89170000  0.33030000  0.62940000  1
  H  H18  1  0.88750000  0.42980000  0.93720000  1
  H  H19  1  0.86840000  0.98050000  0.53400000  1
  H  H20  1  0.83430000  0.13750000  0.93560000  1
  H  H21  1  0.83110000  0.89540000  0.33440000  1
  H  H22  1  0.81870000  0.30530000  0.94360000  1
  H  H23  1  0.78420000  0.58330000  0.35480000  1
  H  H24  1  0.77510000  0.02100000  0.69880000  1
  H  H25  1  0.72490000  0.28020000  0.69880000  1
  H  H26  1  0.71580000  0.06190000  0.35480000  1
  H  H27  1  0.68130000  0.75110000  0.94360000  1
  H  H28  1  0.66890000  0.77020000  0.33440000  1
  H  H29  1  0.66570000  0.92690000  0.93560000  1
  H  H30  1  0.63160000  0.48550000  0.53400000  1
  H  H31  1  0.61250000  0.63300000  0.93720000  1
  H  H32  1  0.60830000  0.04030000  0.62940000  1
  H  H33  1  0.59920000  0.27950000  0.78940000  1
  H  H34  1  0.57940000  0.53230000  0.26160000  1
  H  H35  1  0.55330000  0.54040000  0.89620000  1
  H  H36  1  0.53640000  0.84990000  0.24320000  1
  H  H37  1  0.53390000  0.01840000  0.84940000  1
  H  H38  1  0.53250000  0.88040000  0.45640000  1
  H  H39  1  0.52960000  0.36300000  0.60240000  1
  H  H40  1  0.52630000  0.11510000  0.31020000  1
  H  H41  1  0.51470000  0.59210000  0.66800000  1
  H  H42  1  0.51010000  0.83250000  0.81180000  1
  H  H43  1  0.50610000  0.58820000  0.09600000  1
  H  H44  1  0.49390000  0.41180000  0.90400000  1
  H  H45  1  0.48990000  0.16750000  0.18820000  1
  H  H46  1  0.48530000  0.40790000  0.33200000  1
  H  H47  1  0.47370000  0.88490000  0.68980000  1
  H  H48  1  0.47040000  0.63700000  0.39760000  1
  H  H49  1  0.46750000  0.11960000  0.54360000  1
  H  H50  1  0.46610000  0.98160000  0.15060000  1
  H  H51  1  0.46360000  0.15010000  0.75680000  1
  H  H52  1  0.44670000  0.45960000  0.10380000  1
  H  H53  1  0.42060000  0.46770000  0.73840000  1
  H  H54  1  0.40080000  0.72050000  0.21060000  1
  H  H55  1  0.39170000  0.95970000  0.37060000  1
  H  H56  1  0.38750000  0.36700000  0.06280000  1
  H  H57  1  0.36840000  0.51450000  0.46600000  1
  H  H58  1  0.33430000  0.07310000  0.06440000  1
  H  H59  1  0.33110000  0.22980000  0.66560000  1
  H  H60  1  0.31870000  0.24890000  0.05640000  1
  H  H61  1  0.28420000  0.93810000  0.64520000  1
  H  H62  1  0.27510000  0.71980000  0.30120000  1
  H  H63  1  0.22490000  0.97900000  0.30120000  1
  H  H64  1  0.21580000  0.41670000  0.64520000  1
  H  H65  1  0.18130000  0.69470000  0.05640000  1
  H  H66  1  0.16890000  0.10460000  0.66560000  1
  H  H67  1  0.16570000  0.86250000  0.06440000  1
  H  H68  1  0.13160000  0.01950000  0.46600000  1
  H  H69  1  0.11250000  0.57020000  0.06280000  1
  H  H70  1  0.10830000  0.66970000  0.37060000  1
  H  H71  1  0.09920000  0.06890000  0.21060000  1
  H  H72  1  0.07940000  0.79390000  0.73840000  1
  H  H73  1  0.05330000  0.43660000  0.10380000  1
  H  H74  1  0.03640000  0.09310000  0.75680000  1
  H  H75  1  0.03390000  0.86780000  0.15060000  1
  H  H76  1  0.03250000  0.33680000  0.54360000  1
  H  H77  1  0.02960000  0.96540000  0.39760000  1
  H  H78  1  0.02630000  0.42530000  0.68980000  1
  H  H79  1  0.01470000  0.26010000  0.33200000  1
  H  H80  1  0.01010000  0.64430000  0.18820000  1
  H  H81  1  0.00610000  0.68420000  0.90400000  1
  C  C82  1  0.98150000  0.79952000  0.65436000  1
  C  C83  1  0.97370000  0.97509000  0.61542000  1
  C  C84  1  0.96660000  0.71274000  0.41292000  1
  C  C85  1  0.96650000  0.85668000  0.28604000  1
  C  C86  1  0.96260000  0.08060000  0.32580000  1
  C  C87  1  0.96040000  0.16836000  0.30388000  1
  C  C88  1  0.94880000  0.28403000  0.63854000  1
  C  C89  1  0.94870000  0.21118000  0.70444000  1
  C  C90  1  0.93350000  0.64913000  0.20594000  1
  C  C91  1  0.92600000  0.67270000  0.91220000  1
  C  C92  1  0.91810000  0.85469000  0.59302000  1
  C  C93  1  0.91270000  0.94250000  0.57420000  1
  C  C94  1  0.91160000  0.60691000  0.27878000  1
  C  C95  1  0.89220000  0.16367000  0.83566000  1
  C  C96  1  0.89100000  0.60001000  0.90698000  1
  C  C97  1  0.88620000  0.84871000  0.34098000  1
  C  C98  1  0.87840000  0.10043000  0.13808000  1
  C  C99  1  0.86910000  0.74494000  0.07892000  1
  C  C100  1  0.86210000  0.20795000  0.76250000  1
  C  C101  1  0.85640000  0.81917000  0.54866000  1
  C  C102  1  0.84180000  0.69911000  0.15818000  1
  C  C103  1  0.82540000  0.94812000  0.80176000  1
  C  C104  1  0.81220000  0.16687000  0.88706000  1
  C  C105  1  0.80620000  0.42768000  0.93124000  1
  C  C106  1  0.79890000  0.61197000  0.30546000  1
  C  C107  1  0.79360000  0.08143000  0.25834000  1
  C  C108  1  0.77450000  0.10945000  0.18456000  1
  C  C109  1  0.77100000  0.58145000  0.91810000  1
  C  C110  1  0.76410000  0.35277000  0.93546000  1
  C  C111  1  0.75020000  0.00244000  0.74672000  1
  C  C112  1  0.74980000  0.25084000  0.74672000  1
  C  C113  1  0.73590000  0.71177000  0.93546000  1
  C  C114  1  0.72900000  0.50045000  0.91810000  1
  C  C115  1  0.72550000  0.70599000  0.18456000  1
  C  C116  1  0.70640000  0.66023000  0.25834000  1
  C  C117  1  0.70110000  0.08257000  0.30546000  1
  C  C118  1  0.69380000  0.64108000  0.93124000  1
  C  C119  1  0.68780000  0.94607000  0.88706000  1
  C  C120  1  0.67460000  0.25012000  0.80176000  1
  C  C121  1  0.65820000  0.14271000  0.15818000  1
  C  C122  1  0.64360000  0.63217000  0.54866000  1
  C  C123  1  0.63790000  0.02955000  0.76250000  1
  C  C124  1  0.63090000  0.17614000  0.07892000  1
  C  C125  1  0.62160000  0.76149000  0.13808000  1
  C  C126  1  0.61380000  0.81031000  0.34098000  1
  C  C127  1  0.60900000  0.49301000  0.90698000  1
  C  C128  1  0.60780000  0.00067000  0.83566000  1
  C  C129  1  0.58840000  0.11431000  0.27878000  1
  C  C130  1  0.58730000  0.48330000  0.57420000  1
  C  C131  1  0.58190000  0.55229000  0.59302000  1
  C  C132  1  0.57400000  0.41510000  0.91220000  1
  C  C133  1  0.56650000  0.14493000  0.20594000  1
  C  C134  1  0.55130000  0.08438000  0.70444000  1
  C  C135  1  0.55120000  0.07743000  0.63854000  1
  C  C136  1  0.53960000  0.52776000  0.30388000  1
  C  C137  1  0.53740000  0.59360000  0.32580000  1
  C  C138  1  0.53350000  0.85728000  0.28604000  1
  C  C139  1  0.53340000  0.87434000  0.41292000  1
  C  C140  1  0.52630000  0.40949000  0.61542000  1
  C  C141  1  0.51850000  0.54612000  0.65436000  1
  C  C142  1  0.48150000  0.45388000  0.34564000  1
  C  C143  1  0.47370000  0.59051000  0.38458000  1
  C  C144  1  0.46660000  0.12566000  0.58708000  1
  C  C145  1  0.46650000  0.14272000  0.71396000  1
  C  C146  1  0.46260000  0.40640000  0.67420000  1
  C  C147  1  0.46040000  0.47224000  0.69612000  1
  C  C148  1  0.44880000  0.92257000  0.36146000  1
  C  C149  1  0.44870000  0.91562000  0.29556000  1
  C  C150  1  0.43350000  0.85507000  0.79406000  1
  C  C151  1  0.42600000  0.58490000  0.08780000  1
  C  C152  1  0.41810000  0.44771000  0.40698000  1
  C  C153  1  0.41270000  0.51670000  0.42580000  1
  C  C154  1  0.41160000  0.88569000  0.72122000  1
  C  C155  1  0.39220000  0.99933000  0.16434000  1
  C  C156  1  0.39100000  0.50699000  0.09302000  1
  C  C157  1  0.38620000  0.18969000  0.65902000  1
  C  C158  1  0.37840000  0.23851000  0.86192000  1
  C  C159  1  0.36910000  0.82386000  0.92108000  1
  C  C160  1  0.36210000  0.97045000  0.23750000  1
  C  C161  1  0.35640000  0.36783000  0.45134000  1
  C  C162  1  0.34180000  0.85729000  0.84182000  1
  C  C163  1  0.32540000  0.74988000  0.19824000  1
  C  C164  1  0.31220000  0.05393000  0.11294000  1
  C  C165  1  0.30620000  0.35892000  0.06876000  1
  C  C166  1  0.29890000  0.91743000  0.69454000  1
  C  C167  1  0.29360000  0.33977000  0.74166000  1
  C  C168  1  0.27450000  0.29401000  0.81544000  1
  C  C169  1  0.27100000  0.49955000  0.08190000  1
  C  C170  1  0.26410000  0.28823000  0.06454000  1
  C  C171  1  0.25020000  0.74916000  0.25328000  1
  C  C172  1  0.24980000  0.99756000  0.25328000  1
  C  C173  1  0.23590000  0.64723000  0.06454000  1
  C  C174  1  0.22900000  0.41855000  0.08190000  1
  C  C175  1  0.22550000  0.89055000  0.81544000  1
  C  C176  1  0.20640000  0.91857000  0.74166000  1
  C  C177  1  0.20110000  0.38803000  0.69454000  1
  C  C178  1  0.19380000  0.57232000  0.06876000  1
  C  C179  1  0.18780000  0.83313000  0.11294000  1
  C  C180  1  0.17460000  0.05188000  0.19824000  1
  C  C181  1  0.15820000  0.30089000  0.84182000  1
  C  C182  1  0.14360000  0.18083000  0.45134000  1
  C  C183  1  0.13790000  0.79205000  0.23750000  1
  C  C184  1  0.13090000  0.25506000  0.92108000  1
  C  C185  1  0.12160000  0.89957000  0.86192000  1
  C  C186  1  0.11380000  0.15129000  0.65902000  1
  C  C187  1  0.10900000  0.39999000  0.09302000  1
  C  C188  1  0.10780000  0.83633000  0.16434000  1
  C  C189  1  0.08840000  0.39309000  0.72122000  1
  C  C190  1  0.08730000  0.05750000  0.42580000  1
  C  C191  1  0.08190000  0.14531000  0.40698000  1
  C  C192  1  0.07400000  0.32730000  0.08780000  1
  C  C193  1  0.06650000  0.35087000  0.79406000  1
  C  C194  1  0.05130000  0.78882000  0.29556000  1
  C  C195  1  0.05120000  0.71597000  0.36146000  1
  C  C196  1  0.03960000  0.83164000  0.69612000  1
  C  C197  1  0.03740000  0.91940000  0.67420000  1
  C  C198  1  0.03350000  0.14332000  0.71396000  1
  C  C199  1  0.03340000  0.28726000  0.58708000  1
  C  C200  1  0.02630000  0.02491000  0.38458000  1
  C  C201  1  0.01850000  0.20048000  0.34564000  1
  N  N202  1  0.88310000  0.77765000  0.40324000  1
  N  N203  1  0.85180000  0.72777000  0.92844000  1
  N  N204  1  0.79660000  0.91843000  0.87158000  1
  N  N205  1  0.70340000  0.20999000  0.87158000  1
  N  N206  1  0.64820000  0.34379000  0.92844000  1
  N  N207  1  0.61690000  0.81911000  0.40324000  1
  N  N208  1  0.38310000  0.18089000  0.59676000  1
  N  N209  1  0.35180000  0.65621000  0.07156000  1
  N  N210  1  0.29660000  0.79001000  0.12842000  1
  N  N211  1  0.20340000  0.08157000  0.12842000  1
  N  N212  1  0.14820000  0.27223000  0.07156000  1
  N  N213  1  0.11690000  0.22235000  0.59676000  1
  O  O214  1  0.96960000  0.73062000  0.05478000  1
  O  O215  1  0.94478000  0.16327000  0.11312000  1
  O  O216  1  0.90830000  0.04587000  0.28462000  1
  O  O217  1  0.89480000  0.03032000  0.13160000  1
  O  O218  1  0.87650000  0.74014000  0.56014000  1
  O  O219  1  0.78948000  0.79741000  0.03734000  1
  O  O220  1  0.78290000  0.86743000  0.49968000  1
  O  O221  1  0.71710000  0.63289000  0.49968000  1
  O  O222  1  0.71052000  0.16525000  0.03734000  1
  O  O223  1  0.62350000  0.69972000  0.56014000  1
  O  O224  1  0.60520000  0.83808000  0.13160000  1
  O  O225  1  0.59170000  0.66951000  0.28462000  1
  O  O226  1  0.55522000  0.72361000  0.11312000  1
  O  O227  1  0.53040000  0.21460000  0.05478000  1
  O  O228  1  0.46960000  0.78540000  0.94522000  1
  O  O229  1  0.44478000  0.27639000  0.88688000  1
  O  O230  1  0.40830000  0.33049000  0.71538000  1
  O  O231  1  0.39480000  0.16192000  0.86840000  1
  O  O232  1  0.37650000  0.30028000  0.43986000  1
  O  O233  1  0.28948000  0.83475000  0.96266000  1
  O  O234  1  0.28290000  0.36711000  0.50032000  1
  O  O235  1  0.21710000  0.13257000  0.50032000  1
  O  O236  1  0.21052000  0.20259000  0.96266000  1
  O  O237  1  0.12350000  0.25986000  0.43986000  1
  O  O238  1  0.10520000  0.96968000  0.86840000  1
  O  O239  1  0.09170000  0.95413000  0.71538000  1
  O  O240  1  0.05522000  0.83673000  0.88688000  1
  O  O241  1  0.03040000  0.26938000  0.94522000  1
