# generated using pymatgen
data_ScH6(C2O)6
_symmetry_space_group_name_H-M   'P 1'
_cell_length_a   8.72550000
_cell_length_b   11.24480000
_cell_length_c   17.72452256
_cell_angle_alpha   84.51998106
_cell_angle_beta   75.75051286
_cell_angle_gamma   67.17130000
_symmetry_Int_Tables_number   1
_chemical_formula_structural   ScH6(C2O)6
_chemical_formula_sum   'Sc4 H24 C48 O24'
_cell_volume   1553.53052934
_cell_formula_units_Z   4
loop_
 _symmetry_equiv_pos_site_id
 _symmetry_equiv_pos_as_xyz
  1  'x, y, z'
loop_
 _atom_site_type_symbol
 _atom_site_label
 _atom_site_symmetry_multiplicity
 _atom_site_fract_x
 _atom_site_fract_y
 _atom_site_fract_z
 _atom_site_occupancy
  Sc  Sc0  1  0.63572000  0.25000000  0.22856000  1
  Sc  Sc1  1  0.88572000  0.75000000  0.72856000  1
  Sc  Sc2  1  0.11428000  0.25000000  0.27144000  1
  Sc  Sc3  1  0.36428000  0.75000000  0.77144000  1
  H  H4  1  0.18856000  0.12674000  0.75061000  1
  H  H5  1  0.29340000  0.92792000  0.60253000  1
  H  H6  1  0.06592000  0.37326000  0.74939000  1
  H  H7  1  0.39741000  0.42744000  0.39710000  1
  H  H8  1  0.74488000  0.05728000  0.01993000  1
  H  H9  1  0.73519000  0.44272000  0.01993000  1
  H  H10  1  0.82385000  0.57208000  0.89747000  1
  H  H11  1  0.17978000  0.55346000  0.51547000  1
  H  H12  1  0.43917000  0.62674000  0.24939000  1
  H  H13  1  0.19784000  0.05728000  0.48007000  1
  H  H14  1  0.77868000  0.92792000  0.89747000  1
  H  H15  1  0.31530000  0.87326000  0.25061000  1
  H  H16  1  0.68470000  0.12674000  0.74939000  1
  H  H17  1  0.22195000  0.07256000  0.10290000  1
  H  H18  1  0.80216000  0.94272000  0.51993000  1
  H  H19  1  0.56083000  0.37326000  0.75061000  1
  H  H20  1  0.82210000  0.44272000  0.48007000  1
  H  H21  1  0.17515000  0.42744000  0.10290000  1
  H  H22  1  0.26481000  0.55728000  0.98007000  1
  H  H23  1  0.24871000  0.94654000  0.98453000  1
  H  H24  1  0.60259000  0.57256000  0.60290000  1
  H  H25  1  0.93408000  0.62674000  0.25061000  1
  H  H26  1  0.70549000  0.07256000  0.39710000  1
  H  H27  1  0.81144000  0.87326000  0.24939000  1
  C  C28  1  0.04496000  0.56420000  0.93628000  1
  C  C29  1  0.09975000  0.64056000  0.86594000  1
  C  C30  1  0.39084000  0.56420000  0.56372000  1
  C  C31  1  0.38470000  0.96132000  0.55628000  1
  C  C32  1  0.25969000  0.64056000  0.63406000  1
  C  C33  1  0.45456000  0.06420000  0.43628000  1
  C  C34  1  0.44098000  0.46132000  0.44372000  1
  C  C35  1  0.85141000  0.47036000  0.00922000  1
  C  C36  1  0.90230000  0.53868000  0.94372000  1
  C  C37  1  0.32177000  0.52964000  0.50922000  1
  C  C38  1  0.33099000  0.02964000  0.49078000  1
  C  C39  1  0.04813000  0.18174000  0.75018000  1
  C  C40  1  0.01334000  0.97332000  0.75000000  1
  C  C41  1  0.39375000  0.14056000  0.36594000  1
  C  C42  1  0.98005000  0.31826000  0.74982000  1
  C  C43  1  0.94055000  0.11890000  0.75000000  1
  C  C44  1  0.63937000  0.02964000  0.00922000  1
  C  C45  1  0.46569000  0.14056000  0.13406000  1
  C  C46  1  0.65398000  0.96132000  0.94372000  1
  C  C47  1  0.80945000  0.38110000  0.75000000  1
  C  C48  1  0.29831000  0.68174000  0.24982000  1
  C  C49  1  0.48124000  0.06420000  0.06372000  1
  C  C50  1  0.77013000  0.18174000  0.74982000  1
  C  C51  1  0.26334000  0.47332000  0.25000000  1
  C  C52  1  0.73666000  0.52668000  0.75000000  1
  C  C53  1  0.22987000  0.81826000  0.25018000  1
  C  C54  1  0.51876000  0.93580000  0.93628000  1
  C  C55  1  0.70169000  0.31826000  0.75018000  1
  C  C56  1  0.19055000  0.61890000  0.25000000  1
  C  C57  1  0.34602000  0.03868000  0.05628000  1
  C  C58  1  0.53431000  0.85944000  0.86594000  1
  C  C59  1  0.36063000  0.97036000  0.99078000  1
  C  C60  1  0.05945000  0.88110000  0.25000000  1
  C  C61  1  0.01995000  0.68174000  0.25018000  1
  C  C62  1  0.60625000  0.85944000  0.63406000  1
  C  C63  1  0.98666000  0.02668000  0.25000000  1
  C  C64  1  0.95187000  0.81826000  0.24982000  1
  C  C65  1  0.66901000  0.97036000  0.50922000  1
  C  C66  1  0.67823000  0.47036000  0.49078000  1
  C  C67  1  0.09770000  0.46132000  0.05628000  1
  C  C68  1  0.14859000  0.52964000  0.99078000  1
  C  C69  1  0.55902000  0.53868000  0.55628000  1
  C  C70  1  0.54544000  0.93580000  0.56372000  1
  C  C71  1  0.74031000  0.35944000  0.36594000  1
  C  C72  1  0.61530000  0.03868000  0.44372000  1
  C  C73  1  0.60916000  0.43580000  0.43628000  1
  C  C74  1  0.90025000  0.35944000  0.13406000  1
  C  C75  1  0.95504000  0.43580000  0.06372000  1
  O  O76  1  0.68123000  0.33036000  0.31588000  1
  O  O77  1  0.14976000  0.91664000  0.77064000  1
  O  O78  1  0.77668000  0.33080000  0.14084000  1
  O  O79  1  0.01159000  0.66964000  0.81588000  1
  O  O80  1  0.50289000  0.16964000  0.31588000  1
  O  O81  1  0.10748000  0.66920000  0.64084000  1
  O  O82  1  0.58248000  0.16920000  0.14084000  1
  O  O83  1  0.93360000  0.91664000  0.72936000  1
  O  O84  1  0.42040000  0.41664000  0.22936000  1
  O  O85  1  0.24832000  0.16920000  0.35916000  1
  O  O86  1  0.83704000  0.58336000  0.72936000  1
  O  O87  1  0.32747000  0.16964000  0.18412000  1
  O  O88  1  0.67253000  0.83036000  0.81588000  1
  O  O89  1  0.16296000  0.41664000  0.27064000  1
  O  O90  1  0.75168000  0.83080000  0.64084000  1
  O  O91  1  0.57960000  0.58336000  0.77064000  1
  O  O92  1  0.06640000  0.08336000  0.27064000  1
  O  O93  1  0.41752000  0.83080000  0.85916000  1
  O  O94  1  0.89252000  0.33080000  0.35916000  1
  O  O95  1  0.49711000  0.83036000  0.68412000  1
  O  O96  1  0.98841000  0.33036000  0.18412000  1
  O  O97  1  0.22332000  0.66920000  0.85916000  1
  O  O98  1  0.85024000  0.08336000  0.22936000  1
  O  O99  1  0.31877000  0.66964000  0.68412000  1
