# generated using pymatgen
data_CuH6C6(NO)2
_symmetry_space_group_name_H-M   'P 1'
_cell_length_a   10.99320000
_cell_length_b   10.99320000
_cell_length_c   18.09280000
_cell_angle_alpha   90.00000000
_cell_angle_beta   90.00000000
_cell_angle_gamma   90.00000000
_symmetry_Int_Tables_number   1
_chemical_formula_structural   CuH6C6(NO)2
_chemical_formula_sum   'Cu8 H48 C48 N16 O16'
_cell_volume   2186.52295373
_cell_formula_units_Z   8
loop_
 _symmetry_equiv_pos_site_id
 _symmetry_equiv_pos_as_xyz
  1  'x, y, z'
loop_
 _atom_site_type_symbol
 _atom_site_label
 _atom_site_symmetry_multiplicity
 _atom_site_fract_x
 _atom_site_fract_y
 _atom_site_fract_z
 _atom_site_occupancy
  Cu  Cu0  1  0.10138000  0.59227000  0.88458000  1
  Cu  Cu1  1  0.10849000  0.61599000  0.39374000  1
  Cu  Cu2  1  0.38401000  0.10849000  0.64374000  1
  Cu  Cu3  1  0.40773000  0.10138000  0.13458000  1
  Cu  Cu4  1  0.59227000  0.89862000  0.63458000  1
  Cu  Cu5  1  0.61599000  0.89151000  0.14374000  1
  Cu  Cu6  1  0.89151000  0.38401000  0.89374000  1
  Cu  Cu7  1  0.89862000  0.40773000  0.38458000  1
  H  H8  1  0.02780000  0.86130000  0.44830000  1
  H  H9  1  0.02830000  0.84640000  0.93940000  1
  H  H10  1  0.03420000  0.83330000  0.53310000  1
  H  H11  1  0.04970000  0.82110000  0.02370000  1
  H  H12  1  0.06210000  0.10090000  0.49820000  1
  H  H13  1  0.07200000  0.08700000  0.00160000  1
  H  H14  1  0.08700000  0.92800000  0.75160000  1
  H  H15  1  0.10090000  0.93790000  0.24820000  1
  H  H16  1  0.13870000  0.02780000  0.69830000  1
  H  H17  1  0.15360000  0.02830000  0.18940000  1
  H  H18  1  0.16670000  0.03420000  0.78310000  1
  H  H19  1  0.17890000  0.04970000  0.27370000  1
  H  H20  1  0.31520000  0.58960000  0.49920000  1
  H  H21  1  0.33570000  0.55560000  0.95560000  1
  H  H22  1  0.35220000  0.49880000  0.56220000  1
  H  H23  1  0.37310000  0.48940000  0.02890000  1
  H  H24  1  0.40180000  0.48000000  0.48170000  1
  H  H25  1  0.41040000  0.31520000  0.74920000  1
  H  H26  1  0.41480000  0.43700000  0.95240000  1
  H  H27  1  0.43700000  0.58520000  0.70240000  1
  H  H28  1  0.44440000  0.33570000  0.20560000  1
  H  H29  1  0.48000000  0.59820000  0.23170000  1
  H  H30  1  0.48940000  0.62690000  0.77890000  1
  H  H31  1  0.49880000  0.64780000  0.31220000  1
  H  H32  1  0.50120000  0.35220000  0.81220000  1
  H  H33  1  0.51060000  0.37310000  0.27890000  1
  H  H34  1  0.52000000  0.40180000  0.73170000  1
  H  H35  1  0.55560000  0.66430000  0.70560000  1
  H  H36  1  0.56300000  0.41480000  0.20240000  1
  H  H37  1  0.58520000  0.56300000  0.45240000  1
  H  H38  1  0.58960000  0.68480000  0.24920000  1
  H  H39  1  0.59820000  0.52000000  0.98170000  1
  H  H40  1  0.62690000  0.51060000  0.52890000  1
  H  H41  1  0.64780000  0.50120000  0.06220000  1
  H  H42  1  0.66430000  0.44440000  0.45560000  1
  H  H43  1  0.68480000  0.41040000  0.99920000  1
  H  H44  1  0.82110000  0.95030000  0.77370000  1
  H  H45  1  0.83330000  0.96580000  0.28310000  1
  H  H46  1  0.84640000  0.97170000  0.68940000  1
  H  H47  1  0.86130000  0.97220000  0.19830000  1
  H  H48  1  0.89910000  0.06210000  0.74820000  1
  H  H49  1  0.91300000  0.07200000  0.25160000  1
  H  H50  1  0.92800000  0.91300000  0.50160000  1
  H  H51  1  0.93790000  0.89910000  0.99820000  1
  H  H52  1  0.95030000  0.17890000  0.52370000  1
  H  H53  1  0.96580000  0.16670000  0.03310000  1
  H  H54  1  0.97170000  0.15360000  0.43940000  1
  H  H55  1  0.97220000  0.13870000  0.94830000  1
  C  C56  1  0.01080000  0.16860000  0.48590000  1
  C  C57  1  0.01940000  0.15470000  0.99190000  1
  C  C58  1  0.08670000  0.28220000  0.48040000  1
  C  C59  1  0.09320000  0.26540000  0.98050000  1
  C  C60  1  0.15470000  0.98060000  0.74190000  1
  C  C61  1  0.16860000  0.98920000  0.23590000  1
  C  C62  1  0.19690000  0.30830000  0.51530000  1
  C  C63  1  0.20930000  0.28790000  0.00470000  1
  C  C64  1  0.21690000  0.71630000  0.80390000  1
  C  C65  1  0.22600000  0.42920000  0.49280000  1
  C  C66  1  0.23200000  0.73630000  0.31640000  1
  C  C67  1  0.24080000  0.40510000  0.97450000  1
  C  C68  1  0.26370000  0.23200000  0.56640000  1
  C  C69  1  0.26540000  0.90680000  0.73050000  1
  C  C70  1  0.28220000  0.91330000  0.23040000  1
  C  C71  1  0.28370000  0.21690000  0.05390000  1
  C  C72  1  0.28790000  0.79070000  0.75470000  1
  C  C73  1  0.30830000  0.80310000  0.26530000  1
  C  C74  1  0.33333333  0.50620000  0.51050000  1
  C  C75  1  0.35030000  0.47790000  0.97810000  1
  C  C76  1  0.40510000  0.75920000  0.72450000  1
  C  C77  1  0.42920000  0.77400000  0.24280000  1
  C  C78  1  0.47790000  0.64970000  0.72810000  1
  C  C79  1  0.49380000  0.33333333  0.76050000  1
  C  C80  1  0.50620000  0.66666667  0.26050000  1
  C  C81  1  0.52210000  0.35030000  0.22810000  1
  C  C82  1  0.57080000  0.22600000  0.74280000  1
  C  C83  1  0.59490000  0.24080000  0.22450000  1
  C  C84  1  0.64970000  0.52210000  0.47810000  1
  C  C85  1  0.66666667  0.49380000  0.01050000  1
  C  C86  1  0.69170000  0.19690000  0.76530000  1
  C  C87  1  0.71210000  0.20930000  0.25470000  1
  C  C88  1  0.71630000  0.78310000  0.55390000  1
  C  C89  1  0.71780000  0.08670000  0.73040000  1
  C  C90  1  0.73460000  0.09320000  0.23050000  1
  C  C91  1  0.73630000  0.76800000  0.06640000  1
  C  C92  1  0.75920000  0.59490000  0.47450000  1
  C  C93  1  0.76800000  0.26370000  0.81640000  1
  C  C94  1  0.77400000  0.57080000  0.99280000  1
  C  C95  1  0.78310000  0.28370000  0.30390000  1
  C  C96  1  0.79070000  0.71210000  0.50470000  1
  C  C97  1  0.80310000  0.69170000  0.01530000  1
  C  C98  1  0.83140000  0.01080000  0.73590000  1
  C  C99  1  0.84530000  0.01940000  0.24190000  1
  C  C100  1  0.90680000  0.73460000  0.48050000  1
  C  C101  1  0.91330000  0.71780000  0.98040000  1
  C  C102  1  0.98060000  0.84530000  0.49190000  1
  C  C103  1  0.98920000  0.83140000  0.98590000  1
  N  N104  1  0.04550000  0.37530000  0.44320000  1
  N  N105  1  0.04670000  0.35660000  0.94250000  1
  N  N106  1  0.13680000  0.46520000  0.44690000  1
  N  N107  1  0.14170000  0.43840000  0.93370000  1
  N  N108  1  0.35660000  0.95330000  0.69250000  1
  N  N109  1  0.37530000  0.95450000  0.19320000  1
  N  N110  1  0.43840000  0.85830000  0.68370000  1
  N  N111  1  0.46520000  0.86320000  0.19690000  1
  N  N112  1  0.53480000  0.13680000  0.69690000  1
  N  N113  1  0.56160000  0.14170000  0.18370000  1
  N  N114  1  0.62470000  0.04550000  0.69320000  1
  N  N115  1  0.64340000  0.04670000  0.19250000  1
  N  N116  1  0.85830000  0.56160000  0.43370000  1
  N  N117  1  0.86320000  0.53480000  0.94690000  1
  N  N118  1  0.95330000  0.64340000  0.44250000  1
  N  N119  1  0.95450000  0.62470000  0.94320000  1
  O  O120  1  0.11510000  0.75130000  0.82950000  1
  O  O121  1  0.12910000  0.77120000  0.33580000  1
  O  O122  1  0.22880000  0.12910000  0.58580000  1
  O  O123  1  0.24870000  0.11510000  0.07950000  1
  O  O124  1  0.25280000  0.60960000  0.82460000  1
  O  O125  1  0.26770000  0.63430000  0.34390000  1
  O  O126  1  0.36570000  0.26770000  0.59390000  1
  O  O127  1  0.39040000  0.25280000  0.07460000  1
  O  O128  1  0.60960000  0.74720000  0.57460000  1
  O  O129  1  0.63430000  0.73230000  0.09390000  1
  O  O130  1  0.73230000  0.36570000  0.84390000  1
  O  O131  1  0.74720000  0.39040000  0.32460000  1
  O  O132  1  0.75130000  0.88490000  0.57950000  1
  O  O133  1  0.77120000  0.87090000  0.08580000  1
  O  O134  1  0.87090000  0.22880000  0.83580000  1
  O  O135  1  0.88490000  0.24870000  0.32950000  1
