# generated using pymatgen
data_ZnH17C23(N3O2)2
_symmetry_space_group_name_H-M   'P 1'
_cell_length_a   10.83600000
_cell_length_b   14.96200000
_cell_length_c   14.96700000
_cell_angle_alpha   90.00000000
_cell_angle_beta   92.49400000
_cell_angle_gamma   90.00000000
_symmetry_Int_Tables_number   1
_chemical_formula_structural   ZnH17C23(N3O2)2
_chemical_formula_sum   'Zn4 H68 C92 N24 O16'
_cell_volume   2424.27475913
_cell_formula_units_Z   4
loop_
 _symmetry_equiv_pos_site_id
 _symmetry_equiv_pos_as_xyz
  1  'x, y, z'
loop_
 _atom_site_type_symbol
 _atom_site_label
 _atom_site_symmetry_multiplicity
 _atom_site_fract_x
 _atom_site_fract_y
 _atom_site_fract_z
 _atom_site_occupancy
  Zn  Zn0  1  0.07048000  0.15761000  0.87877000  1
  Zn  Zn1  1  0.42952000  0.65761000  0.12123000  1
  Zn  Zn2  1  0.57048000  0.34239000  0.87877000  1
  Zn  Zn3  1  0.92952000  0.84239000  0.12123000  1
  H  H4  1  0.02450000  0.50280000  0.24380000  1
  H  H5  1  0.02840000  0.29050000  0.70240000  1
  H  H6  1  0.04710000  0.96450000  0.36030000  1
  H  H7  1  0.06500000  0.04390000  0.14210000  1
  H  H8  1  0.06990000  0.32580000  0.53390000  1
  H  H9  1  0.08260000  0.93720000  0.62380000  1
  H  H10  1  0.10480000  0.54300000  0.38460000  1
  H  H11  1  0.12010000  0.58690000  0.85160000  1
  H  H12  1  0.13660000  0.24780000  0.48570000  1
  H  H13  1  0.15430000  0.39460000  0.01490000  1
  H  H14  1  0.16440000  0.59030000  0.50510000  1
  H  H15  1  0.20200000  0.80510000  0.14590000  1
  H  H16  1  0.21010000  0.86940000  0.34460000  1
  H  H17  1  0.23240000  0.63410000  0.80780000  1
  H  H18  1  0.24030000  0.83730000  0.60460000  1
  H  H19  1  0.24390000  0.62820000  0.64430000  1
  H  H20  1  0.24850000  0.08980000  0.73410000  1
  H  H21  1  0.25150000  0.58980000  0.26590000  1
  H  H22  1  0.25610000  0.12820000  0.35570000  1
  H  H23  1  0.25970000  0.33730000  0.39540000  1
  H  H24  1  0.26760000  0.13410000  0.19220000  1
  H  H25  1  0.28990000  0.36940000  0.65540000  1
  H  H26  1  0.29800000  0.30510000  0.85410000  1
  H  H27  1  0.33560000  0.09030000  0.49490000  1
  H  H28  1  0.34570000  0.89460000  0.98510000  1
  H  H29  1  0.36340000  0.74780000  0.51430000  1
  H  H30  1  0.37990000  0.08690000  0.14840000  1
  H  H31  1  0.39520000  0.04300000  0.61540000  1
  H  H32  1  0.41740000  0.43720000  0.37620000  1
  H  H33  1  0.43010000  0.82580000  0.46610000  1
  H  H34  1  0.43500000  0.54390000  0.85790000  1
  H  H35  1  0.45290000  0.46450000  0.63970000  1
  H  H36  1  0.47160000  0.79050000  0.29760000  1
  H  H37  1  0.47550000  0.00280000  0.75620000  1
  H  H38  1  0.52450000  0.99720000  0.24380000  1
  H  H39  1  0.52840000  0.20950000  0.70240000  1
  H  H40  1  0.54710000  0.53550000  0.36030000  1
  H  H41  1  0.56500000  0.45610000  0.14210000  1
  H  H42  1  0.56990000  0.17420000  0.53390000  1
  H  H43  1  0.58260000  0.56280000  0.62380000  1
  H  H44  1  0.60480000  0.95700000  0.38460000  1
  H  H45  1  0.62010000  0.91310000  0.85160000  1
  H  H46  1  0.63660000  0.25220000  0.48570000  1
  H  H47  1  0.65430000  0.10540000  0.01490000  1
  H  H48  1  0.66440000  0.90970000  0.50510000  1
  H  H49  1  0.70200000  0.69490000  0.14590000  1
  H  H50  1  0.71010000  0.63060000  0.34460000  1
  H  H51  1  0.73240000  0.86590000  0.80780000  1
  H  H52  1  0.74030000  0.66270000  0.60460000  1
  H  H53  1  0.74390000  0.87180000  0.64430000  1
  H  H54  1  0.74850000  0.41020000  0.73410000  1
  H  H55  1  0.75150000  0.91020000  0.26590000  1
  H  H56  1  0.75610000  0.37180000  0.35570000  1
  H  H57  1  0.75970000  0.16270000  0.39540000  1
  H  H58  1  0.76760000  0.36590000  0.19220000  1
  H  H59  1  0.78990000  0.13060000  0.65540000  1
  H  H60  1  0.79800000  0.19490000  0.85410000  1
  H  H61  1  0.83560000  0.40970000  0.49490000  1
  H  H62  1  0.84570000  0.60540000  0.98510000  1
  H  H63  1  0.86340000  0.75220000  0.51430000  1
  H  H64  1  0.87990000  0.41310000  0.14840000  1
  H  H65  1  0.89520000  0.45700000  0.61540000  1
  H  H66  1  0.91740000  0.06280000  0.37620000  1
  H  H67  1  0.93010000  0.67420000  0.46610000  1
  H  H68  1  0.93500000  0.95610000  0.85790000  1
  H  H69  1  0.95290000  0.03550000  0.63970000  1
  H  H70  1  0.97160000  0.70950000  0.29760000  1
  H  H71  1  0.97550000  0.49720000  0.75620000  1
  C  C72  1  0.01610000  0.51500000  0.70570000  1
  C  C73  1  0.01720000  0.58480000  0.03640000  1
  C  C74  1  0.02410000  0.51530000  0.54390000  1
  C  C75  1  0.02420000  0.67270000  0.08810000  1
  C  C76  1  0.03260000  0.50940000  0.37990000  1
  C  C77  1  0.05000000  0.96680000  0.49440000  1
  C  C78  1  0.08590000  0.24570000  0.69300000  1
  C  C79  1  0.08810000  0.94170000  0.41120000  1
  C  C80  1  0.09200000  0.43710000  0.00910000  1
  C  C81  1  0.10790000  0.92520000  0.56640000  1
  C  C82  1  0.11120000  0.52200000  0.04660000  1
  C  C83  1  0.11920000  0.99590000  0.14760000  1
  C  C84  1  0.12260000  0.56460000  0.71560000  1
  C  C85  1  0.12610000  0.56890000  0.55530000  1
  C  C86  1  0.14300000  0.28830000  0.53630000  1
  C  C87  1  0.17390000  0.59220000  0.63980000  1
  C  C88  1  0.18270000  0.58020000  0.80770000  1
  C  C89  1  0.18540000  0.88350000  0.40170000  1
  C  C90  1  0.19590000  0.86690000  0.15030000  1
  C  C91  1  0.20370000  0.86540000  0.55470000  1
  C  C92  1  0.20530000  0.13770000  0.70840000  1
  C  C93  1  0.23870000  0.54460000  0.08510000  1
  C  C94  1  0.24540000  0.84660000  0.47320000  1
  C  C95  1  0.25460000  0.34660000  0.52680000  1
  C  C96  1  0.26130000  0.04460000  0.91490000  1
  C  C97  1  0.29470000  0.63770000  0.29160000  1
  C  C98  1  0.29630000  0.36540000  0.44530000  1
  C  C99  1  0.30410000  0.36690000  0.84970000  1
  C  C100  1  0.31460000  0.38350000  0.59830000  1
  C  C101  1  0.31730000  0.08020000  0.19230000  1
  C  C102  1  0.32610000  0.09220000  0.36020000  1
  C  C103  1  0.35700000  0.78830000  0.46370000  1
  C  C104  1  0.37390000  0.06890000  0.44470000  1
  C  C105  1  0.37740000  0.06460000  0.28440000  1
  C  C106  1  0.38080000  0.49590000  0.85240000  1
  C  C107  1  0.38880000  0.02200000  0.95340000  1
  C  C108  1  0.39210000  0.42520000  0.43360000  1
  C  C109  1  0.40800000  0.93710000  0.99090000  1
  C  C110  1  0.41190000  0.44170000  0.58880000  1
  C  C111  1  0.41410000  0.74570000  0.30700000  1
  C  C112  1  0.45000000  0.46680000  0.50560000  1
  C  C113  1  0.46740000  0.00940000  0.62010000  1
  C  C114  1  0.47580000  0.17270000  0.91190000  1
  C  C115  1  0.47590000  0.01530000  0.45610000  1
  C  C116  1  0.48280000  0.08480000  0.96360000  1
  C  C117  1  0.48390000  0.01500000  0.29430000  1
  C  C118  1  0.51610000  0.98500000  0.70570000  1
  C  C119  1  0.51720000  0.91520000  0.03640000  1
  C  C120  1  0.52410000  0.98470000  0.54390000  1
  C  C121  1  0.52420000  0.82730000  0.08810000  1
  C  C122  1  0.53260000  0.99060000  0.37990000  1
  C  C123  1  0.55000000  0.53320000  0.49440000  1
  C  C124  1  0.58590000  0.25430000  0.69300000  1
  C  C125  1  0.58810000  0.55830000  0.41120000  1
  C  C126  1  0.59200000  0.06290000  0.00910000  1
  C  C127  1  0.60790000  0.57480000  0.56640000  1
  C  C128  1  0.61120000  0.97800000  0.04660000  1
  C  C129  1  0.61920000  0.50410000  0.14760000  1
  C  C130  1  0.62260000  0.93540000  0.71560000  1
  C  C131  1  0.62610000  0.93110000  0.55530000  1
  C  C132  1  0.64300000  0.21170000  0.53630000  1
  C  C133  1  0.67390000  0.90780000  0.63980000  1
  C  C134  1  0.68270000  0.91980000  0.80770000  1
  C  C135  1  0.68540000  0.61650000  0.40170000  1
  C  C136  1  0.69590000  0.63310000  0.15030000  1
  C  C137  1  0.70370000  0.63460000  0.55470000  1
  C  C138  1  0.70530000  0.36230000  0.70840000  1
  C  C139  1  0.73870000  0.95540000  0.08510000  1
  C  C140  1  0.74540000  0.65340000  0.47320000  1
  C  C141  1  0.75460000  0.15340000  0.52680000  1
  C  C142  1  0.76130000  0.45540000  0.91490000  1
  C  C143  1  0.79470000  0.86230000  0.29160000  1
  C  C144  1  0.79630000  0.13460000  0.44530000  1
  C  C145  1  0.80410000  0.13310000  0.84970000  1
  C  C146  1  0.81460000  0.11650000  0.59830000  1
  C  C147  1  0.81730000  0.41980000  0.19230000  1
  C  C148  1  0.82610000  0.40780000  0.36020000  1
  C  C149  1  0.85700000  0.71170000  0.46370000  1
  C  C150  1  0.87390000  0.43110000  0.44470000  1
  C  C151  1  0.87740000  0.43540000  0.28440000  1
  C  C152  1  0.88080000  0.00410000  0.85240000  1
  C  C153  1  0.88880000  0.47800000  0.95340000  1
  C  C154  1  0.89210000  0.07480000  0.43360000  1
  C  C155  1  0.90800000  0.56290000  0.99090000  1
  C  C156  1  0.91190000  0.05830000  0.58880000  1
  C  C157  1  0.91410000  0.75430000  0.30700000  1
  C  C158  1  0.95000000  0.03320000  0.50560000  1
  C  C159  1  0.96740000  0.49060000  0.62010000  1
  C  C160  1  0.97580000  0.32730000  0.91190000  1
  C  C161  1  0.97590000  0.48470000  0.45610000  1
  C  C162  1  0.98280000  0.41520000  0.96360000  1
  C  C163  1  0.98390000  0.48500000  0.29430000  1
  N  N164  1  0.08850000  0.91100000  0.13380000  1
  N  N165  1  0.12050000  0.18280000  0.75350000  1
  N  N166  1  0.14420000  0.23510000  0.61960000  1
  N  N167  1  0.20890000  0.41800000  0.82710000  1
  N  N168  1  0.22410000  0.16380000  0.62800000  1
  N  N169  1  0.23920000  0.00230000  0.17050000  1
  N  N170  1  0.26080000  0.50230000  0.82950000  1
  N  N171  1  0.27590000  0.66380000  0.37200000  1
  N  N172  1  0.29110000  0.91800000  0.17290000  1
  N  N173  1  0.35580000  0.73510000  0.38040000  1
  N  N174  1  0.37950000  0.68280000  0.24650000  1
  N  N175  1  0.41150000  0.41100000  0.86620000  1
  N  N176  1  0.58850000  0.58900000  0.13380000  1
  N  N177  1  0.62050000  0.31720000  0.75350000  1
  N  N178  1  0.64420000  0.26490000  0.61960000  1
  N  N179  1  0.70890000  0.08200000  0.82710000  1
  N  N180  1  0.72410000  0.33620000  0.62800000  1
  N  N181  1  0.73920000  0.49770000  0.17050000  1
  N  N182  1  0.76080000  0.99770000  0.82950000  1
  N  N183  1  0.77590000  0.83620000  0.37200000  1
  N  N184  1  0.79110000  0.58200000  0.17290000  1
  N  N185  1  0.85580000  0.76490000  0.38040000  1
  N  N186  1  0.87950000  0.81720000  0.24650000  1
  N  N187  1  0.91150000  0.08900000  0.86620000  1
  O  O188  1  0.03700000  0.26220000  0.95100000  1
  O  O189  1  0.07700000  0.67700000  0.16070000  1
  O  O190  1  0.21120000  0.99520000  0.85920000  1
  O  O191  1  0.21470000  0.11520000  0.94630000  1
  O  O192  1  0.28530000  0.61520000  0.05370000  1
  O  O193  1  0.28880000  0.49520000  0.14080000  1
  O  O194  1  0.42300000  0.17700000  0.83930000  1
  O  O195  1  0.46300000  0.76220000  0.04900000  1
  O  O196  1  0.53700000  0.23780000  0.95100000  1
  O  O197  1  0.57700000  0.82300000  0.16070000  1
  O  O198  1  0.71120000  0.50480000  0.85920000  1
  O  O199  1  0.71470000  0.38480000  0.94630000  1
  O  O200  1  0.78530000  0.88480000  0.05370000  1
  O  O201  1  0.78880000  0.00480000  0.14080000  1
  O  O202  1  0.92300000  0.32300000  0.83930000  1
  O  O203  1  0.96300000  0.73780000  0.04900000  1
