# generated using pymatgen
data_Cu2H14C22I(NO)4
_symmetry_space_group_name_H-M   'P 1'
_cell_length_a   15.71000000
_cell_length_b   23.94105541
_cell_length_c   23.94105541
_cell_angle_alpha   115.35558150
_cell_angle_beta   102.63454790
_cell_angle_gamma   102.63454790
_symmetry_Int_Tables_number   1
_chemical_formula_structural   Cu2H14C22I(NO)4
_chemical_formula_sum   'Cu12 H84 C132 I6 N24 O24'
_cell_volume   7425.08996404
_cell_formula_units_Z   6
loop_
 _symmetry_equiv_pos_site_id
 _symmetry_equiv_pos_as_xyz
  1  'x, y, z'
loop_
 _atom_site_type_symbol
 _atom_site_label
 _atom_site_symmetry_multiplicity
 _atom_site_fract_x
 _atom_site_fract_y
 _atom_site_fract_z
 _atom_site_occupancy
  C  C0  1  0.06273000  0.22612000  0.77644000  1
  C  C1  1  0.66618000  0.19218000  0.81153000  1
  C  C2  1  0.75795000  0.20522000  0.81385000  1
  C  C3  1  0.19924000  0.26935000  0.75652000  1
  C  C4  1  0.14692000  0.27597000  0.79736000  1
  C  C5  1  0.80748000  0.53881000  0.55289000  1
  C  C6  1  0.83263000  0.78710000  0.30523000  1
  C  C7  1  0.64089000  0.24186000  0.85323000  1
  C  C8  1  0.40719000  0.87289000  0.24028000  1
  C  C9  1  0.55824000  0.60894000  0.50608000  1
  C  C10  1  0.96913000  0.83033000  0.28531000  1
  C  C11  1  0.82441000  0.26790000  0.85785000  1
  C  C12  1  0.47326000  0.90951000  0.22700000  1
  C  C13  1  0.75593000  0.51515000  0.63058000  1
  C  C14  1  0.91682000  0.83695000  0.32615000  1
  C  C15  1  0.48665000  0.55483000  0.61392000  1
  C  C16  1  0.52740000  0.69477000  0.48187000  1
  C  C17  1  0.59067000  0.67385000  0.51080000  1
  C  C18  1  0.91897000  0.54607000  0.64484000  1
  C  C19  1  0.84743000  0.52787000  0.66598000  1
  C  C20  1  0.18145000  0.33402000  0.86189000  1
  C  C21  1  0.70735000  0.30454000  0.89723000  1
  C  C22  1  0.40351000  0.89845000  0.30355000  1
  C  C23  1  0.79912000  0.31758000  0.89955000  1
  C  C24  1  0.92989000  0.48717000  0.73065000  1
  C  C25  1  0.55728000  0.75652000  0.48717000  1
  C  C26  1  0.87095000  0.52139000  0.72403000  1
  C  C27  1  0.12535000  0.36942000  0.88457000  1
  C  C28  1  0.27413000  0.35516000  0.90123000  1
  C  C29  1  0.68382000  0.71469000  0.54502000  1
  C  C30  1  0.48154000  0.58197000  0.68242000  1
  C  C31  1  0.95447000  0.48187000  0.78710000  1
  C  C32  1  0.40281000  0.59269000  0.69546000  1
  C  C33  1  0.94930000  0.89714000  0.39106000  1
  C  C34  1  0.09996000  0.69645000  0.59490000  1
  C  C35  1  0.19171000  0.65973000  0.65700000  1
  C  C36  1  0.65044000  0.79736000  0.52139000  1
  C  C37  1  0.55651000  0.58995000  0.73210000  1
  C  C38  1  0.83661000  0.55032000  0.77388000  1
  C  C39  1  0.71371000  0.77644000  0.55032000  1
  C  C40  1  0.87273000  0.38608000  0.94091000  1
  C  C41  1  0.53198000  0.99727000  0.34027000  1
  C  C42  1  0.53471000  0.34300000  0.00273000  1
  C  C43  1  0.92013000  0.51080000  0.83695000  1
  C  C44  1  0.39903000  0.61137000  0.75814000  1
  C  C45  1  0.86120000  0.54502000  0.83033000  1
  C  C46  1  0.68044000  0.86189000  0.52787000  1
  C  C47  1  0.16691000  0.75972000  0.63261000  1
  C  C48  1  0.75922000  0.88457000  0.51515000  1
  C  C49  1  0.94784000  0.50608000  0.89714000  1
  C  C50  1  0.55273000  0.60863000  0.79478000  1
  C  C51  1  0.56375000  0.31749000  0.09049000  1
  C  C52  1  0.05590000  0.81385000  0.60863000  1
  C  C53  1  0.47400000  0.61935000  0.80782000  1
  C  C54  1  0.14535000  0.81153000  0.61935000  1
  C  C55  1  0.25459000  0.44711000  0.98592000  1
  C  C56  1  0.62710000  0.90123000  0.54607000  1
  C  C57  1  0.03344000  0.85785000  0.58995000  1
  C  C58  1  0.24626000  0.77300000  0.68251000  1
  C  C59  1  0.21234000  0.85323000  0.61137000  1
  C  C60  1  0.26867000  0.01408000  0.46119000  1
  C  C61  1  0.10043000  0.89955000  0.58197000  1
  C  C62  1  0.18988000  0.89723000  0.59269000  1
  C  C63  1  0.49494000  0.59490000  0.89845000  1
  C  C64  1  0.53430000  0.36739000  0.12711000  1
  C  C65  1  0.06818000  0.94091000  0.55483000  1
  C  C66  1  0.93182000  0.05909000  0.44517000  1
  C  C67  1  0.46570000  0.63261000  0.87289000  1
  C  C68  1  0.50506000  0.40510000  0.10155000  1
  C  C69  1  0.81012000  0.10277000  0.40731000  1
  C  C70  1  0.89957000  0.10045000  0.41803000  1
  C  C71  1  0.73133000  0.98592000  0.53881000  1
  C  C72  1  0.78766000  0.14677000  0.38863000  1
  C  C73  1  0.75374000  0.22700000  0.31749000  1
  C  C74  1  0.96656000  0.14215000  0.41005000  1
  C  C75  1  0.37290000  0.09877000  0.45393000  1
  C  C76  1  0.74541000  0.55289000  0.01408000  1
  C  C77  1  0.85465000  0.18847000  0.38065000  1
  C  C78  1  0.52600000  0.38065000  0.19218000  1
  C  C79  1  0.94410000  0.18615000  0.39137000  1
  C  C80  1  0.43625000  0.68251000  0.90951000  1
  C  C81  1  0.44727000  0.39137000  0.20522000  1
  C  C82  1  0.05216000  0.49392000  0.10286000  1
  C  C83  1  0.24078000  0.11543000  0.48485000  1
  C  C84  1  0.83309000  0.24028000  0.36739000  1
  C  C85  1  0.31956000  0.13811000  0.47213000  1
  C  C86  1  0.13880000  0.45498000  0.16967000  1
  C  C87  1  0.60097000  0.38863000  0.24186000  1
  C  C88  1  0.07987000  0.48920000  0.16305000  1
  C  C89  1  0.46529000  0.65700000  0.99727000  1
  C  C90  1  0.46802000  0.00273000  0.65973000  1
  C  C91  1  0.12727000  0.61392000  0.05909000  1
  C  C92  1  0.28629000  0.22356000  0.44968000  1
  C  C93  1  0.16339000  0.44968000  0.22612000  1
  C  C94  1  0.44349000  0.41005000  0.26790000  1
  C  C95  1  0.34956000  0.20264000  0.47861000  1
  C  C96  1  0.80829000  0.34027000  0.34300000  1
  C  C97  1  0.90004000  0.30355000  0.40510000  1
  C  C98  1  0.05070000  0.10286000  0.60894000  1
  C  C99  1  0.59719000  0.40731000  0.30454000  1
  C  C100  1  0.04553000  0.51813000  0.21290000  1
  C  C101  1  0.51846000  0.41803000  0.31758000  1
  C  C102  1  0.31618000  0.28531000  0.45498000  1
  C  C103  1  0.72587000  0.64484000  0.09877000  1
  C  C104  1  0.87465000  0.63058000  0.11543000  1
  C  C105  1  0.12905000  0.47861000  0.27597000  1
  C  C106  1  0.44272000  0.24348000  0.51283000  1
  C  C107  1  0.07011000  0.51283000  0.26935000  1
  C  C108  1  0.20088000  0.68242000  0.10045000  1
  C  C109  1  0.59649000  0.10155000  0.69645000  1
  C  C110  1  0.29265000  0.69546000  0.10277000  1
  C  C111  1  0.81855000  0.66598000  0.13811000  1
  C  C112  1  0.15257000  0.47213000  0.33402000  1
  C  C113  1  0.08103000  0.45393000  0.35516000  1
  C  C114  1  0.40933000  0.32615000  0.48920000  1
  C  C115  1  0.47260000  0.30523000  0.51813000  1
  C  C116  1  0.51335000  0.44517000  0.38608000  1
  C  C117  1  0.08318000  0.16305000  0.67385000  1
  C  C118  1  0.24407000  0.48485000  0.36942000  1
  C  C119  1  0.52674000  0.09049000  0.77300000  1
  C  C120  1  0.17559000  0.73210000  0.14215000  1
  C  C121  1  0.03087000  0.16967000  0.71469000  1
  C  C122  1  0.44176000  0.39106000  0.49392000  1
  C  C123  1  0.59281000  0.12711000  0.75972000  1
  C  C124  1  0.35911000  0.75814000  0.14677000  1
  C  C125  1  0.16737000  0.21290000  0.69477000  1
  C  C126  1  0.19252000  0.46119000  0.44711000  1
  C  C127  1  0.85308000  0.72403000  0.20264000  1
  C  C128  1  0.80076000  0.73065000  0.24348000  1
  C  C129  1  0.24205000  0.79478000  0.18615000  1
  C  C130  1  0.33382000  0.80782000  0.18847000  1
  C  C131  1  0.93727000  0.77388000  0.22356000  1
  Cu  Cu132  1  0.58929000  0.50567000  0.52385000  1
  Cu  Cu133  1  0.01083000  0.55532000  0.54961000  1
  Cu  Cu134  1  0.45551000  0.99429000  0.44468000  1
  Cu  Cu135  1  0.46122000  0.45039000  0.00571000  1
  Cu  Cu136  1  0.06544000  0.47615000  0.98182000  1
  Cu  Cu137  1  0.91638000  0.98182000  0.50567000  1
  Cu  Cu138  1  0.08362000  0.01818000  0.49433000  1
  Cu  Cu139  1  0.93456000  0.52385000  0.01818000  1
  Cu  Cu140  1  0.53878000  0.54961000  0.99429000  1
  Cu  Cu141  1  0.54449000  0.00571000  0.55532000  1
  Cu  Cu142  1  0.98917000  0.44468000  0.45039000  1
  Cu  Cu143  1  0.41071000  0.49433000  0.47615000  1
  H  H144  1  0.02690000  0.23060000  0.80430000  1
  H  H145  1  0.22470000  0.82870000  0.21460000  1
  H  H146  1  0.79390000  0.54260000  0.51430000  1
  H  H147  1  0.25680000  0.30340000  0.77080000  1
  H  H148  1  0.47570000  0.89200000  0.18370000  1
  H  H149  1  0.57810000  0.23290000  0.85160000  1
  H  H150  1  0.79690000  0.79160000  0.33310000  1
  H  H151  1  0.46380000  0.66690000  0.45850000  1
  H  H152  1  0.88710000  0.27670000  0.85940000  1
  H  H153  1  0.70710000  0.50280000  0.64500000  1
  H  H154  1  0.02670000  0.86440000  0.29960000  1
  H  H155  1  0.95340000  0.46740000  0.69660000  1
  H  H156  1  0.35840000  0.87350000  0.31260000  1
  H  H157  1  0.06210000  0.35500000  0.85780000  1
  H  H158  1  0.31250000  0.33100000  0.88570000  1
  H  H159  1  0.98150000  0.55470000  0.66900000  1
  H  H160  1  0.51400000  0.77080000  0.46740000  1
  H  H161  1  0.04580000  0.68740000  0.56090000  1
  H  H162  1  0.35160000  0.58720000  0.66150000  1
  H  H163  1  0.99470000  0.45850000  0.79160000  1
  H  H164  1  0.69010000  0.33850000  0.92570000  1
  H  H165  1  0.72710000  0.70040000  0.56480000  1
  H  H166  1  0.20020000  0.62560000  0.66530000  1
  H  H167  1  0.53490000  0.33470000  0.96030000  1
  H  H168  1  0.61040000  0.58270000  0.72330000  1
  H  H169  1  0.79630000  0.57370000  0.76940000  1
  H  H170  1  0.79570000  0.85780000  0.50280000  1
  H  H171  1  0.77740000  0.80430000  0.57370000  1
  H  H172  1  0.34520000  0.61870000  0.76710000  1
  H  H173  1  0.01010000  0.78540000  0.61410000  1
  H  H174  1  0.58370000  0.29170000  0.10800000  1
  H  H175  1  0.57460000  0.03970000  0.37440000  1
  H  H176  1  0.25130000  0.97170000  0.45740000  1
  H  H177  1  0.83770000  0.56480000  0.86440000  1
  H  H178  1  0.51510000  0.56090000  0.87350000  1
  H  H179  1  0.57320000  0.88570000  0.55470000  1
  H  H180  1  0.97230000  0.85940000  0.58270000  1
  H  H181  1  0.60400000  0.61410000  0.82870000  1
  H  H182  1  0.27350000  0.85160000  0.61870000  1
  H  H183  1  0.70800000  0.18370000  0.29170000  1
  H  H184  1  0.72040000  0.51430000  0.97170000  1
  H  H185  1  0.76440000  0.07430000  0.41280000  1
  H  H186  1  0.23560000  0.92570000  0.58720000  1
  H  H187  1  0.27960000  0.48570000  0.02830000  1
  H  H188  1  0.29200000  0.81630000  0.70830000  1
  H  H189  1  0.72650000  0.14840000  0.38130000  1
  H  H190  1  0.39600000  0.38590000  0.17130000  1
  H  H191  1  0.02770000  0.14060000  0.41730000  1
  H  H192  1  0.42680000  0.11430000  0.44530000  1
  H  H193  1  0.48490000  0.43910000  0.12650000  1
  H  H194  1  0.16230000  0.43520000  0.13560000  1
  H  H195  1  0.74870000  0.02830000  0.54260000  1
  H  H196  1  0.42540000  0.96030000  0.62560000  1
  H  H197  1  0.41630000  0.70830000  0.89200000  1
  H  H198  1  0.98990000  0.21460000  0.38590000  1
  H  H199  1  0.65480000  0.38130000  0.23290000  1
  H  H200  1  0.22260000  0.19570000  0.42630000  1
  H  H201  1  0.20430000  0.14220000  0.49720000  1
  H  H202  1  0.20370000  0.42630000  0.23060000  1
  H  H203  1  0.38960000  0.41730000  0.27670000  1
  H  H204  1  0.46510000  0.66530000  0.03970000  1
  H  H205  1  0.79980000  0.37440000  0.33470000  1
  H  H206  1  0.27290000  0.29960000  0.43520000  1
  H  H207  1  0.30990000  0.66150000  0.07430000  1
  H  H208  1  0.00530000  0.54150000  0.20840000  1
  H  H209  1  0.64840000  0.41280000  0.33850000  1
  H  H210  1  0.95420000  0.31260000  0.43910000  1
  H  H211  1  0.48600000  0.22920000  0.53260000  1
  H  H212  1  0.01850000  0.44530000  0.33100000  1
  H  H213  1  0.68750000  0.66900000  0.11430000  1
  H  H214  1  0.93790000  0.64500000  0.14220000  1
  H  H215  1  0.64160000  0.12650000  0.68740000  1
  H  H216  1  0.04660000  0.53260000  0.30340000  1
  H  H217  1  0.97330000  0.13560000  0.70040000  1
  H  H218  1  0.29290000  0.49720000  0.35500000  1
  H  H219  1  0.11290000  0.72330000  0.14060000  1
  H  H220  1  0.53620000  0.33310000  0.54150000  1
  H  H221  1  0.20310000  0.20840000  0.66690000  1
  H  H222  1  0.42190000  0.76710000  0.14840000  1
  H  H223  1  0.52430000  0.10800000  0.81630000  1
  H  H224  1  0.74320000  0.69660000  0.22920000  1
  H  H225  1  0.20610000  0.45740000  0.48570000  1
  H  H226  1  0.77530000  0.17130000  0.78540000  1
  H  H227  1  0.97310000  0.76940000  0.19570000  1
  I  I228  1  0.07204000  0.46677000  0.56828000  1
  I  I229  1  0.50376000  0.43172000  0.89849000  1
  I  I230  1  0.39473000  0.89849000  0.46677000  1
  I  I231  1  0.60527000  0.10151000  0.53323000  1
  I  I232  1  0.49624000  0.56828000  0.10151000  1
  I  I233  1  0.92796000  0.53323000  0.43172000  1
  N  N234  1  0.73595000  0.52061000  0.57403000  1
  N  N235  1  0.89899000  0.55154000  0.58831000  1
  N  N236  1  0.53566000  0.97170000  0.27701000  1
  N  N237  1  0.11236000  0.64646000  0.60709000  1
  N  N238  1  0.46590000  0.96063000  0.35354000  1
  N  N239  1  0.56396000  0.30531000  0.02830000  1
  N  N240  1  0.16192000  0.42597000  0.94658000  1
  N  N241  1  0.31068000  0.41169000  0.96323000  1
  N  N242  1  0.25865000  0.72299000  0.69469000  1
  N  N243  1  0.50527000  0.39291000  0.03937000  1
  N  N244  1  0.78466000  0.94658000  0.52061000  1
  N  N245  1  0.34745000  0.03677000  0.44846000  1
  N  N246  1  0.65255000  0.96323000  0.55154000  1
  N  N247  1  0.21534000  0.05342000  0.47939000  1
  N  N248  1  0.49473000  0.60709000  0.96063000  1
  N  N249  1  0.74135000  0.27701000  0.30531000  1
  N  N250  1  0.68932000  0.58831000  0.03677000  1
  N  N251  1  0.83808000  0.57403000  0.05342000  1
  N  N252  1  0.43604000  0.69469000  0.97170000  1
  N  N253  1  0.53410000  0.03937000  0.64646000  1
  N  N254  1  0.88764000  0.35354000  0.39291000  1
  N  N255  1  0.46434000  0.02830000  0.72299000  1
  N  N256  1  0.10101000  0.44846000  0.41169000  1
  N  N257  1  0.26405000  0.47939000  0.42597000  1
  O  O258  1  0.46877000  0.57872000  0.48371000  1
  O  O259  1  0.41207000  0.53902000  0.56781000  1
  O  O260  1  0.62250000  0.58889000  0.52490000  1
  O  O261  1  0.56541000  0.54924000  0.60787000  1
  O  O262  1  0.89005000  0.90499000  0.42128000  1
  O  O263  1  0.95754000  0.39213000  0.94137000  1
  O  O264  1  0.03361000  0.93601000  0.41111000  1
  O  O265  1  0.01494000  0.48371000  0.90499000  1
  O  O266  1  0.84426000  0.43219000  0.97121000  1
  O  O267  1  0.90240000  0.52490000  0.93601000  1
  O  O268  1  0.87305000  0.02879000  0.46098000  1
  O  O269  1  0.98383000  0.94137000  0.54924000  1
  O  O270  1  0.01617000  0.05863000  0.45076000  1
  O  O271  1  0.12695000  0.97121000  0.53902000  1
  O  O272  1  0.09760000  0.47510000  0.06399000  1
  O  O273  1  0.15574000  0.56781000  0.02879000  1
  O  O274  1  0.98506000  0.51629000  0.09501000  1
  O  O275  1  0.96639000  0.06399000  0.58889000  1
  O  O276  1  0.04246000  0.60787000  0.05863000  1
  O  O277  1  0.10995000  0.09501000  0.57872000  1
  O  O278  1  0.43459000  0.45076000  0.39213000  1
  O  O279  1  0.37750000  0.41111000  0.47510000  1
  O  O280  1  0.58793000  0.46098000  0.43219000  1
  O  O281  1  0.53123000  0.42128000  0.51629000  1
