# generated using pymatgen
data_Cu6H29C65(NO6)4
_symmetry_space_group_name_H-M   'P 1'
_cell_length_a   18.52900000
_cell_length_b   20.79345171
_cell_length_c   20.79345171
_cell_angle_alpha   107.29737863
_cell_angle_beta   90.00000000
_cell_angle_gamma   90.00000000
_symmetry_Int_Tables_number   1
_chemical_formula_structural   Cu6H29C65(NO6)4
_chemical_formula_sum   'Cu12 H58 C130 N8 O48'
_cell_volume   7649.02226795
_cell_formula_units_Z   2
loop_
 _symmetry_equiv_pos_site_id
 _symmetry_equiv_pos_as_xyz
  1  'x, y, z'
loop_
 _atom_site_type_symbol
 _atom_site_label
 _atom_site_symmetry_multiplicity
 _atom_site_fract_x
 _atom_site_fract_y
 _atom_site_fract_z
 _atom_site_occupancy
  C  C0  1  0.25000000  0.81042000  0.18958000  1
  C  C1  1  0.75000000  0.18958000  0.81042000  1
  C  C2  1  0.29901000  0.81755000  0.09231000  1
  C  C3  1  0.20099000  0.81755000  0.09231000  1
  C  C4  1  0.79901000  0.09231000  0.81755000  1
  C  C5  1  0.70099000  0.09231000  0.81755000  1
  C  C6  1  0.25000000  0.77924000  0.12498000  1
  C  C7  1  0.75000000  0.12498000  0.77924000  1
  C  C8  1  0.84380000  0.52669000  0.32545000  1
  C  C9  1  0.65620000  0.52669000  0.32545000  1
  C  C10  1  0.34380000  0.32545000  0.52669000  1
  C  C11  1  0.15620000  0.32545000  0.52669000  1
  C  C12  1  0.25000000  0.70452000  0.09420000  1
  C  C13  1  0.75000000  0.09420000  0.70452000  1
  C  C14  1  0.89399000  0.48208000  0.27598000  1
  C  C15  1  0.60601000  0.48208000  0.27598000  1
  C  C16  1  0.39399000  0.27598000  0.48208000  1
  C  C17  1  0.10601000  0.27598000  0.48208000  1
  C  C18  1  0.31471000  0.66878000  0.08162000  1
  C  C19  1  0.18529000  0.66878000  0.08162000  1
  C  C20  1  0.81471000  0.08162000  0.66878000  1
  C  C21  1  0.68529000  0.08162000  0.66878000  1
  C  C22  1  0.91590000  0.49976000  0.22098000  1
  C  C23  1  0.58410000  0.49976000  0.22098000  1
  C  C24  1  0.41590000  0.22098000  0.49976000  1
  C  C25  1  0.08410000  0.22098000  0.49976000  1
  C  C26  1  0.91501000  0.42049000  0.28349000  1
  C  C27  1  0.58499000  0.42049000  0.28349000  1
  C  C28  1  0.41501000  0.28349000  0.42049000  1
  C  C29  1  0.08499000  0.28349000  0.42049000  1
  C  C30  1  0.31460000  0.59901000  0.05583000  1
  C  C31  1  0.18540000  0.59901000  0.05583000  1
  C  C32  1  0.81460000  0.05583000  0.59901000  1
  C  C33  1  0.68540000  0.05583000  0.59901000  1
  C  C34  1  0.95981000  0.45696000  0.17198000  1
  C  C35  1  0.54019000  0.45696000  0.17198000  1
  C  C36  1  0.45981000  0.17198000  0.45696000  1
  C  C37  1  0.04019000  0.17198000  0.45696000  1
  C  C38  1  0.95779000  0.37644000  0.23434000  1
  C  C39  1  0.54221000  0.37644000  0.23434000  1
  C  C40  1  0.45779000  0.23434000  0.37644000  1
  C  C41  1  0.04221000  0.23434000  0.37644000  1
  C  C42  1  1.00000000  0.30473000  0.30473000  1
  C  C43  1  0.50000000  0.30473000  0.30473000  1
  C  C44  1  0.25000000  0.56479000  0.04387000  1
  C  C45  1  0.75000000  0.04387000  0.56479000  1
  C  C46  1  0.38454000  0.56140000  0.03872000  1
  C  C47  1  0.11546000  0.56140000  0.03872000  1
  C  C48  1  0.88454000  0.03872000  0.56140000  1
  C  C49  1  0.61546000  0.03872000  0.56140000  1
  C  C50  1  0.97883000  0.47656000  0.10966000  1
  C  C51  1  0.52117000  0.47656000  0.10966000  1
  C  C52  1  0.47883000  0.10966000  0.47656000  1
  C  C53  1  0.02117000  0.10966000  0.47656000  1
  C  C54  1  0.97918000  0.39501000  0.17837000  1
  C  C55  1  0.52082000  0.39501000  0.17837000  1
  C  C56  1  0.47918000  0.17837000  0.39501000  1
  C  C57  1  0.02082000  0.17837000  0.39501000  1
  C  C58  1  0.47937000  0.74773000  0.81247000  1
  C  C59  1  0.02063000  0.74773000  0.81247000  1
  C  C60  1  0.97937000  0.81247000  0.74773000  1
  C  C61  1  0.52063000  0.81247000  0.74773000  1
  C  C62  1  0.97939000  0.31079000  0.24291000  1
  C  C63  1  0.52061000  0.31079000  0.24291000  1
  C  C64  1  0.47939000  0.24291000  0.31079000  1
  C  C65  1  0.02061000  0.24291000  0.31079000  1
  C  C66  1  0.47939000  0.68921000  0.75709000  1
  C  C67  1  0.02061000  0.68921000  0.75709000  1
  C  C68  1  0.97939000  0.75709000  0.68921000  1
  C  C69  1  0.52061000  0.75709000  0.68921000  1
  C  C70  1  0.97937000  0.25227000  0.18753000  1
  C  C71  1  0.52063000  0.25227000  0.18753000  1
  C  C72  1  0.47937000  0.18753000  0.25227000  1
  C  C73  1  0.02063000  0.18753000  0.25227000  1
  C  C74  1  0.47918000  0.60499000  0.82163000  1
  C  C75  1  0.02082000  0.60499000  0.82163000  1
  C  C76  1  0.97918000  0.82163000  0.60499000  1
  C  C77  1  0.52082000  0.82163000  0.60499000  1
  C  C78  1  0.47883000  0.52344000  0.89034000  1
  C  C79  1  0.02117000  0.52344000  0.89034000  1
  C  C80  1  0.97883000  0.89034000  0.52344000  1
  C  C81  1  0.52117000  0.89034000  0.52344000  1
  C  C82  1  0.88454000  0.43860000  0.96128000  1
  C  C83  1  0.61546000  0.43860000  0.96128000  1
  C  C84  1  0.38454000  0.96128000  0.43860000  1
  C  C85  1  0.11546000  0.96128000  0.43860000  1
  C  C86  1  0.75000000  0.43521000  0.95613000  1
  C  C87  1  0.25000000  0.95613000  0.43521000  1
  C  C88  1  1.00000000  0.69527000  0.69527000  1
  C  C89  1  0.50000000  0.69527000  0.69527000  1
  C  C90  1  0.45779000  0.62356000  0.76566000  1
  C  C91  1  0.04221000  0.62356000  0.76566000  1
  C  C92  1  0.95779000  0.76566000  0.62356000  1
  C  C93  1  0.54221000  0.76566000  0.62356000  1
  C  C94  1  0.45981000  0.54304000  0.82802000  1
  C  C95  1  0.04019000  0.54304000  0.82802000  1
  C  C96  1  0.95981000  0.82802000  0.54304000  1
  C  C97  1  0.54019000  0.82802000  0.54304000  1
  C  C98  1  0.81460000  0.40099000  0.94417000  1
  C  C99  1  0.68540000  0.40099000  0.94417000  1
  C  C100  1  0.31460000  0.94417000  0.40099000  1
  C  C101  1  0.18540000  0.94417000  0.40099000  1
  C  C102  1  0.41501000  0.57951000  0.71651000  1
  C  C103  1  0.08499000  0.57951000  0.71651000  1
  C  C104  1  0.91501000  0.71651000  0.57951000  1
  C  C105  1  0.58499000  0.71651000  0.57951000  1
  C  C106  1  0.41590000  0.50024000  0.77902000  1
  C  C107  1  0.08410000  0.50024000  0.77902000  1
  C  C108  1  0.91590000  0.77902000  0.50024000  1
  C  C109  1  0.58410000  0.77902000  0.50024000  1
  C  C110  1  0.81471000  0.33122000  0.91838000  1
  C  C111  1  0.68529000  0.33122000  0.91838000  1
  C  C112  1  0.31471000  0.91838000  0.33122000  1
  C  C113  1  0.18529000  0.91838000  0.33122000  1
  C  C114  1  0.39399000  0.51792000  0.72402000  1
  C  C115  1  0.10601000  0.51792000  0.72402000  1
  C  C116  1  0.89399000  0.72402000  0.51792000  1
  C  C117  1  0.60601000  0.72402000  0.51792000  1
  C  C118  1  0.75000000  0.29548000  0.90580000  1
  C  C119  1  0.25000000  0.90580000  0.29548000  1
  C  C120  1  0.34380000  0.47331000  0.67455000  1
  C  C121  1  0.15620000  0.47331000  0.67455000  1
  C  C122  1  0.84380000  0.67455000  0.47331000  1
  C  C123  1  0.65620000  0.67455000  0.47331000  1
  C  C124  1  0.75000000  0.22076000  0.87502000  1
  C  C125  1  0.25000000  0.87502000  0.22076000  1
  C  C126  1  0.79901000  0.18245000  0.90769000  1
  C  C127  1  0.70099000  0.18245000  0.90769000  1
  C  C128  1  0.29901000  0.90769000  0.18245000  1
  C  C129  1  0.20099000  0.90769000  0.18245000  1
  Cu  Cu130  1  0.75000000  0.63979000  0.36021000  1
  Cu  Cu131  1  0.75000000  0.56082000  0.43918000  1
  Cu  Cu132  1  0.25000000  0.43918000  0.56082000  1
  Cu  Cu133  1  0.25000000  0.36021000  0.63979000  1
  Cu  Cu134  1  0.96367000  0.55725000  0.02271000  1
  Cu  Cu135  1  0.53633000  0.55725000  0.02271000  1
  Cu  Cu136  1  0.46367000  0.02271000  0.55725000  1
  Cu  Cu137  1  0.03633000  0.02271000  0.55725000  1
  Cu  Cu138  1  0.46367000  0.44275000  0.97729000  1
  Cu  Cu139  1  0.03633000  0.44275000  0.97729000  1
  Cu  Cu140  1  0.96367000  0.97729000  0.44275000  1
  Cu  Cu141  1  0.53633000  0.97729000  0.44275000  1
  H  H142  1  0.25000000  0.78210000  0.21790000  1
  H  H143  1  0.75000000  0.21790000  0.78210000  1
  H  H144  1  0.31910000  0.79450000  0.04970000  1
  H  H145  1  0.18090000  0.79450000  0.04970000  1
  H  H146  1  0.81910000  0.04970000  0.79450000  1
  H  H147  1  0.68090000  0.04970000  0.79450000  1
  H  H148  1  0.35930000  0.69240000  0.09080000  1
  H  H149  1  0.14070000  0.69240000  0.09080000  1
  H  H150  1  0.85930000  0.09080000  0.69240000  1
  H  H151  1  0.64070000  0.09080000  0.69240000  1
  H  H152  1  0.90110000  0.54170000  0.21590000  1
  H  H153  1  0.59890000  0.54170000  0.21590000  1
  H  H154  1  0.40110000  0.21590000  0.54170000  1
  H  H155  1  0.09890000  0.21590000  0.54170000  1
  H  H156  1  0.90030000  0.40830000  0.32210000  1
  H  H157  1  0.59970000  0.40830000  0.32210000  1
  H  H158  1  0.40030000  0.32210000  0.40830000  1
  H  H159  1  0.09970000  0.32210000  0.40830000  1
  H  H160  1  1.00000000  0.34330000  0.34330000  1
  H  H161  1  0.50000000  0.34330000  0.34330000  1
  H  H162  1  0.46410000  0.74440000  0.85500000  1
  H  H163  1  0.03590000  0.74440000  0.85500000  1
  H  H164  1  0.96410000  0.85500000  0.74440000  1
  H  H165  1  0.53590000  0.85500000  0.74440000  1
  H  H166  1  0.25000000  0.51700000  0.02720000  1
  H  H167  1  0.75000000  0.02720000  0.51700000  1
  H  H168  1  0.49270000  0.36490000  0.14430000  1
  H  H169  1  0.00730000  0.36490000  0.14430000  1
  H  H170  1  0.99270000  0.14430000  0.36490000  1
  H  H171  1  0.50730000  0.14430000  0.36490000  1
  H  H172  1  0.99270000  0.63510000  0.85570000  1
  H  H173  1  0.50730000  0.63510000  0.85570000  1
  H  H174  1  0.49270000  0.85570000  0.63510000  1
  H  H175  1  0.00730000  0.85570000  0.63510000  1
  H  H176  1  0.75000000  0.48300000  0.97280000  1
  H  H177  1  0.25000000  0.97280000  0.48300000  1
  H  H178  1  0.96410000  0.25560000  0.14500000  1
  H  H179  1  0.53590000  0.25560000  0.14500000  1
  H  H180  1  0.46410000  0.14500000  0.25560000  1
  H  H181  1  0.03590000  0.14500000  0.25560000  1
  H  H182  1  1.00000000  0.65670000  0.65670000  1
  H  H183  1  0.50000000  0.65670000  0.65670000  1
  H  H184  1  0.40030000  0.59170000  0.67790000  1
  H  H185  1  0.09970000  0.59170000  0.67790000  1
  H  H186  1  0.90030000  0.67790000  0.59170000  1
  H  H187  1  0.59970000  0.67790000  0.59170000  1
  H  H188  1  0.40110000  0.45830000  0.78410000  1
  H  H189  1  0.09890000  0.45830000  0.78410000  1
  H  H190  1  0.90110000  0.78410000  0.45830000  1
  H  H191  1  0.59890000  0.78410000  0.45830000  1
  H  H192  1  0.85930000  0.30760000  0.90920000  1
  H  H193  1  0.64070000  0.30760000  0.90920000  1
  H  H194  1  0.35930000  0.90920000  0.30760000  1
  H  H195  1  0.14070000  0.90920000  0.30760000  1
  H  H196  1  0.81910000  0.20550000  0.95030000  1
  H  H197  1  0.68090000  0.20550000  0.95030000  1
  H  H198  1  0.31910000  0.95030000  0.20550000  1
  H  H199  1  0.18090000  0.95030000  0.20550000  1
  N  N200  1  0.31560000  0.88085000  0.11915000  1
  N  N201  1  0.18440000  0.88085000  0.11915000  1
  N  N202  1  0.81560000  0.11915000  0.88085000  1
  N  N203  1  0.68440000  0.11915000  0.88085000  1
  N  N204  1  1.00000000  0.80790000  0.80790000  1
  N  N205  1  0.50000000  0.80790000  0.80790000  1
  N  N206  1  1.00000000  0.19210000  0.19210000  1
  N  N207  1  0.50000000  0.19210000  0.19210000  1
  O  O208  1  0.82398000  0.57990000  0.31136000  1
  O  O209  1  0.67602000  0.57990000  0.31136000  1
  O  O210  1  0.32398000  0.31136000  0.57990000  1
  O  O211  1  0.17602000  0.31136000  0.57990000  1
  O  O212  1  0.82400000  0.51025000  0.37571000  1
  O  O213  1  0.67600000  0.51025000  0.37571000  1
  O  O214  1  0.32400000  0.37571000  0.51025000  1
  O  O215  1  0.17600000  0.37571000  0.51025000  1
  O  O216  1  0.44150000  0.59593000  0.05147000  1
  O  O217  1  0.05850000  0.59593000  0.05147000  1
  O  O218  1  0.94150000  0.05147000  0.59593000  1
  O  O219  1  0.55850000  0.05147000  0.59593000  1
  O  O220  1  0.95465000  0.53067000  0.10451000  1
  O  O221  1  0.54535000  0.53067000  0.10451000  1
  O  O222  1  0.45465000  0.10451000  0.53067000  1
  O  O223  1  0.04535000  0.10451000  0.53067000  1
  O  O224  1  0.38052000  0.49932000  0.01240000  1
  O  O225  1  0.11948000  0.49932000  0.01240000  1
  O  O226  1  0.88052000  0.01240000  0.49932000  1
  O  O227  1  0.61948000  0.01240000  0.49932000  1
  O  O228  1  0.48504000  0.43407000  0.06721000  1
  O  O229  1  0.01496000  0.43407000  0.06721000  1
  O  O230  1  0.98504000  0.06721000  0.43407000  1
  O  O231  1  0.51496000  0.06721000  0.43407000  1
  O  O232  1  0.98504000  0.56593000  0.93279000  1
  O  O233  1  0.51496000  0.56593000  0.93279000  1
  O  O234  1  0.48504000  0.93279000  0.56593000  1
  O  O235  1  0.01496000  0.93279000  0.56593000  1
  O  O236  1  0.88052000  0.50068000  0.98760000  1
  O  O237  1  0.61948000  0.50068000  0.98760000  1
  O  O238  1  0.38052000  0.98760000  0.50068000  1
  O  O239  1  0.11948000  0.98760000  0.50068000  1
  O  O240  1  0.45465000  0.46933000  0.89549000  1
  O  O241  1  0.04535000  0.46933000  0.89549000  1
  O  O242  1  0.95465000  0.89549000  0.46933000  1
  O  O243  1  0.54535000  0.89549000  0.46933000  1
  O  O244  1  0.94150000  0.40407000  0.94853000  1
  O  O245  1  0.55850000  0.40407000  0.94853000  1
  O  O246  1  0.44150000  0.94853000  0.40407000  1
  O  O247  1  0.05850000  0.94853000  0.40407000  1
  O  O248  1  0.32400000  0.48975000  0.62429000  1
  O  O249  1  0.17600000  0.48975000  0.62429000  1
  O  O250  1  0.82400000  0.62429000  0.48975000  1
  O  O251  1  0.67600000  0.62429000  0.48975000  1
  O  O252  1  0.32398000  0.42010000  0.68864000  1
  O  O253  1  0.17602000  0.42010000  0.68864000  1
  O  O254  1  0.82398000  0.68864000  0.42010000  1
  O  O255  1  0.67602000  0.68864000  0.42010000  1
