# generated using pymatgen
data_ZnH3C8NO4
_symmetry_space_group_name_H-M   'P 1'
_cell_length_a   19.44870613
_cell_length_b   19.44870613
_cell_length_c   21.76720000
_cell_angle_alpha   64.20636397
_cell_angle_beta   64.20636397
_cell_angle_gamma   60.62791646
_symmetry_Int_Tables_number   1
_chemical_formula_structural   ZnH3C8NO4
_chemical_formula_sum   'Zn12 H36 C96 N12 O48'
_cell_volume   6196.95716333
_cell_formula_units_Z   12
loop_
 _symmetry_equiv_pos_site_id
 _symmetry_equiv_pos_as_xyz
  1  'x, y, z'
loop_
 _atom_site_type_symbol
 _atom_site_label
 _atom_site_symmetry_multiplicity
 _atom_site_fract_x
 _atom_site_fract_y
 _atom_site_fract_z
 _atom_site_occupancy
  C  C0  1  0.40762000  0.17570000  0.78145000  1
  C  C1  1  0.67570000  0.90762000  0.28145000  1
  C  C2  1  0.84960000  0.71662000  0.29460000  1
  C  C3  1  0.21662000  0.34960000  0.79460000  1
  C  C4  1  0.47421000  0.52109000  0.08042000  1
  C  C5  1  0.02109000  0.97421000  0.58042000  1
  C  C6  1  0.40927000  0.58007000  0.11354000  1
  C  C7  1  0.08007000  0.90927000  0.61354000  1
  C  C8  1  0.96209000  0.03567000  0.61216000  1
  C  C9  1  0.53567000  0.46209000  0.11216000  1
  C  C10  1  0.47569000  0.14441000  0.81438000  1
  C  C11  1  0.64441000  0.97569000  0.31438000  1
  C  C12  1  0.91863000  0.67815000  0.32721000  1
  C  C13  1  0.17815000  0.41863000  0.82721000  1
  C  C14  1  0.54168000  0.17078000  0.77858000  1
  C  C15  1  0.67078000  0.04168000  0.27858000  1
  C  C16  1  0.98259000  0.70635000  0.29681000  1
  C  C17  1  0.20635000  0.48259000  0.79681000  1
  C  C18  1  0.91790000  0.61410000  0.39009000  1
  C  C19  1  0.11410000  0.41790000  0.89009000  1
  C  C20  1  0.47000000  0.09140000  0.88231000  1
  C  C21  1  0.59140000  0.97000000  0.38231000  1
  C  C22  1  0.40457000  0.57773000  0.18009000  1
  C  C23  1  0.07773000  0.90457000  0.68009000  1
  C  C24  1  0.95941000  0.03189000  0.67830000  1
  C  C25  1  0.53189000  0.45941000  0.17830000  1
  C  C26  1  0.60077000  0.14601000  0.81114000  1
  C  C27  1  0.64601000  0.10077000  0.31114000  1
  C  C28  1  0.04380000  0.67330000  0.32977000  1
  C  C29  1  0.17330000  0.54380000  0.82977000  1
  C  C30  1  0.66912000  0.17802000  0.77596000  1
  C  C31  1  0.67802000  0.16912000  0.27596000  1
  C  C32  1  0.98007000  0.57947000  0.42170000  1
  C  C33  1  0.07947000  0.48007000  0.92170000  1
  C  C34  1  0.33480000  0.64318000  0.21427000  1
  C  C35  1  0.14318000  0.83480000  0.71427000  1
  C  C36  1  0.46520000  0.51680000  0.21271000  1
  C  C37  1  0.01680000  0.96520000  0.71271000  1
  C  C38  1  0.11026000  0.70758000  0.29869000  1
  C  C39  1  0.20758000  0.61026000  0.79869000  1
  C  C40  1  0.89490000  0.10022000  0.71108000  1
  C  C41  1  0.60022000  0.39490000  0.21108000  1
  C  C42  1  0.53000000  0.06480000  0.91481000  1
  C  C43  1  0.56480000  0.03000000  0.41481000  1
  C  C44  1  0.04290000  0.60970000  0.39228000  1
  C  C45  1  0.10970000  0.54290000  0.89228000  1
  C  C46  1  0.59444000  0.09224000  0.87976000  1
  C  C47  1  0.59224000  0.09444000  0.37976000  1
  C  C48  1  0.40556000  0.90776000  0.12024000  1
  C  C49  1  0.40776000  0.90556000  0.62024000  1
  C  C50  1  0.95710000  0.39030000  0.60772000  1
  C  C51  1  0.89030000  0.45710000  0.10772000  1
  C  C52  1  0.47000000  0.93520000  0.08519000  1
  C  C53  1  0.43520000  0.97000000  0.58519000  1
  C  C54  1  0.10510000  0.89978000  0.28892000  1
  C  C55  1  0.39978000  0.60510000  0.78892000  1
  C  C56  1  0.88974000  0.29242000  0.70131000  1
  C  C57  1  0.79242000  0.38974000  0.20131000  1
  C  C58  1  0.53480000  0.48320000  0.78729000  1
  C  C59  1  0.98320000  0.03480000  0.28729000  1
  C  C60  1  0.66520000  0.35682000  0.78573000  1
  C  C61  1  0.85682000  0.16520000  0.28573000  1
  C  C62  1  0.01993000  0.42053000  0.57830000  1
  C  C63  1  0.92053000  0.51993000  0.07830000  1
  C  C64  1  0.33088000  0.82198000  0.22404000  1
  C  C65  1  0.32198000  0.83088000  0.72404000  1
  C  C66  1  0.95620000  0.32670000  0.67023000  1
  C  C67  1  0.82670000  0.45620000  0.17023000  1
  C  C68  1  0.39923000  0.85399000  0.18886000  1
  C  C69  1  0.35399000  0.89923000  0.68886000  1
  C  C70  1  0.04059000  0.96811000  0.32170000  1
  C  C71  1  0.46811000  0.54059000  0.82170000  1
  C  C72  1  0.59543000  0.42227000  0.81991000  1
  C  C73  1  0.92227000  0.09543000  0.31991000  1
  C  C74  1  0.53000000  0.90860000  0.11769000  1
  C  C75  1  0.40860000  0.03000000  0.61769000  1
  C  C76  1  0.08210000  0.38590000  0.60991000  1
  C  C77  1  0.88590000  0.58210000  0.10991000  1
  C  C78  1  0.01741000  0.29365000  0.70319000  1
  C  C79  1  0.79365000  0.51741000  0.20319000  1
  C  C80  1  0.45832000  0.82922000  0.22142000  1
  C  C81  1  0.32922000  0.95832000  0.72142000  1
  C  C82  1  0.08137000  0.32185000  0.67279000  1
  C  C83  1  0.82185000  0.58137000  0.17279000  1
  C  C84  1  0.52431000  0.85559000  0.18562000  1
  C  C85  1  0.35559000  0.02431000  0.68562000  1
  C  C86  1  0.03791000  0.96433000  0.38784000  1
  C  C87  1  0.46433000  0.53791000  0.88784000  1
  C  C88  1  0.59073000  0.41993000  0.88646000  1
  C  C89  1  0.91993000  0.09073000  0.38646000  1
  C  C90  1  0.52579000  0.47891000  0.91958000  1
  C  C91  1  0.97891000  0.02579000  0.41958000  1
  C  C92  1  0.15040000  0.28338000  0.70540000  1
  C  C93  1  0.78338000  0.65040000  0.20540000  1
  C  C94  1  0.59238000  0.82430000  0.21855000  1
  C  C95  1  0.32430000  0.09238000  0.71855000  1
  H  H96  1  0.36900000  0.62100000  0.09130000  1
  H  H97  1  0.12100000  0.86900000  0.59130000  1
  H  H98  1  0.92390000  0.07990000  0.58910000  1
  H  H99  1  0.57990000  0.42390000  0.08910000  1
  H  H100  1  0.54610000  0.20530000  0.73240000  1
  H  H101  1  0.70530000  0.04610000  0.23240000  1
  H  H102  1  0.98460000  0.74780000  0.25390000  1
  H  H103  1  0.24780000  0.48460000  0.75390000  1
  H  H104  1  0.87530000  0.59470000  0.41090000  1
  H  H105  1  0.09470000  0.37530000  0.91090000  1
  H  H106  1  0.42630000  0.07350000  0.90630000  1
  H  H107  1  0.57350000  0.92630000  0.40630000  1
  H  H108  1  0.36610000  0.92530000  0.09790000  1
  H  H109  1  0.42530000  0.86610000  0.59790000  1
  H  H110  1  0.46140000  0.51420000  0.25770000  1
  H  H111  1  0.01420000  0.96140000  0.75770000  1
  H  H112  1  0.08380000  0.58740000  0.41440000  1
  H  H113  1  0.91620000  0.41260000  0.58560000  1
  H  H114  1  0.91260000  0.41620000  0.08560000  1
  H  H115  1  0.08740000  0.58380000  0.91440000  1
  H  H116  1  0.53860000  0.48580000  0.74230000  1
  H  H117  1  0.98580000  0.03860000  0.24230000  1
  H  H118  1  0.63390000  0.07470000  0.90210000  1
  H  H119  1  0.57470000  0.13390000  0.40210000  1
  H  H120  1  0.57370000  0.92650000  0.09370000  1
  H  H121  1  0.42650000  0.07370000  0.59370000  1
  H  H122  1  0.12470000  0.40530000  0.58910000  1
  H  H123  1  0.90530000  0.62470000  0.08910000  1
  H  H124  1  0.01540000  0.25220000  0.74610000  1
  H  H125  1  0.75220000  0.51540000  0.24610000  1
  H  H126  1  0.45390000  0.79470000  0.26760000  1
  H  H127  1  0.29470000  0.95390000  0.76760000  1
  H  H128  1  0.07610000  0.92010000  0.41090000  1
  H  H129  1  0.42010000  0.57610000  0.91090000  1
  H  H130  1  0.63100000  0.37900000  0.90870000  1
  H  H131  1  0.87900000  0.13100000  0.40870000  1
  N  N132  1  0.47158000  0.52790000  0.01312000  1
  N  N133  1  0.02790000  0.97158000  0.51312000  1
  N  N134  1  0.97393000  0.51319000  0.48510000  1
  N  N135  1  0.01319000  0.47393000  0.98510000  1
  N  N136  1  0.46974000  0.98996000  0.01575000  1
  N  N137  1  0.48996000  0.96974000  0.51575000  1
  N  N138  1  0.53026000  0.01004000  0.98425000  1
  N  N139  1  0.51004000  0.03026000  0.48425000  1
  N  N140  1  0.02607000  0.48681000  0.51490000  1
  N  N141  1  0.98681000  0.52607000  0.01490000  1
  N  N142  1  0.52842000  0.47210000  0.98688000  1
  N  N143  1  0.97210000  0.02842000  0.48688000  1
  O  O144  1  0.41958000  0.21662000  0.71706000  1
  O  O145  1  0.71662000  0.91958000  0.21706000  1
  O  O146  1  0.85357000  0.77219000  0.23655000  1
  O  O147  1  0.27219000  0.35357000  0.73655000  1
  O  O148  1  0.79206000  0.68988000  0.32928000  1
  O  O149  1  0.18988000  0.29206000  0.82928000  1
  O  O150  1  0.34482000  0.15924000  0.82126000  1
  O  O151  1  0.65924000  0.84482000  0.32126000  1
  O  O152  1  0.67750000  0.22092000  0.71239000  1
  O  O153  1  0.72092000  0.17750000  0.21239000  1
  O  O154  1  0.28698000  0.69934000  0.17779000  1
  O  O155  1  0.19934000  0.78698000  0.67779000  1
  O  O156  1  0.11339000  0.75905000  0.23789000  1
  O  O157  1  0.25905000  0.61339000  0.73789000  1
  O  O158  1  0.85387000  0.16239000  0.67205000  1
  O  O159  1  0.66239000  0.35387000  0.17205000  1
  O  O160  1  0.11253000  0.90973000  0.22534000  1
  O  O161  1  0.40973000  0.61253000  0.72534000  1
  O  O162  1  0.66998000  0.36216000  0.72459000  1
  O  O163  1  0.86216000  0.16998000  0.22459000  1
  O  O164  1  0.84362000  0.31662000  0.66387000  1
  O  O165  1  0.81662000  0.34362000  0.16387000  1
  O  O166  1  0.28768000  0.84014000  0.18556000  1
  O  O167  1  0.34014000  0.78768000  0.68556000  1
  O  O168  1  0.71232000  0.15986000  0.81444000  1
  O  O169  1  0.65986000  0.21232000  0.31444000  1
  O  O170  1  0.15638000  0.68338000  0.33613000  1
  O  O171  1  0.18338000  0.65638000  0.83613000  1
  O  O172  1  0.33002000  0.63784000  0.27541000  1
  O  O173  1  0.13784000  0.83002000  0.77541000  1
  O  O174  1  0.88747000  0.09027000  0.77466000  1
  O  O175  1  0.59027000  0.38747000  0.27466000  1
  O  O176  1  0.14613000  0.83761000  0.32795000  1
  O  O177  1  0.33761000  0.64613000  0.82795000  1
  O  O178  1  0.88661000  0.24095000  0.76211000  1
  O  O179  1  0.74095000  0.38661000  0.26211000  1
  O  O180  1  0.71302000  0.30066000  0.82221000  1
  O  O181  1  0.80066000  0.21302000  0.32221000  1
  O  O182  1  0.32250000  0.77908000  0.28761000  1
  O  O183  1  0.27908000  0.82250000  0.78761000  1
  O  O184  1  0.65518000  0.84076000  0.17874000  1
  O  O185  1  0.34076000  0.15518000  0.67874000  1
  O  O186  1  0.20794000  0.31012000  0.67072000  1
  O  O187  1  0.81012000  0.70794000  0.17072000  1
  O  O188  1  0.14643000  0.22781000  0.76345000  1
  O  O189  1  0.72781000  0.64643000  0.26345000  1
  O  O190  1  0.58042000  0.78338000  0.28294000  1
  O  O191  1  0.28338000  0.08042000  0.78294000  1
  Zn  Zn192  1  0.23005000  0.17967000  0.81887000  1
  Zn  Zn193  1  0.67967000  0.73005000  0.31887000  1
  Zn  Zn194  1  0.76056000  0.27560000  0.67340000  1
  Zn  Zn195  1  0.77560000  0.26056000  0.17340000  1
  Zn  Zn196  1  0.19785000  0.81149000  0.18783000  1
  Zn  Zn197  1  0.31149000  0.69785000  0.68783000  1
  Zn  Zn198  1  0.80215000  0.18851000  0.81217000  1
  Zn  Zn199  1  0.68851000  0.30215000  0.31217000  1
  Zn  Zn200  1  0.23944000  0.72440000  0.32660000  1
  Zn  Zn201  1  0.22440000  0.73944000  0.82660000  1
  Zn  Zn202  1  0.76995000  0.82033000  0.18113000  1
  Zn  Zn203  1  0.32033000  0.26995000  0.68113000  1
