# generated using pymatgen
data_NdH9(C3O)6
_symmetry_space_group_name_H-M   'P 1'
_cell_length_a   9.83200000
_cell_length_b   13.79490000
_cell_length_c   21.32180000
_cell_angle_alpha   90.00000000
_cell_angle_beta   90.00000000
_cell_angle_gamma   105.60200000
_symmetry_Int_Tables_number   1
_chemical_formula_structural   NdH9(C3O)6
_chemical_formula_sum   'Nd4 H36 C72 O24'
_cell_volume   2785.34922395
_cell_formula_units_Z   4
loop_
 _symmetry_equiv_pos_site_id
 _symmetry_equiv_pos_as_xyz
  1  'x, y, z'
loop_
 _atom_site_type_symbol
 _atom_site_label
 _atom_site_symmetry_multiplicity
 _atom_site_fract_x
 _atom_site_fract_y
 _atom_site_fract_z
 _atom_site_occupancy
  Nd  Nd0  1  0.76124000  0.01486000  0.48439000  1
  Nd  Nd1  1  0.73876000  0.48514000  0.98439000  1
  Nd  Nd2  1  0.26124000  0.51486000  0.01562000  1
  Nd  Nd3  1  0.23876000  0.98514000  0.51562000  1
  H  H4  1  0.94420000  0.16610000  0.04260000  1
  H  H5  1  0.83580000  0.34860000  0.80360000  1
  H  H6  1  0.81310000  0.83490000  0.30050000  1
  H  H7  1  0.79840000  0.13960000  0.63010000  1
  H  H8  1  0.79820000  0.67300000  0.55470000  1
  H  H9  1  0.76950000  0.99900000  0.06580000  1
  H  H10  1  0.76740000  0.61520000  0.13290000  1
  H  H11  1  0.76710000  0.77300000  0.70540000  1
  H  H12  1  0.75510000  0.24310000  0.70820000  1
  H  H13  1  0.74490000  0.25690000  0.20820000  1
  H  H14  1  0.73290000  0.72700000  0.20540000  1
  H  H15  1  0.73260000  0.88480000  0.63290000  1
  H  H16  1  0.73050000  0.50100000  0.56580000  1
  H  H17  1  0.70180000  0.82700000  0.05470000  1
  H  H18  1  0.70160000  0.36040000  0.13010000  1
  H  H19  1  0.68690000  0.66510000  0.80050000  1
  H  H20  1  0.66420000  0.15140000  0.30360000  1
  H  H21  1  0.55580000  0.33390000  0.54260000  1
  H  H22  1  0.44420000  0.66610000  0.45740000  1
  H  H23  1  0.33580000  0.84860000  0.69640000  1
  H  H24  1  0.31310000  0.33490000  0.19950000  1
  H  H25  1  0.29840000  0.63960000  0.86990000  1
  H  H26  1  0.29820000  0.17300000  0.94530000  1
  H  H27  1  0.26950000  0.49900000  0.43420000  1
  H  H28  1  0.26740000  0.11520000  0.36710000  1
  H  H29  1  0.26710000  0.27300000  0.79460000  1
  H  H30  1  0.25510000  0.74310000  0.79180000  1
  H  H31  1  0.24490000  0.75690000  0.29180000  1
  H  H32  1  0.23290000  0.22700000  0.29460000  1
  H  H33  1  0.23260000  0.38480000  0.86710000  1
  H  H34  1  0.23050000  0.00100000  0.93420000  1
  H  H35  1  0.20180000  0.32700000  0.44530000  1
  H  H36  1  0.20160000  0.86040000  0.36990000  1
  H  H37  1  0.18690000  0.16510000  0.69950000  1
  H  H38  1  0.16420000  0.65140000  0.19640000  1
  H  H39  1  0.05580000  0.83390000  0.95740000  1
  C  C40  1  0.99940000  0.14260000  0.65780000  1
  C  C41  1  0.99850000  0.86850000  0.97900000  1
  C  C42  1  0.99840000  0.44410000  0.89400000  1
  C  C43  1  0.97290000  0.62260000  0.15760000  1
  C  C44  1  0.96900000  0.91990000  0.39580000  1
  C  C45  1  0.95610000  0.02520000  0.01620000  1
  C  C46  1  0.94610000  0.26950000  0.75290000  1
  C  C47  1  0.92490000  0.33440000  0.80060000  1
  C  C48  1  0.92320000  0.75390000  0.24980000  1
  C  C49  1  0.90090000  0.81850000  0.29860000  1
  C  C50  1  0.87540000  0.81550000  0.00440000  1
  C  C51  1  0.86910000  0.16640000  0.66050000  1
  C  C52  1  0.84380000  0.22800000  0.70690000  1
  C  C53  1  0.84100000  0.64550000  0.16130000  1
  C  C54  1  0.83090000  0.70300000  0.99800000  1
  C  C55  1  0.82810000  0.96660000  0.04320000  1
  C  C56  1  0.82040000  0.71010000  0.20490000  1
  C  C57  1  0.78840000  0.86500000  0.03700000  1
  C  C58  1  0.71160000  0.63500000  0.53700000  1
  C  C59  1  0.67960000  0.78990000  0.70490000  1
  C  C60  1  0.67190000  0.53340000  0.54320000  1
  C  C61  1  0.66910000  0.79700000  0.49800000  1
  C  C62  1  0.65900000  0.85450000  0.66130000  1
  C  C63  1  0.65620000  0.27200000  0.20690000  1
  C  C64  1  0.63090000  0.33360000  0.16050000  1
  C  C65  1  0.62460000  0.68450000  0.50440000  1
  C  C66  1  0.59910000  0.68150000  0.79860000  1
  C  C67  1  0.57680000  0.74610000  0.74980000  1
  C  C68  1  0.57510000  0.16560000  0.30060000  1
  C  C69  1  0.55390000  0.23050000  0.25290000  1
  C  C70  1  0.54390000  0.47480000  0.51620000  1
  C  C71  1  0.53100000  0.58010000  0.89580000  1
  C  C72  1  0.52710000  0.87740000  0.65760000  1
  C  C73  1  0.50160000  0.05590000  0.39400000  1
  C  C74  1  0.50150000  0.63150000  0.47900000  1
  C  C75  1  0.50060000  0.35740000  0.15780000  1
  C  C76  1  0.49940000  0.64260000  0.84220000  1
  C  C77  1  0.49850000  0.36850000  0.52100000  1
  C  C78  1  0.49840000  0.94410000  0.60600000  1
  C  C79  1  0.47290000  0.12260000  0.34240000  1
  C  C80  1  0.46900000  0.41990000  0.10420000  1
  C  C81  1  0.45610000  0.52520000  0.48380000  1
  C  C82  1  0.44610000  0.76950000  0.74710000  1
  C  C83  1  0.42490000  0.83440000  0.69940000  1
  C  C84  1  0.42320000  0.25390000  0.25020000  1
  C  C85  1  0.40090000  0.31850000  0.20140000  1
  C  C86  1  0.37540000  0.31550000  0.49560000  1
  C  C87  1  0.36910000  0.66640000  0.83950000  1
  C  C88  1  0.34380000  0.72800000  0.79310000  1
  C  C89  1  0.34100000  0.14550000  0.33870000  1
  C  C90  1  0.33090000  0.20300000  0.50200000  1
  C  C91  1  0.32810000  0.46660000  0.45680000  1
  C  C92  1  0.32040000  0.21010000  0.29510000  1
  C  C93  1  0.28840000  0.36500000  0.46300000  1
  C  C94  1  0.21160000  0.13500000  0.96300000  1
  C  C95  1  0.17960000  0.28990000  0.79510000  1
  C  C96  1  0.17190000  0.03340000  0.95680000  1
  C  C97  1  0.16910000  0.29700000  0.00200000  1
  C  C98  1  0.15900000  0.35450000  0.83870000  1
  C  C99  1  0.15620000  0.77200000  0.29310000  1
  C  C100  1  0.13090000  0.83360000  0.33950000  1
  C  C101  1  0.12460000  0.18450000  0.99560000  1
  C  C102  1  0.09910000  0.18150000  0.70140000  1
  C  C103  1  0.07680000  0.24610000  0.75020000  1
  C  C104  1  0.07510000  0.66560000  0.19940000  1
  C  C105  1  0.05390000  0.73050000  0.24710000  1
  C  C106  1  0.04390000  0.97480000  0.98380000  1
  C  C107  1  0.03100000  0.08010000  0.60420000  1
  C  C108  1  0.02710000  0.37740000  0.84240000  1
  C  C109  1  0.00160000  0.55590000  0.10600000  1
  C  C110  1  0.00150000  0.13150000  0.02100000  1
  C  C111  1  0.00060000  0.85740000  0.34220000  1
  O  O112  1  0.93930000  0.05190000  0.56200000  1
  O  O113  1  0.91100000  0.65850000  0.97080000  1
  O  O114  1  0.90180000  0.51470000  0.06996000  1
  O  O115  1  0.87640000  0.45480000  0.89750000  1
  O  O116  1  0.85150000  0.93910000  0.39497000  1
  O  O117  1  0.78720000  0.84650000  0.51980000  1
  O  O118  1  0.71280000  0.65350000  0.01980000  1
  O  O119  1  0.64850000  0.56090000  0.89497000  1
  O  O120  1  0.62360000  0.04520000  0.39750000  1
  O  O121  1  0.59820000  0.98530000  0.56996000  1
  O  O122  1  0.58900000  0.84150000  0.47080000  1
  O  O123  1  0.56070000  0.44810000  0.06200000  1
  O  O124  1  0.43930000  0.55190000  0.93800000  1
  O  O125  1  0.41100000  0.15850000  0.52920000  1
  O  O126  1  0.40180000  0.01470000  0.43004000  1
  O  O127  1  0.37640000  0.95480000  0.60250000  1
  O  O128  1  0.35150000  0.43910000  0.10503000  1
  O  O129  1  0.28720000  0.34650000  0.98020000  1
  O  O130  1  0.21280000  0.15350000  0.48020000  1
  O  O131  1  0.14850000  0.06090000  0.60503000  1
  O  O132  1  0.12360000  0.54520000  0.10250000  1
  O  O133  1  0.09820000  0.48530000  0.93004000  1
  O  O134  1  0.08900000  0.34150000  0.02920000  1
  O  O135  1  0.06070000  0.94810000  0.43800000  1
