# generated using pymatgen
data_ZnH12C19NO5
_symmetry_space_group_name_H-M   'P 1'
_cell_length_a   11.06440000
_cell_length_b   16.77580000
_cell_length_c   22.43170000
_cell_angle_alpha   90.00000000
_cell_angle_beta   90.00000000
_cell_angle_gamma   90.00000000
_symmetry_Int_Tables_number   1
_chemical_formula_structural   ZnH12C19NO5
_chemical_formula_sum   'Zn8 H96 C152 N8 O40'
_cell_volume   4163.64118697
_cell_formula_units_Z   8
loop_
 _symmetry_equiv_pos_site_id
 _symmetry_equiv_pos_as_xyz
  1  'x, y, z'
loop_
 _atom_site_type_symbol
 _atom_site_label
 _atom_site_symmetry_multiplicity
 _atom_site_fract_x
 _atom_site_fract_y
 _atom_site_fract_z
 _atom_site_occupancy
  Zn  Zn0  1  0.09374000  0.05903000  0.50876000  1
  Zn  Zn1  1  0.09374000  0.44097000  0.00876000  1
  Zn  Zn2  1  0.09374000  0.55903000  0.49124000  1
  Zn  Zn3  1  0.09374000  0.94097000  0.99124000  1
  Zn  Zn4  1  0.90626000  0.05903000  0.00876000  1
  Zn  Zn5  1  0.90626000  0.44097000  0.50876000  1
  Zn  Zn6  1  0.90626000  0.55903000  0.99124000  1
  Zn  Zn7  1  0.90626000  0.94097000  0.49124000  1
  H  H8  1  0.05550000  0.17750000  0.16260000  1
  H  H9  1  0.05550000  0.32250000  0.66260000  1
  H  H10  1  0.05550000  0.67750000  0.83740000  1
  H  H11  1  0.05550000  0.82250000  0.33740000  1
  H  H12  1  0.10010000  0.24070000  0.42550000  1
  H  H13  1  0.10010000  0.25930000  0.92550000  1
  H  H14  1  0.10010000  0.74070000  0.57450000  1
  H  H15  1  0.10010000  0.75930000  0.07450000  1
  H  H16  1  0.15820000  0.23220000  0.24210000  1
  H  H17  1  0.15820000  0.26780000  0.74210000  1
  H  H18  1  0.15820000  0.73220000  0.75790000  1
  H  H19  1  0.15820000  0.76780000  0.25790000  1
  H  H20  1  0.16020000  0.22290000  0.55550000  1
  H  H21  1  0.16020000  0.27710000  0.05550000  1
  H  H22  1  0.16020000  0.72290000  0.44450000  1
  H  H23  1  0.16020000  0.77710000  0.94450000  1
  H  H24  1  0.19780000  0.15410000  0.36240000  1
  H  H25  1  0.19780000  0.34590000  0.86240000  1
  H  H26  1  0.19780000  0.65410000  0.63760000  1
  H  H27  1  0.19780000  0.84590000  0.13760000  1
  H  H28  1  0.31380000  0.08270000  0.87050000  1
  H  H29  1  0.31380000  0.41730000  0.37050000  1
  H  H30  1  0.31380000  0.58270000  0.12950000  1
  H  H31  1  0.31380000  0.91730000  0.62950000  1
  H  H32  1  0.31680000  0.01580000  0.14230000  1
  H  H33  1  0.31680000  0.48420000  0.64230000  1
  H  H34  1  0.31680000  0.51580000  0.85770000  1
  H  H35  1  0.31680000  0.98420000  0.35770000  1
  H  H36  1  0.32970000  0.19730000  0.06330000  1
  H  H37  1  0.32970000  0.30270000  0.56330000  1
  H  H38  1  0.32970000  0.69730000  0.93670000  1
  H  H39  1  0.32970000  0.80270000  0.43670000  1
  H  H40  1  0.35030000  0.05430000  0.48480000  1
  H  H41  1  0.35030000  0.44570000  0.98480000  1
  H  H42  1  0.35030000  0.55430000  0.51520000  1
  H  H43  1  0.35030000  0.94570000  0.01520000  1
  H  H44  1  0.41150000  0.17020000  0.80580000  1
  H  H45  1  0.41150000  0.32980000  0.30580000  1
  H  H46  1  0.41150000  0.67020000  0.19420000  1
  H  H47  1  0.41150000  0.82980000  0.69420000  1
  H  H48  1  0.41950000  0.07000000  0.22130000  1
  H  H49  1  0.41950000  0.43000000  0.72130000  1
  H  H50  1  0.41950000  0.57000000  0.77870000  1
  H  H51  1  0.41950000  0.93000000  0.27870000  1
  H  H52  1  0.47630000  0.12720000  0.99120000  1
  H  H53  1  0.47630000  0.37280000  0.49120000  1
  H  H54  1  0.47630000  0.62720000  0.00880000  1
  H  H55  1  0.47630000  0.87280000  0.50880000  1
  H  H56  1  0.52370000  0.12720000  0.49120000  1
  H  H57  1  0.52370000  0.37280000  0.99120000  1
  H  H58  1  0.52370000  0.62720000  0.50880000  1
  H  H59  1  0.52370000  0.87280000  0.00880000  1
  H  H60  1  0.58050000  0.07000000  0.72130000  1
  H  H61  1  0.58050000  0.43000000  0.22130000  1
  H  H62  1  0.58050000  0.57000000  0.27870000  1
  H  H63  1  0.58050000  0.93000000  0.77870000  1
  H  H64  1  0.58850000  0.17020000  0.30580000  1
  H  H65  1  0.58850000  0.32980000  0.80580000  1
  H  H66  1  0.58850000  0.67020000  0.69420000  1
  H  H67  1  0.58850000  0.82980000  0.19420000  1
  H  H68  1  0.64970000  0.05430000  0.98480000  1
  H  H69  1  0.64970000  0.44570000  0.48480000  1
  H  H70  1  0.64970000  0.55430000  0.01520000  1
  H  H71  1  0.64970000  0.94570000  0.51520000  1
  H  H72  1  0.67030000  0.19730000  0.56330000  1
  H  H73  1  0.67030000  0.30270000  0.06330000  1
  H  H74  1  0.67030000  0.69730000  0.43670000  1
  H  H75  1  0.67030000  0.80270000  0.93670000  1
  H  H76  1  0.68320000  0.01580000  0.64230000  1
  H  H77  1  0.68320000  0.48420000  0.14230000  1
  H  H78  1  0.68320000  0.51580000  0.35770000  1
  H  H79  1  0.68320000  0.98420000  0.85770000  1
  H  H80  1  0.68620000  0.08270000  0.37050000  1
  H  H81  1  0.68620000  0.41730000  0.87050000  1
  H  H82  1  0.68620000  0.58270000  0.62950000  1
  H  H83  1  0.68620000  0.91730000  0.12950000  1
  H  H84  1  0.80220000  0.15410000  0.86240000  1
  H  H85  1  0.80220000  0.34590000  0.36240000  1
  H  H86  1  0.80220000  0.65410000  0.13760000  1
  H  H87  1  0.80220000  0.84590000  0.63760000  1
  H  H88  1  0.83980000  0.22290000  0.05550000  1
  H  H89  1  0.83980000  0.27710000  0.55550000  1
  H  H90  1  0.83980000  0.72290000  0.94450000  1
  H  H91  1  0.83980000  0.77710000  0.44450000  1
  H  H92  1  0.84180000  0.23220000  0.74210000  1
  H  H93  1  0.84180000  0.26780000  0.24210000  1
  H  H94  1  0.84180000  0.73220000  0.25790000  1
  H  H95  1  0.84180000  0.76780000  0.75790000  1
  H  H96  1  0.89990000  0.24070000  0.92550000  1
  H  H97  1  0.89990000  0.25930000  0.42550000  1
  H  H98  1  0.89990000  0.74070000  0.07450000  1
  H  H99  1  0.89990000  0.75930000  0.57450000  1
  H  H100  1  0.94450000  0.17750000  0.66260000  1
  H  H101  1  0.94450000  0.32250000  0.16260000  1
  H  H102  1  0.94450000  0.67750000  0.33740000  1
  H  H103  1  0.94450000  0.82250000  0.83740000  1
  C  C104  1  0.10470000  0.05510000  0.09390000  1
  C  C105  1  0.10470000  0.44490000  0.59390000  1
  C  C106  1  0.10470000  0.55510000  0.90610000  1
  C  C107  1  0.10470000  0.94490000  0.40610000  1
  C  C108  1  0.12390000  0.10300000  0.94030000  1
  C  C109  1  0.12390000  0.39700000  0.44030000  1
  C  C110  1  0.12390000  0.60300000  0.05970000  1
  C  C111  1  0.12390000  0.89700000  0.55970000  1
  C  C112  1  0.12890000  0.15550000  0.17450000  1
  C  C113  1  0.12890000  0.34450000  0.67450000  1
  C  C114  1  0.12890000  0.65550000  0.82550000  1
  C  C115  1  0.12890000  0.84450000  0.32550000  1
  C  C116  1  0.16140000  0.24070000  0.90080000  1
  C  C117  1  0.16140000  0.25930000  0.40080000  1
  C  C118  1  0.16140000  0.74070000  0.09920000  1
  C  C119  1  0.16140000  0.75930000  0.59920000  1
  C  C120  1  0.17450000  0.09030000  0.14410000  1
  C  C121  1  0.17450000  0.40970000  0.64410000  1
  C  C122  1  0.17450000  0.59030000  0.85590000  1
  C  C123  1  0.17450000  0.90970000  0.35590000  1
  C  C124  1  0.18990000  0.18860000  0.22180000  1
  C  C125  1  0.18990000  0.31140000  0.72180000  1
  C  C126  1  0.18990000  0.68860000  0.77820000  1
  C  C127  1  0.18990000  0.81140000  0.27820000  1
  C  C128  1  0.19370000  0.16100000  0.90250000  1
  C  C129  1  0.19370000  0.33900000  0.40250000  1
  C  C130  1  0.19370000  0.66100000  0.09750000  1
  C  C131  1  0.19370000  0.83900000  0.59750000  1
  C  C132  1  0.21930000  0.20770000  0.36310000  1
  C  C133  1  0.21930000  0.29230000  0.86310000  1
  C  C134  1  0.21930000  0.70770000  0.63690000  1
  C  C135  1  0.21930000  0.79230000  0.13690000  1
  C  C136  1  0.23430000  0.20360000  0.54240000  1
  C  C137  1  0.23430000  0.29640000  0.04240000  1
  C  C138  1  0.23430000  0.70360000  0.45760000  1
  C  C139  1  0.23430000  0.79640000  0.95760000  1
  C  C140  1  0.28430000  0.05930000  0.16230000  1
  C  C141  1  0.28430000  0.44070000  0.66230000  1
  C  C142  1  0.28430000  0.55930000  0.83770000  1
  C  C143  1  0.28430000  0.94070000  0.33770000  1
  C  C144  1  0.28850000  0.13550000  0.86800000  1
  C  C145  1  0.28850000  0.36450000  0.36800000  1
  C  C146  1  0.28850000  0.63550000  0.13200000  1
  C  C147  1  0.28850000  0.86450000  0.63200000  1
  C  C148  1  0.29960000  0.15580000  0.23900000  1
  C  C149  1  0.29960000  0.34420000  0.73900000  1
  C  C150  1  0.29960000  0.65580000  0.76100000  1
  C  C151  1  0.29960000  0.84420000  0.26100000  1
  C  C152  1  0.30870000  0.23520000  0.32650000  1
  C  C153  1  0.30870000  0.26480000  0.82650000  1
  C  C154  1  0.30870000  0.73520000  0.67350000  1
  C  C155  1  0.30870000  0.76480000  0.17350000  1
  C  C156  1  0.33620000  0.24810000  0.04690000  1
  C  C157  1  0.33620000  0.25190000  0.54690000  1
  C  C158  1  0.33620000  0.74810000  0.95310000  1
  C  C159  1  0.33620000  0.75190000  0.45310000  1
  C  C160  1  0.34600000  0.09180000  0.20950000  1
  C  C161  1  0.34600000  0.40820000  0.70950000  1
  C  C162  1  0.34600000  0.59180000  0.79050000  1
  C  C163  1  0.34600000  0.90820000  0.29050000  1
  C  C164  1  0.34630000  0.10520000  0.50120000  1
  C  C165  1  0.34630000  0.39480000  0.00120000  1
  C  C166  1  0.34630000  0.60520000  0.49880000  1
  C  C167  1  0.34630000  0.89480000  0.99880000  1
  C  C168  1  0.34730000  0.18760000  0.82930000  1
  C  C169  1  0.34730000  0.31240000  0.32930000  1
  C  C170  1  0.34730000  0.68760000  0.17070000  1
  C  C171  1  0.34730000  0.81240000  0.67070000  1
  C  C172  1  0.44530000  0.22510000  0.52750000  1
  C  C173  1  0.44530000  0.27490000  0.02750000  1
  C  C174  1  0.44530000  0.72510000  0.47250000  1
  C  C175  1  0.44530000  0.77490000  0.97250000  1
  C  C176  1  0.45080000  0.14850000  0.50430000  1
  C  C177  1  0.45080000  0.35150000  0.00430000  1
  C  C178  1  0.45080000  0.64850000  0.49570000  1
  C  C179  1  0.45080000  0.85150000  0.99570000  1
  C  C180  1  0.54920000  0.14850000  0.00430000  1
  C  C181  1  0.54920000  0.35150000  0.50430000  1
  C  C182  1  0.54920000  0.64850000  0.99570000  1
  C  C183  1  0.54920000  0.85150000  0.49570000  1
  C  C184  1  0.55470000  0.22510000  0.02750000  1
  C  C185  1  0.55470000  0.27490000  0.52750000  1
  C  C186  1  0.55470000  0.72510000  0.97250000  1
  C  C187  1  0.55470000  0.77490000  0.47250000  1
  C  C188  1  0.65270000  0.18760000  0.32930000  1
  C  C189  1  0.65270000  0.31240000  0.82930000  1
  C  C190  1  0.65270000  0.68760000  0.67070000  1
  C  C191  1  0.65270000  0.81240000  0.17070000  1
  C  C192  1  0.65370000  0.10520000  0.00120000  1
  C  C193  1  0.65370000  0.39480000  0.50120000  1
  C  C194  1  0.65370000  0.60520000  0.99880000  1
  C  C195  1  0.65370000  0.89480000  0.49880000  1
  C  C196  1  0.65400000  0.09180000  0.70950000  1
  C  C197  1  0.65400000  0.40820000  0.20950000  1
  C  C198  1  0.65400000  0.59180000  0.29050000  1
  C  C199  1  0.65400000  0.90820000  0.79050000  1
  C  C200  1  0.66380000  0.24810000  0.54690000  1
  C  C201  1  0.66380000  0.25190000  0.04690000  1
  C  C202  1  0.66380000  0.74810000  0.45310000  1
  C  C203  1  0.66380000  0.75190000  0.95310000  1
  C  C204  1  0.69130000  0.23520000  0.82650000  1
  C  C205  1  0.69130000  0.26480000  0.32650000  1
  C  C206  1  0.69130000  0.73520000  0.17350000  1
  C  C207  1  0.69130000  0.76480000  0.67350000  1
  C  C208  1  0.70040000  0.15580000  0.73900000  1
  C  C209  1  0.70040000  0.34420000  0.23900000  1
  C  C210  1  0.70040000  0.65580000  0.26100000  1
  C  C211  1  0.70040000  0.84420000  0.76100000  1
  C  C212  1  0.71150000  0.13550000  0.36800000  1
  C  C213  1  0.71150000  0.36450000  0.86800000  1
  C  C214  1  0.71150000  0.63550000  0.63200000  1
  C  C215  1  0.71150000  0.86450000  0.13200000  1
  C  C216  1  0.71570000  0.05930000  0.66230000  1
  C  C217  1  0.71570000  0.44070000  0.16230000  1
  C  C218  1  0.71570000  0.55930000  0.33770000  1
  C  C219  1  0.71570000  0.94070000  0.83770000  1
  C  C220  1  0.76570000  0.20360000  0.04240000  1
  C  C221  1  0.76570000  0.29640000  0.54240000  1
  C  C222  1  0.76570000  0.70360000  0.95760000  1
  C  C223  1  0.76570000  0.79640000  0.45760000  1
  C  C224  1  0.78070000  0.20770000  0.86310000  1
  C  C225  1  0.78070000  0.29230000  0.36310000  1
  C  C226  1  0.78070000  0.70770000  0.13690000  1
  C  C227  1  0.78070000  0.79230000  0.63690000  1
  C  C228  1  0.80630000  0.16100000  0.40250000  1
  C  C229  1  0.80630000  0.33900000  0.90250000  1
  C  C230  1  0.80630000  0.66100000  0.59750000  1
  C  C231  1  0.80630000  0.83900000  0.09750000  1
  C  C232  1  0.81010000  0.18860000  0.72180000  1
  C  C233  1  0.81010000  0.31140000  0.22180000  1
  C  C234  1  0.81010000  0.68860000  0.27820000  1
  C  C235  1  0.81010000  0.81140000  0.77820000  1
  C  C236  1  0.82550000  0.09030000  0.64410000  1
  C  C237  1  0.82550000  0.40970000  0.14410000  1
  C  C238  1  0.82550000  0.59030000  0.35590000  1
  C  C239  1  0.82550000  0.90970000  0.85590000  1
  C  C240  1  0.83860000  0.24070000  0.40080000  1
  C  C241  1  0.83860000  0.25930000  0.90080000  1
  C  C242  1  0.83860000  0.74070000  0.59920000  1
  C  C243  1  0.83860000  0.75930000  0.09920000  1
  C  C244  1  0.87110000  0.15550000  0.67450000  1
  C  C245  1  0.87110000  0.34450000  0.17450000  1
  C  C246  1  0.87110000  0.65550000  0.32550000  1
  C  C247  1  0.87110000  0.84450000  0.82550000  1
  C  C248  1  0.87610000  0.10300000  0.44030000  1
  C  C249  1  0.87610000  0.39700000  0.94030000  1
  C  C250  1  0.87610000  0.60300000  0.55970000  1
  C  C251  1  0.87610000  0.89700000  0.05970000  1
  C  C252  1  0.89530000  0.05510000  0.59390000  1
  C  C253  1  0.89530000  0.44490000  0.09390000  1
  C  C254  1  0.89530000  0.55510000  0.40610000  1
  C  C255  1  0.89530000  0.94490000  0.90610000  1
  N  N256  1  0.24020000  0.13070000  0.51990000  1
  N  N257  1  0.24020000  0.36930000  0.01990000  1
  N  N258  1  0.24020000  0.63070000  0.48010000  1
  N  N259  1  0.24020000  0.86930000  0.98010000  1
  N  N260  1  0.75980000  0.13070000  0.01990000  1
  N  N261  1  0.75980000  0.36930000  0.51990000  1
  N  N262  1  0.75980000  0.63070000  0.98010000  1
  N  N263  1  0.75980000  0.86930000  0.48010000  1
  O  O264  1  0.00610000  0.08640000  0.08106000  1
  O  O265  1  0.00610000  0.41360000  0.58106000  1
  O  O266  1  0.00610000  0.58640000  0.91894000  1
  O  O267  1  0.00610000  0.91360000  0.41894000  1
  O  O268  1  0.02520000  0.12640000  0.96142000  1
  O  O269  1  0.02520000  0.37360000  0.46142000  1
  O  O270  1  0.02520000  0.62640000  0.03858000  1
  O  O271  1  0.02520000  0.87360000  0.53858000  1
  O  O272  1  0.15000000  0.00450000  0.43220000  1
  O  O273  1  0.15000000  0.49550000  0.93220000  1
  O  O274  1  0.15000000  0.50450000  0.56780000  1
  O  O275  1  0.15000000  0.99550000  0.06780000  1
  O  O276  1  0.16700000  0.03480000  0.94670000  1
  O  O277  1  0.16700000  0.46520000  0.44670000  1
  O  O278  1  0.16700000  0.53480000  0.05330000  1
  O  O279  1  0.16700000  0.96520000  0.55330000  1
  O  O280  1  0.36630000  0.18470000  0.28610000  1
  O  O281  1  0.36630000  0.31530000  0.78610000  1
  O  O282  1  0.36630000  0.68470000  0.71390000  1
  O  O283  1  0.36630000  0.81530000  0.21390000  1
  O  O284  1  0.63370000  0.18470000  0.78610000  1
  O  O285  1  0.63370000  0.31530000  0.28610000  1
  O  O286  1  0.63370000  0.68470000  0.21390000  1
  O  O287  1  0.63370000  0.81530000  0.71390000  1
  O  O288  1  0.83300000  0.03480000  0.44670000  1
  O  O289  1  0.83300000  0.46520000  0.94670000  1
  O  O290  1  0.83300000  0.53480000  0.55330000  1
  O  O291  1  0.83300000  0.96520000  0.05330000  1
  O  O292  1  0.85000000  0.00450000  0.93220000  1
  O  O293  1  0.85000000  0.49550000  0.43220000  1
  O  O294  1  0.85000000  0.50450000  0.06780000  1
  O  O295  1  0.85000000  0.99550000  0.56780000  1
  O  O296  1  0.97480000  0.12640000  0.46142000  1
  O  O297  1  0.97480000  0.37360000  0.96142000  1
  O  O298  1  0.97480000  0.62640000  0.53858000  1
  O  O299  1  0.97480000  0.87360000  0.03858000  1
  O  O300  1  0.99390000  0.08640000  0.58106000  1
  O  O301  1  0.99390000  0.41360000  0.08106000  1
  O  O302  1  0.99390000  0.58640000  0.41894000  1
  O  O303  1  0.99390000  0.91360000  0.91894000  1
