# generated using pymatgen
data_Mn4H21C15(N2O)6
_symmetry_space_group_name_H-M   'P 1'
_cell_length_a   8.04630000
_cell_length_b   13.51050000
_cell_length_c   13.51050000
_cell_angle_alpha   120.00000000
_cell_angle_beta   90.00000000
_cell_angle_gamma   90.00000000
_symmetry_Int_Tables_number   1
_chemical_formula_structural   Mn4H21C15(N2O)6
_chemical_formula_sum   'Mn8 H42 C30 N24 O12'
_cell_volume   1271.94899399
_cell_formula_units_Z   2
loop_
 _symmetry_equiv_pos_site_id
 _symmetry_equiv_pos_as_xyz
  1  'x, y, z'
loop_
 _atom_site_type_symbol
 _atom_site_label
 _atom_site_symmetry_multiplicity
 _atom_site_fract_x
 _atom_site_fract_y
 _atom_site_fract_z
 _atom_site_occupancy
  Mn  Mn0  1  0.04567000  0.96438000  0.66189000  1
  Mn  Mn1  1  0.04567000  0.69751000  0.03562000  1
  Mn  Mn2  1  0.42123000  0.66666667  0.33333333  1
  Mn  Mn3  1  0.54567000  0.66189000  0.69751000  1
  Mn  Mn4  1  0.04567000  0.33811000  0.30249000  1
  Mn  Mn5  1  0.92123000  0.33333333  0.66666667  1
  Mn  Mn6  1  0.54567000  0.30249000  0.96438000  1
  Mn  Mn7  1  0.54567000  0.03562000  0.33811000  1
  H  H8  1  0.80020000  0.98310000  0.53960000  1
  H  H9  1  0.55510000  0.95630000  0.60340000  1
  H  H10  1  0.65080000  0.91620000  0.67850000  1
  H  H11  1  0.93940000  0.91170000  0.19780000  1
  H  H12  1  0.79440000  0.86590000  0.51630000  1
  H  H13  1  0.20880000  0.86340000  0.28640000  1
  H  H14  1  0.94460000  0.84500000  0.25600000  1
  H  H15  1  0.93940000  0.80220000  0.71390000  1
  H  H16  1  0.65080000  0.76230000  0.08380000  1
  H  H17  1  0.94460000  0.74400000  0.58900000  1
  H  H18  1  0.43940000  0.71390000  0.91170000  1
  H  H19  1  0.20880000  0.71360000  0.57700000  1
  H  H20  1  0.15080000  0.67850000  0.76230000  1
  H  H21  1  0.79440000  0.65040000  0.13410000  1
  H  H22  1  0.55510000  0.64710000  0.04370000  1
  H  H23  1  0.05510000  0.60340000  0.64710000  1
  H  H24  1  0.44460000  0.58900000  0.84500000  1
  H  H25  1  0.70880000  0.57700000  0.86340000  1
  H  H26  1  0.80020000  0.55650000  0.01690000  1
  H  H27  1  0.30020000  0.53960000  0.55650000  1
  H  H28  1  0.29440000  0.51630000  0.65040000  1
  H  H29  1  0.79440000  0.48370000  0.34960000  1
  H  H30  1  0.80020000  0.46040000  0.44350000  1
  H  H31  1  0.30020000  0.44350000  0.98310000  1
  H  H32  1  0.20880000  0.42300000  0.13660000  1
  H  H33  1  0.94460000  0.41100000  0.15500000  1
  H  H34  1  0.55510000  0.39660000  0.35290000  1
  H  H35  1  0.05510000  0.35290000  0.95630000  1
  H  H36  1  0.29440000  0.34960000  0.86590000  1
  H  H37  1  0.65080000  0.32150000  0.23770000  1
  H  H38  1  0.70880000  0.28640000  0.42300000  1
  H  H39  1  0.93940000  0.28610000  0.08830000  1
  H  H40  1  0.44460000  0.25600000  0.41100000  1
  H  H41  1  0.15080000  0.23770000  0.91620000  1
  H  H42  1  0.43940000  0.19780000  0.28610000  1
  H  H43  1  0.44460000  0.15500000  0.74400000  1
  H  H44  1  0.70880000  0.13660000  0.71360000  1
  H  H45  1  0.29440000  0.13410000  0.48370000  1
  H  H46  1  0.43940000  0.08830000  0.80220000  1
  H  H47  1  0.15080000  0.08380000  0.32150000  1
  H  H48  1  0.05510000  0.04370000  0.39660000  1
  H  H49  1  0.30020000  0.01690000  0.46040000  1
  C  C50  1  0.65550000  0.96730000  0.64760000  1
  C  C51  1  0.16390000  0.90870000  0.25420000  1
  C  C52  1  0.28010000  0.89050000  0.15740000  1
  C  C53  1  0.28010000  0.84260000  0.73310000  1
  C  C54  1  0.27630000  0.79420000  0.44010000  1
  C  C55  1  0.54880000  0.78740000  0.32246000  1
  C  C56  1  0.16390000  0.74580000  0.65450000  1
  C  C57  1  0.78010000  0.73310000  0.89050000  1
  C  C58  1  0.65550000  0.68030000  0.03270000  1
  C  C59  1  0.54880000  0.67754000  0.46494000  1
  C  C60  1  0.66390000  0.65450000  0.90870000  1
  C  C61  1  0.15550000  0.64760000  0.68030000  1
  C  C62  1  0.27630000  0.64590000  0.20580000  1
  C  C63  1  0.27630000  0.55990000  0.35410000  1
  C  C64  1  0.54880000  0.53506000  0.21260000  1
  C  C65  1  0.04880000  0.46494000  0.78740000  1
  C  C66  1  0.77630000  0.44010000  0.64590000  1
  C  C67  1  0.77630000  0.35410000  0.79420000  1
  C  C68  1  0.65550000  0.35240000  0.31970000  1
  C  C69  1  0.16390000  0.34550000  0.09130000  1
  C  C70  1  0.04880000  0.32246000  0.53506000  1
  C  C71  1  0.15550000  0.31970000  0.96730000  1
  C  C72  1  0.28010000  0.26690000  0.10950000  1
  C  C73  1  0.66390000  0.25420000  0.34550000  1
  C  C74  1  0.04880000  0.21260000  0.67754000  1
  C  C75  1  0.77630000  0.20580000  0.55990000  1
  C  C76  1  0.78010000  0.15740000  0.26690000  1
  C  C77  1  0.78010000  0.10950000  0.84260000  1
  C  C78  1  0.66390000  0.09130000  0.74580000  1
  C  C79  1  0.15550000  0.03270000  0.35240000  1
  N  N80  1  0.80200000  0.93923000  0.57243000  1
  N  N81  1  0.19000000  0.86840000  0.50000000  1
  N  N82  1  0.60610000  0.86490000  0.32080000  1
  N  N83  1  0.99980000  0.86140000  0.20800000  1
  N  N84  1  0.99980000  0.79200000  0.65340000  1
  N  N85  1  0.60610000  0.67920000  0.54410000  1
  N  N86  1  0.49980000  0.65340000  0.86140000  1
  N  N87  1  0.80200000  0.63320000  0.06077000  1
  N  N88  1  0.19000000  0.63160000  0.13160000  1
  N  N89  1  0.30200000  0.57243000  0.63320000  1
  N  N90  1  0.10610000  0.54410000  0.86490000  1
  N  N91  1  0.69000000  0.50000000  0.63160000  1
  N  N92  1  0.19000000  0.50000000  0.36840000  1
  N  N93  1  0.60610000  0.45590000  0.13510000  1
  N  N94  1  0.80200000  0.42757000  0.36680000  1
  N  N95  1  0.69000000  0.36840000  0.86840000  1
  N  N96  1  0.30200000  0.36680000  0.93923000  1
  N  N97  1  0.99980000  0.34660000  0.13860000  1
  N  N98  1  0.10610000  0.32080000  0.45590000  1
  N  N99  1  0.49980000  0.20800000  0.34660000  1
  N  N100  1  0.49980000  0.13860000  0.79200000  1
  N  N101  1  0.10610000  0.13510000  0.67920000  1
  N  N102  1  0.69000000  0.13160000  0.50000000  1
  N  N103  1  0.30200000  0.06077000  0.42757000  1
  O  O104  1  0.40650000  0.95150000  0.18085000  1
  O  O105  1  0.24590000  0.94280000  0.75593000  1
  O  O106  1  0.40650000  0.81915000  0.77065000  1
  O  O107  1  0.24590000  0.81313000  0.05720000  1
  O  O108  1  0.90650000  0.77065000  0.95150000  1
  O  O109  1  0.74590000  0.75593000  0.81313000  1
  O  O110  1  0.24590000  0.24407000  0.18687000  1
  O  O111  1  0.40650000  0.22935000  0.04850000  1
  O  O112  1  0.74590000  0.18687000  0.94280000  1
  O  O113  1  0.90650000  0.18085000  0.22935000  1
  O  O114  1  0.74590000  0.05720000  0.24407000  1
  O  O115  1  0.90650000  0.04850000  0.81915000  1
