# generated using pymatgen
data_Zn2H16C21(NO4)2
_symmetry_space_group_name_H-M   'P 1'
_cell_length_a   8.70000000
_cell_length_b   11.45170000
_cell_length_c   23.04910000
_cell_angle_alpha   90.00000000
_cell_angle_beta   90.00000000
_cell_angle_gamma   90.00000000
_symmetry_Int_Tables_number   1
_chemical_formula_structural   Zn2H16C21(NO4)2
_chemical_formula_sum   'Zn8 H64 C84 N8 O32'
_cell_volume   2296.37699269
_cell_formula_units_Z   4
loop_
 _symmetry_equiv_pos_site_id
 _symmetry_equiv_pos_as_xyz
  1  'x, y, z'
loop_
 _atom_site_type_symbol
 _atom_site_label
 _atom_site_symmetry_multiplicity
 _atom_site_fract_x
 _atom_site_fract_y
 _atom_site_fract_z
 _atom_site_occupancy
  Zn  Zn0  1  0.13304000  0.70933000  0.34115000  1
  Zn  Zn1  1  0.15229000  0.82596000  0.72796000  1
  Zn  Zn2  1  0.34771000  0.17404000  0.22796000  1
  Zn  Zn3  1  0.36696000  0.29067000  0.84115000  1
  Zn  Zn4  1  0.63304000  0.79067000  0.65885000  1
  Zn  Zn5  1  0.65229000  0.67404000  0.27204000  1
  Zn  Zn6  1  0.84771000  0.32596000  0.77204000  1
  Zn  Zn7  1  0.86696000  0.20933000  0.15885000  1
  H  H8  1  0.02910000  0.62240000  0.46100000  1
  H  H9  1  0.03780000  0.46220000  0.52180000  1
  H  H10  1  0.03970000  0.30230000  0.56020000  1
  H  H11  1  0.04270000  0.22400000  0.65540000  1
  H  H12  1  0.06290000  0.10490000  0.37860000  1
  H  H13  1  0.06730000  0.07290000  0.72110000  1
  H  H14  1  0.08570000  0.67070000  0.10000000  1
  H  H15  1  0.12220000  0.72890000  0.18900000  1
  H  H16  1  0.15480000  0.44850000  0.63660000  1
  H  H17  1  0.15530000  0.48790000  0.07620000  1
  H  H18  1  0.16980000  0.51230000  0.23740000  1
  H  H19  1  0.20260000  0.01140000  0.53210000  1
  H  H20  1  0.20420000  0.18320000  0.48240000  1
  H  H21  1  0.22010000  0.44660000  0.33430000  1
  H  H22  1  0.22070000  0.86550000  0.60160000  1
  H  H23  1  0.24240000  0.28440000  0.39140000  1
  H  H24  1  0.25760000  0.71560000  0.89140000  1
  H  H25  1  0.27930000  0.13450000  0.10160000  1
  H  H26  1  0.27990000  0.55340000  0.83430000  1
  H  H27  1  0.29580000  0.81680000  0.98240000  1
  H  H28  1  0.29740000  0.98860000  0.03210000  1
  H  H29  1  0.33020000  0.48770000  0.73740000  1
  H  H30  1  0.34470000  0.51210000  0.57620000  1
  H  H31  1  0.34520000  0.55150000  0.13660000  1
  H  H32  1  0.37780000  0.27110000  0.68900000  1
  H  H33  1  0.41430000  0.32930000  0.60000000  1
  H  H34  1  0.43270000  0.92710000  0.22110000  1
  H  H35  1  0.43710000  0.89510000  0.87860000  1
  H  H36  1  0.45730000  0.77600000  0.15540000  1
  H  H37  1  0.46030000  0.69770000  0.06020000  1
  H  H38  1  0.46220000  0.53780000  0.02180000  1
  H  H39  1  0.47090000  0.37760000  0.96100000  1
  H  H40  1  0.52910000  0.87760000  0.53900000  1
  H  H41  1  0.53780000  0.03780000  0.47820000  1
  H  H42  1  0.53970000  0.19770000  0.43980000  1
  H  H43  1  0.54270000  0.27600000  0.34460000  1
  H  H44  1  0.56290000  0.39510000  0.62140000  1
  H  H45  1  0.56730000  0.42710000  0.27890000  1
  H  H46  1  0.58570000  0.82930000  0.90000000  1
  H  H47  1  0.62220000  0.77110000  0.81100000  1
  H  H48  1  0.65480000  0.05150000  0.36340000  1
  H  H49  1  0.65530000  0.01210000  0.92380000  1
  H  H50  1  0.66980000  0.98770000  0.76260000  1
  H  H51  1  0.70260000  0.48860000  0.46790000  1
  H  H52  1  0.70420000  0.31680000  0.51760000  1
  H  H53  1  0.72010000  0.05340000  0.66570000  1
  H  H54  1  0.72070000  0.63450000  0.39840000  1
  H  H55  1  0.74240000  0.21560000  0.60860000  1
  H  H56  1  0.75760000  0.78440000  0.10860000  1
  H  H57  1  0.77930000  0.36550000  0.89840000  1
  H  H58  1  0.77990000  0.94660000  0.16570000  1
  H  H59  1  0.79580000  0.68320000  0.01760000  1
  H  H60  1  0.79740000  0.51140000  0.96790000  1
  H  H61  1  0.83020000  0.01230000  0.26260000  1
  H  H62  1  0.84470000  0.98790000  0.42380000  1
  H  H63  1  0.84520000  0.94850000  0.86340000  1
  H  H64  1  0.87780000  0.22890000  0.31100000  1
  H  H65  1  0.91430000  0.17070000  0.40000000  1
  H  H66  1  0.93270000  0.57290000  0.77890000  1
  H  H67  1  0.93710000  0.60490000  0.12140000  1
  H  H68  1  0.95730000  0.72400000  0.84460000  1
  H  H69  1  0.96030000  0.80230000  0.93980000  1
  H  H70  1  0.96220000  0.96220000  0.97820000  1
  H  H71  1  0.97090000  0.12240000  0.03900000  1
  C  C72  1  0.01570000  0.39590000  0.13660000  1
  C  C73  1  0.04720000  0.61250000  0.12690000  1
  C  C74  1  0.05740000  0.14700000  0.27020000  1
  C  C75  1  0.07230000  0.55380000  0.44690000  1
  C  C76  1  0.07470000  0.45750000  0.48400000  1
  C  C77  1  0.07960000  0.15180000  0.64330000  1
  C  C78  1  0.08320000  0.64860000  0.19000000  1
  C  C79  1  0.09440000  0.06000000  0.68260000  1
  C  C80  1  0.09760000  0.23990000  0.54640000  1
  C  C81  1  0.12020000  0.13390000  0.58670000  1
  C  C82  1  0.12570000  0.49700000  0.11690000  1
  C  C83  1  0.13550000  0.35260000  0.46160000  1
  C  C84  1  0.15140000  0.24690000  0.49750000  1
  C  C85  1  0.15680000  0.37090000  0.74250000  1
  C  C86  1  0.16480000  0.61610000  0.66520000  1
  C  C87  1  0.17390000  0.02610000  0.57030000  1
  C  C88  1  0.18440000  0.93840000  0.61290000  1
  C  C89  1  0.18550000  0.45100000  0.37240000  1
  C  C90  1  0.19580000  0.35130000  0.40600000  1
  C  C91  1  0.21440000  0.56990000  0.21080000  1
  C  C92  1  0.23210000  0.49650000  0.65620000  1
  C  C93  1  0.26790000  0.50350000  0.15620000  1
  C  C94  1  0.28560000  0.43010000  0.71080000  1
  C  C95  1  0.30420000  0.64870000  0.90600000  1
  C  C96  1  0.31450000  0.54900000  0.87240000  1
  C  C97  1  0.31560000  0.06160000  0.11290000  1
  C  C98  1  0.32610000  0.97390000  0.07030000  1
  C  C99  1  0.33520000  0.38390000  0.16520000  1
  C  C100  1  0.34320000  0.62910000  0.24250000  1
  C  C101  1  0.34860000  0.75310000  0.99750000  1
  C  C102  1  0.36450000  0.64740000  0.96160000  1
  C  C103  1  0.37430000  0.50300000  0.61690000  1
  C  C104  1  0.37980000  0.86610000  0.08670000  1
  C  C105  1  0.40240000  0.76010000  0.04640000  1
  C  C106  1  0.40560000  0.94000000  0.18260000  1
  C  C107  1  0.41680000  0.35140000  0.69000000  1
  C  C108  1  0.42040000  0.84820000  0.14330000  1
  C  C109  1  0.42530000  0.54250000  0.98400000  1
  C  C110  1  0.42770000  0.44620000  0.94690000  1
  C  C111  1  0.44260000  0.85300000  0.77020000  1
  C  C112  1  0.45280000  0.38750000  0.62690000  1
  C  C113  1  0.48430000  0.60410000  0.63660000  1
  C  C114  1  0.51570000  0.10410000  0.86340000  1
  C  C115  1  0.54720000  0.88750000  0.87310000  1
  C  C116  1  0.55740000  0.35300000  0.72980000  1
  C  C117  1  0.57230000  0.94620000  0.55310000  1
  C  C118  1  0.57470000  0.04250000  0.51600000  1
  C  C119  1  0.57960000  0.34820000  0.35670000  1
  C  C120  1  0.58320000  0.85140000  0.81000000  1
  C  C121  1  0.59440000  0.44000000  0.31740000  1
  C  C122  1  0.59760000  0.26010000  0.45360000  1
  C  C123  1  0.62020000  0.36610000  0.41330000  1
  C  C124  1  0.62570000  0.00300000  0.88310000  1
  C  C125  1  0.63550000  0.14740000  0.53840000  1
  C  C126  1  0.65140000  0.25310000  0.50250000  1
  C  C127  1  0.65680000  0.12910000  0.25750000  1
  C  C128  1  0.66480000  0.88390000  0.33480000  1
  C  C129  1  0.67390000  0.47390000  0.42970000  1
  C  C130  1  0.68440000  0.56160000  0.38710000  1
  C  C131  1  0.68550000  0.04900000  0.62760000  1
  C  C132  1  0.69580000  0.14870000  0.59400000  1
  C  C133  1  0.71440000  0.93010000  0.78920000  1
  C  C134  1  0.73210000  0.00350000  0.34380000  1
  C  C135  1  0.76790000  0.99650000  0.84380000  1
  C  C136  1  0.78560000  0.06990000  0.28920000  1
  C  C137  1  0.80420000  0.85130000  0.09400000  1
  C  C138  1  0.81450000  0.95100000  0.12760000  1
  C  C139  1  0.81560000  0.43840000  0.88710000  1
  C  C140  1  0.82610000  0.52610000  0.92970000  1
  C  C141  1  0.83520000  0.11610000  0.83480000  1
  C  C142  1  0.84320000  0.87090000  0.75750000  1
  C  C143  1  0.84860000  0.74690000  0.00250000  1
  C  C144  1  0.86450000  0.85260000  0.03840000  1
  C  C145  1  0.87430000  0.99700000  0.38310000  1
  C  C146  1  0.87980000  0.63390000  0.91330000  1
  C  C147  1  0.90240000  0.73990000  0.95360000  1
  C  C148  1  0.90560000  0.56000000  0.81740000  1
  C  C149  1  0.91680000  0.14860000  0.31000000  1
  C  C150  1  0.92040000  0.65180000  0.85670000  1
  C  C151  1  0.92530000  0.95750000  0.01600000  1
  C  C152  1  0.92770000  0.05380000  0.05310000  1
  C  C153  1  0.94260000  0.64700000  0.22980000  1
  C  C154  1  0.95280000  0.11250000  0.37310000  1
  C  C155  1  0.98430000  0.89590000  0.36340000  1
  N  N156  1  0.12840000  0.55570000  0.39110000  1
  N  N157  1  0.14640000  0.95300000  0.66740000  1
  N  N158  1  0.35360000  0.04700000  0.16740000  1
  N  N159  1  0.37160000  0.44430000  0.89110000  1
  N  N160  1  0.62840000  0.94430000  0.60890000  1
  N  N161  1  0.64640000  0.54700000  0.33260000  1
  N  N162  1  0.85360000  0.45300000  0.83260000  1
  N  N163  1  0.87160000  0.05570000  0.10890000  1
  O  O164  1  0.02170000  0.30400000  0.10630000  1
  O  O165  1  0.02310000  0.37870000  0.72300000  1
  O  O166  1  0.03710000  0.14910000  0.21500000  1
  O  O167  1  0.06670000  0.89860000  0.31990000  1
  O  O168  1  0.10440000  0.66510000  0.62370000  1
  O  O169  1  0.16960000  0.65840000  0.71590000  1
  O  O170  1  0.18290000  0.31480000  0.78800000  1
  O  O171  1  0.19150000  0.15330000  0.29020000  1
  O  O172  1  0.30850000  0.84670000  0.79020000  1
  O  O173  1  0.31710000  0.68520000  0.28800000  1
  O  O174  1  0.33040000  0.34160000  0.21590000  1
  O  O175  1  0.39560000  0.33490000  0.12370000  1
  O  O176  1  0.43330000  0.10140000  0.81990000  1
  O  O177  1  0.46290000  0.85090000  0.71500000  1
  O  O178  1  0.47690000  0.62130000  0.22300000  1
  O  O179  1  0.47830000  0.69600000  0.60630000  1
  O  O180  1  0.52170000  0.19600000  0.89370000  1
  O  O181  1  0.52310000  0.12130000  0.27700000  1
  O  O182  1  0.53710000  0.35090000  0.78500000  1
  O  O183  1  0.56670000  0.60140000  0.68010000  1
  O  O184  1  0.60440000  0.83490000  0.37630000  1
  O  O185  1  0.66960000  0.84160000  0.28410000  1
  O  O186  1  0.68290000  0.18520000  0.21200000  1
  O  O187  1  0.69150000  0.34670000  0.70980000  1
  O  O188  1  0.80850000  0.65330000  0.20980000  1
  O  O189  1  0.81710000  0.81480000  0.71200000  1
  O  O190  1  0.83040000  0.15840000  0.78410000  1
  O  O191  1  0.89560000  0.16510000  0.87630000  1
  O  O192  1  0.93330000  0.39860000  0.18010000  1
  O  O193  1  0.96290000  0.64910000  0.28500000  1
  O  O194  1  0.97690000  0.87870000  0.77700000  1
  O  O195  1  0.97830000  0.80400000  0.39370000  1
