# generated using pymatgen
data_Ni2H39C63(N2O)6
_symmetry_space_group_name_H-M   'P 1'
_cell_length_a   13.88600000
_cell_length_b   16.87000000
_cell_length_c   16.87000000
_cell_angle_alpha   120.00000000
_cell_angle_beta   90.00000000
_cell_angle_gamma   90.00000000
_symmetry_Int_Tables_number   1
_chemical_formula_structural   Ni2H39C63(N2O)6
_chemical_formula_sum   'Ni4 H78 C126 N24 O12'
_cell_volume   3422.45666478
_cell_formula_units_Z   2
loop_
 _symmetry_equiv_pos_site_id
 _symmetry_equiv_pos_as_xyz
  1  'x, y, z'
loop_
 _atom_site_type_symbol
 _atom_site_label
 _atom_site_symmetry_multiplicity
 _atom_site_fract_x
 _atom_site_fract_y
 _atom_site_fract_z
 _atom_site_occupancy
  Ni  Ni0  1  0.39740000  0.66666667  0.33333333  1
  Ni  Ni1  1  0.10260000  0.66666667  0.33333333  1
  Ni  Ni2  1  0.89740000  0.33333333  0.66666667  1
  Ni  Ni3  1  0.60260000  0.33333333  0.66666667  1
  H  H4  1  0.54080000  0.99450000  0.22340000  1
  H  H5  1  0.95920000  0.99450000  0.77110000  1
  H  H6  1  0.42480000  0.98350000  0.31690000  1
  H  H7  1  0.07520000  0.98350000  0.66660000  1
  H  H8  1  0.38640000  0.93440000  0.42670000  1
  H  H9  1  0.11360000  0.93440000  0.50770000  1
  H  H10  1  0.15160000  0.88790000  0.16990000  1
  H  H11  1  0.34840000  0.88790000  0.71800000  1
  H  H12  1  0.34840000  0.83010000  0.11210000  1
  H  H13  1  0.15160000  0.83010000  0.71800000  1
  H  H14  1  0.75000000  0.82860000  0.41430000  1
  H  H15  1  0.35270000  0.79240000  0.22710000  1
  H  H16  1  0.14730000  0.79240000  0.56530000  1
  H  H17  1  0.58360000  0.78460000  0.36270000  1
  H  H18  1  0.91640000  0.78460000  0.42190000  1
  H  H19  1  0.95920000  0.77660000  0.00550000  1
  H  H20  1  0.54080000  0.77660000  0.77110000  1
  H  H21  1  0.14730000  0.77290000  0.20760000  1
  H  H22  1  0.35270000  0.77290000  0.56530000  1
  H  H23  1  0.04080000  0.77110000  0.77660000  1
  H  H24  1  0.45920000  0.77110000  0.99450000  1
  H  H25  1  0.65160000  0.71800000  0.83010000  1
  H  H26  1  0.84840000  0.71800000  0.88790000  1
  H  H27  1  0.07520000  0.68310000  0.01650000  1
  H  H28  1  0.42480000  0.68310000  0.66660000  1
  H  H29  1  0.92480000  0.66660000  0.68310000  1
  H  H30  1  0.57520000  0.66660000  0.98350000  1
  H  H31  1  0.91640000  0.63730000  0.21540000  1
  H  H32  1  0.58360000  0.63730000  0.42190000  1
  H  H33  1  0.75000000  0.58570000  0.17140000  1
  H  H34  1  0.75000000  0.58570000  0.41430000  1
  H  H35  1  0.58360000  0.57810000  0.21540000  1
  H  H36  1  0.91640000  0.57810000  0.36270000  1
  H  H37  1  0.11360000  0.57330000  0.06560000  1
  H  H38  1  0.38640000  0.57330000  0.50770000  1
  H  H39  1  0.85270000  0.56530000  0.77290000  1
  H  H40  1  0.64730000  0.56530000  0.79240000  1
  H  H41  1  0.88640000  0.50770000  0.57330000  1
  H  H42  1  0.61360000  0.50770000  0.93440000  1
  H  H43  1  0.38640000  0.49230000  0.06560000  1
  H  H44  1  0.11360000  0.49230000  0.42670000  1
  H  H45  1  0.35270000  0.43470000  0.20760000  1
  H  H46  1  0.14730000  0.43470000  0.22710000  1
  H  H47  1  0.61360000  0.42670000  0.49230000  1
  H  H48  1  0.88640000  0.42670000  0.93440000  1
  H  H49  1  0.08360000  0.42190000  0.63730000  1
  H  H50  1  0.41640000  0.42190000  0.78460000  1
  H  H51  1  0.25000000  0.41430000  0.58570000  1
  H  H52  1  0.25000000  0.41430000  0.82860000  1
  H  H53  1  0.41640000  0.36270000  0.57810000  1
  H  H54  1  0.08360000  0.36270000  0.78460000  1
  H  H55  1  0.42480000  0.33333333  0.01643333  1
  H  H56  1  0.07520000  0.33333333  0.31683333  1
  H  H57  1  0.57520000  0.31690000  0.33340000  1
  H  H58  1  0.92480000  0.31690000  0.98356667  1
  H  H59  1  0.15160000  0.28200000  0.11210000  1
  H  H60  1  0.34840000  0.28200000  0.16990000  1
  H  H61  1  0.54080000  0.22890000  0.00550000  1
  H  H62  1  0.95920000  0.22890000  0.22340000  1
  H  H63  1  0.64730000  0.22710000  0.43470000  1
  H  H64  1  0.85270000  0.22710000  0.79240000  1
  H  H65  1  0.45920000  0.22340000  0.22890000  1
  H  H66  1  0.04080000  0.22340000  0.99450000  1
  H  H67  1  0.08360000  0.21540000  0.57810000  1
  H  H68  1  0.41640000  0.21540000  0.63730000  1
  H  H69  1  0.85270000  0.20760000  0.43470000  1
  H  H70  1  0.64730000  0.20760000  0.77290000  1
  H  H71  1  0.25000000  0.17140000  0.58570000  1
  H  H72  1  0.84840000  0.16990000  0.28200000  1
  H  H73  1  0.65160000  0.16990000  0.88790000  1
  H  H74  1  0.65160000  0.11210000  0.28200000  1
  H  H75  1  0.84840000  0.11210000  0.83010000  1
  H  H76  1  0.88640000  0.06560000  0.49230000  1
  H  H77  1  0.61360000  0.06560000  0.57330000  1
  H  H78  1  0.92480000  0.01650000  0.33340000  1
  H  H79  1  0.57520000  0.01650000  0.68316667  1
  H  H80  1  0.04080000  0.00550000  0.22890000  1
  H  H81  1  0.45920000  0.00550000  0.77660000  1
  C  C82  1  0.96980000  0.96940000  0.30980000  1
  C  C83  1  0.53020000  0.96940000  0.65960000  1
  C  C84  1  0.33170000  0.96600000  0.45850000  1
  C  C85  1  0.16830000  0.96600000  0.50750000  1
  C  C86  1  0.03870000  0.96190000  0.24720000  1
  C  C87  1  0.46130000  0.96190000  0.71470000  1
  C  C88  1  0.83050000  0.93990000  0.44520000  1
  C  C89  1  0.66950000  0.93990000  0.49470000  1
  C  C90  1  0.25000000  0.91870000  0.45935000  1
  C  C91  1  0.97140000  0.90300000  0.33570000  1
  C  C92  1  0.52860000  0.90300000  0.56730000  1
  C  C93  1  0.75000000  0.89230000  0.44615000  1
  C  C94  1  0.10530000  0.88990000  0.21070000  1
  C  C95  1  0.39470000  0.88990000  0.67920000  1
  C  C96  1  0.03580000  0.82910000  0.29720000  1
  C  C97  1  0.46420000  0.82910000  0.53190000  1
  C  C98  1  0.10420000  0.82150000  0.23360000  1
  C  C99  1  0.39580000  0.82150000  0.58790000  1
  C  C100  1  0.25000000  0.81530000  0.40765000  1
  C  C101  1  0.94420000  0.80960000  0.38910000  1
  C  C102  1  0.55580000  0.80960000  0.42050000  1
  C  C103  1  0.39470000  0.78930000  0.11010000  1
  C  C104  1  0.10530000  0.78930000  0.67920000  1
  C  C105  1  0.39580000  0.76640000  0.17850000  1
  C  C106  1  0.10420000  0.76640000  0.58790000  1
  C  C107  1  0.46130000  0.75280000  0.03810000  1
  C  C108  1  0.03870000  0.75280000  0.71470000  1
  C  C109  1  0.53870000  0.71470000  0.75280000  1
  C  C110  1  0.96130000  0.71470000  0.96190000  1
  C  C111  1  0.46420000  0.70280000  0.17090000  1
  C  C112  1  0.03580000  0.70280000  0.53190000  1
  C  C113  1  0.53020000  0.69020000  0.03060000  1
  C  C114  1  0.96980000  0.69020000  0.65960000  1
  C  C115  1  0.60530000  0.67920000  0.78930000  1
  C  C116  1  0.89470000  0.67920000  0.88990000  1
  C  C117  1  0.52860000  0.66430000  0.09700000  1
  C  C118  1  0.97140000  0.66430000  0.56730000  1
  C  C119  1  0.46980000  0.65960000  0.69020000  1
  C  C120  1  0.03020000  0.65960000  0.96940000  1
  C  C121  1  0.55580000  0.61090000  0.19040000  1
  C  C122  1  0.94420000  0.61090000  0.42050000  1
  C  C123  1  0.25000000  0.59235000  0.18470000  1
  C  C124  1  0.25000000  0.59235000  0.40765000  1
  C  C125  1  0.60420000  0.58790000  0.76640000  1
  C  C126  1  0.89580000  0.58790000  0.82150000  1
  C  C127  1  0.94420000  0.57950000  0.19040000  1
  C  C128  1  0.55580000  0.57950000  0.38910000  1
  C  C129  1  0.47140000  0.56730000  0.66430000  1
  C  C130  1  0.02860000  0.56730000  0.90300000  1
  C  C131  1  0.66950000  0.55480000  0.06010000  1
  C  C132  1  0.83050000  0.55480000  0.49470000  1
  C  C133  1  0.75000000  0.55385000  0.10770000  1
  C  C134  1  0.75000000  0.55385000  0.44615000  1
  C  C135  1  0.16830000  0.54150000  0.03400000  1
  C  C136  1  0.33170000  0.54150000  0.50750000  1
  C  C137  1  0.25000000  0.54065000  0.08130000  1
  C  C138  1  0.25000000  0.54065000  0.45935000  1
  C  C139  1  0.53580000  0.53190000  0.70280000  1
  C  C140  1  0.96420000  0.53190000  0.82910000  1
  C  C141  1  0.83170000  0.50750000  0.54150000  1
  C  C142  1  0.66830000  0.50750000  0.96600000  1
  C  C143  1  0.83050000  0.50530000  0.06010000  1
  C  C144  1  0.66950000  0.50530000  0.44520000  1
  C  C145  1  0.33050000  0.49470000  0.55480000  1
  C  C146  1  0.16950000  0.49470000  0.93990000  1
  C  C147  1  0.33170000  0.49250000  0.03400000  1
  C  C148  1  0.16830000  0.49250000  0.45850000  1
  C  C149  1  0.03580000  0.46810000  0.17090000  1
  C  C150  1  0.46420000  0.46810000  0.29720000  1
  C  C151  1  0.75000000  0.45935000  0.54065000  1
  C  C152  1  0.75000000  0.45935000  0.91870000  1
  C  C153  1  0.66830000  0.45850000  0.49250000  1
  C  C154  1  0.83170000  0.45850000  0.96600000  1
  C  C155  1  0.25000000  0.44615000  0.55385000  1
  C  C156  1  0.25000000  0.44615000  0.89230000  1
  C  C157  1  0.16950000  0.44520000  0.50530000  1
  C  C158  1  0.33050000  0.44520000  0.93990000  1
  C  C159  1  0.97140000  0.43270000  0.09700000  1
  C  C160  1  0.52860000  0.43270000  0.33570000  1
  C  C161  1  0.44420000  0.42050000  0.61090000  1
  C  C162  1  0.05580000  0.42050000  0.80960000  1
  C  C163  1  0.10420000  0.41210000  0.17850000  1
  C  C164  1  0.39580000  0.41210000  0.23360000  1
  C  C165  1  0.75000000  0.40765000  0.59235000  1
  C  C166  1  0.75000000  0.40765000  0.81530000  1
  C  C167  1  0.05580000  0.38910000  0.57950000  1
  C  C168  1  0.44420000  0.38910000  0.80960000  1
  C  C169  1  0.96980000  0.34040000  0.03060000  1
  C  C170  1  0.53020000  0.34040000  0.30980000  1
  C  C171  1  0.02860000  0.33570000  0.43270000  1
  C  C172  1  0.47140000  0.33570000  0.90300000  1
  C  C173  1  0.10530000  0.32080000  0.11010000  1
  C  C174  1  0.39470000  0.32080000  0.21070000  1
  C  C175  1  0.03020000  0.30980000  0.34040000  1
  C  C176  1  0.46980000  0.30980000  0.96940000  1
  C  C177  1  0.96420000  0.29720000  0.46810000  1
  C  C178  1  0.53580000  0.29720000  0.82910000  1
  C  C179  1  0.03870000  0.28530000  0.03810000  1
  C  C180  1  0.46130000  0.28530000  0.24720000  1
  C  C181  1  0.96130000  0.24720000  0.28530000  1
  C  C182  1  0.53870000  0.24720000  0.96190000  1
  C  C183  1  0.89580000  0.23360000  0.41210000  1
  C  C184  1  0.60420000  0.23360000  0.82150000  1
  C  C185  1  0.89470000  0.21070000  0.32080000  1
  C  C186  1  0.60530000  0.21070000  0.88990000  1
  C  C187  1  0.44420000  0.19040000  0.57950000  1
  C  C188  1  0.05580000  0.19040000  0.61090000  1
  C  C189  1  0.75000000  0.18470000  0.59235000  1
  C  C190  1  0.60420000  0.17850000  0.41210000  1
  C  C191  1  0.89580000  0.17850000  0.76640000  1
  C  C192  1  0.53580000  0.17090000  0.46810000  1
  C  C193  1  0.96420000  0.17090000  0.70280000  1
  C  C194  1  0.60530000  0.11010000  0.32080000  1
  C  C195  1  0.89470000  0.11010000  0.78930000  1
  C  C196  1  0.25000000  0.10770000  0.55385000  1
  C  C197  1  0.47140000  0.09700000  0.43270000  1
  C  C198  1  0.02860000  0.09700000  0.66430000  1
  C  C199  1  0.75000000  0.08130000  0.54065000  1
  C  C200  1  0.33050000  0.06010000  0.50530000  1
  C  C201  1  0.16950000  0.06010000  0.55480000  1
  C  C202  1  0.53870000  0.03810000  0.28530000  1
  C  C203  1  0.96130000  0.03810000  0.75280000  1
  C  C204  1  0.83170000  0.03400000  0.49250000  1
  C  C205  1  0.66830000  0.03400000  0.54150000  1
  C  C206  1  0.46980000  0.03060000  0.34040000  1
  C  C207  1  0.03020000  0.03060000  0.69020000  1
  N  N208  1  0.91340000  0.88880000  0.39460000  1
  N  N209  1  0.58660000  0.88880000  0.49420000  1
  N  N210  1  0.01730000  0.77190000  0.33270000  1
  N  N211  1  0.48270000  0.77190000  0.43920000  1
  N  N212  1  0.48270000  0.66730000  0.22810000  1
  N  N213  1  0.01730000  0.66730000  0.43920000  1
  N  N214  1  0.58660000  0.60540000  0.11120000  1
  N  N215  1  0.91340000  0.60540000  0.49420000  1
  N  N216  1  0.01730000  0.56080000  0.22810000  1
  N  N217  1  0.48270000  0.56080000  0.33270000  1
  N  N218  1  0.91340000  0.50580000  0.11120000  1
  N  N219  1  0.58660000  0.50580000  0.39460000  1
  N  N220  1  0.41340000  0.49420000  0.60540000  1
  N  N221  1  0.08660000  0.49420000  0.88880000  1
  N  N222  1  0.51730000  0.43920000  0.66730000  1
  N  N223  1  0.98270000  0.43920000  0.77190000  1
  N  N224  1  0.08660000  0.39460000  0.50580000  1
  N  N225  1  0.41340000  0.39460000  0.88880000  1
  N  N226  1  0.98270000  0.33270000  0.56080000  1
  N  N227  1  0.51730000  0.33270000  0.77190000  1
  N  N228  1  0.51730000  0.22810000  0.56080000  1
  N  N229  1  0.98270000  0.22810000  0.66730000  1
  N  N230  1  0.41340000  0.11120000  0.50580000  1
  N  N231  1  0.08660000  0.11120000  0.60540000  1
  O  O232  1  0.31900000  0.77720000  0.35290000  1
  O  O233  1  0.18100000  0.77720000  0.42430000  1
  O  O234  1  0.18100000  0.64710000  0.22280000  1
  O  O235  1  0.31900000  0.64710000  0.42430000  1
  O  O236  1  0.31900000  0.57570000  0.22280000  1
  O  O237  1  0.18100000  0.57570000  0.35290000  1
  O  O238  1  0.81900000  0.42430000  0.64710000  1
  O  O239  1  0.68100000  0.42430000  0.77720000  1
  O  O240  1  0.68100000  0.35290000  0.57570000  1
  O  O241  1  0.81900000  0.35290000  0.77720000  1
  O  O242  1  0.81900000  0.22280000  0.57570000  1
  O  O243  1  0.68100000  0.22280000  0.64710000  1
