# generated using pymatgen
data_Th2H36C63(NO6)3
_symmetry_space_group_name_H-M   'P 1'
_cell_length_a   17.16865813
_cell_length_b   17.16865813
_cell_length_c   17.16865813
_cell_angle_alpha   92.77620215
_cell_angle_beta   92.77620215
_cell_angle_gamma   92.77620215
_symmetry_Int_Tables_number   1
_chemical_formula_structural   Th2H36C63(NO6)3
_chemical_formula_sum   'Th4 H72 C126 N6 O36'
_cell_volume   5042.26549389
_cell_formula_units_Z   2
loop_
 _symmetry_equiv_pos_site_id
 _symmetry_equiv_pos_as_xyz
  1  'x, y, z'
loop_
 _atom_site_type_symbol
 _atom_site_label
 _atom_site_symmetry_multiplicity
 _atom_site_fract_x
 _atom_site_fract_y
 _atom_site_fract_z
 _atom_site_occupancy
  C  C0  1  0.75000000  0.66047000  0.83953000  1
  C  C1  1  0.88420000  0.98392000  0.75557000  1
  C  C2  1  0.38420000  0.25557000  0.48392000  1
  C  C3  1  0.89587000  0.05147000  0.70482000  1
  C  C4  1  0.39587000  0.20482000  0.55147000  1
  C  C5  1  0.91806000  0.18264000  0.61392000  1
  C  C6  1  0.41806000  0.11392000  0.68264000  1
  C  C7  1  0.30805000  0.51585000  0.04668000  1
  C  C8  1  0.80805000  0.54668000  0.01585000  1
  C  C9  1  0.30872000  0.45966000  0.10286000  1
  C  C10  1  0.80872000  0.60286000  0.95966000  1
  C  C11  1  0.65649000  0.86110000  0.33907000  1
  C  C12  1  0.15649000  0.83907000  0.36110000  1
  C  C13  1  0.66661000  0.81551000  0.40364000  1
  C  C14  1  0.16661000  0.90364000  0.31551000  1
  C  C15  1  0.61392000  0.91806000  0.18264000  1
  C  C16  1  0.11392000  0.68264000  0.41806000  1
  C  C17  1  0.63191000  0.97998000  0.13585000  1
  C  C18  1  0.13191000  0.63585000  0.47998000  1
  C  C19  1  0.33907000  0.65649000  0.86110000  1
  C  C20  1  0.83907000  0.36110000  0.15649000  1
  C  C21  1  0.31736000  0.58194000  0.88608000  1
  C  C22  1  0.81736000  0.38608000  0.08194000  1
  C  C23  1  0.96912000  0.07078000  0.67625000  1
  C  C24  1  0.46912000  0.17625000  0.57078000  1
  C  C25  1  0.97998000  0.13585000  0.63191000  1
  C  C26  1  0.47998000  0.13191000  0.63585000  1
  C  C27  1  0.98715000  0.25000000  0.51285000  1
  C  C28  1  0.48715000  0.01285000  0.75000000  1
  C  C29  1  0.33953000  0.16047000  0.25000000  1
  C  C30  1  0.83953000  0.75000000  0.66047000  1
  C  C31  1  0.04668000  0.30805000  0.51585000  1
  C  C32  1  0.54668000  0.01585000  0.80805000  1
  C  C33  1  0.63890000  0.84351000  0.16093000  1
  C  C34  1  0.13890000  0.66093000  0.34351000  1
  C  C35  1  0.67625000  0.96912000  0.07078000  1
  C  C36  1  0.17625000  0.57078000  0.46912000  1
  C  C37  1  0.98415000  0.19195000  0.45332000  1
  C  C38  1  0.48415000  0.95332000  0.69195000  1
  C  C39  1  0.40364000  0.66661000  0.81551000  1
  C  C40  1  0.90364000  0.31551000  0.16661000  1
  C  C41  1  0.48392000  0.38420000  0.25557000  1
  C  C42  1  0.98392000  0.75557000  0.88420000  1
  C  C43  1  0.36415000  0.52002000  0.86809000  1
  C  C44  1  0.86415000  0.36809000  0.02002000  1
  C  C45  1  0.74443000  0.51608000  0.61580000  1
  C  C46  1  0.24443000  0.11580000  0.01608000  1
  C  C47  1  0.10286000  0.30872000  0.45966000  1
  C  C48  1  0.60286000  0.95966000  0.80872000  1
  C  C49  1  0.68449000  0.83339000  0.09636000  1
  C  C50  1  0.18449000  0.59636000  0.33339000  1
  C  C51  1  0.39983000  0.10017000  0.25000000  1
  C  C52  1  0.89983000  0.75000000  0.60017000  1
  C  C53  1  0.70482000  0.89587000  0.05147000  1
  C  C54  1  0.20482000  0.55147000  0.39587000  1
  C  C55  1  0.04034000  0.19128000  0.39714000  1
  C  C56  1  0.54034000  0.89714000  0.69128000  1
  C  C57  1  0.57078000  0.46912000  0.17625000  1
  C  C58  1  0.07078000  0.67625000  0.96912000  1
  C  C59  1  0.44853000  0.60413000  0.79518000  1
  C  C60  1  0.94853000  0.29518000  0.10413000  1
  C  C61  1  0.55147000  0.39587000  0.20482000  1
  C  C62  1  0.05147000  0.70482000  0.89587000  1
  C  C63  1  0.42922000  0.53088000  0.82375000  1
  C  C64  1  0.92922000  0.32375000  0.03088000  1
  C  C65  1  0.95966000  0.80872000  0.60286000  1
  C  C66  1  0.45966000  0.10286000  0.30872000  1
  C  C67  1  0.79518000  0.44853000  0.60413000  1
  C  C68  1  0.29518000  0.10413000  0.94853000  1
  C  C69  1  0.10017000  0.25000000  0.39983000  1
  C  C70  1  0.60017000  0.89983000  0.75000000  1
  C  C71  1  0.31551000  0.16661000  0.90364000  1
  C  C72  1  0.81551000  0.40364000  0.66661000  1
  C  C73  1  0.39714000  0.04034000  0.19128000  1
  C  C74  1  0.89714000  0.69128000  0.54034000  1
  C  C75  1  0.75557000  0.88420000  0.98392000  1
  C  C76  1  0.25557000  0.48392000  0.38420000  1
  C  C77  1  0.63585000  0.47998000  0.13191000  1
  C  C78  1  0.13585000  0.63191000  0.97998000  1
  C  C79  1  0.51608000  0.61580000  0.74443000  1
  C  C80  1  0.01608000  0.24443000  0.11580000  1
  C  C81  1  0.09636000  0.68449000  0.83339000  1
  C  C82  1  0.59636000  0.33339000  0.18449000  1
  C  C83  1  0.01585000  0.80805000  0.54668000  1
  C  C84  1  0.51585000  0.04668000  0.30805000  1
  C  C85  1  0.82375000  0.42922000  0.53088000  1
  C  C86  1  0.32375000  0.03088000  0.92922000  1
  C  C87  1  0.36110000  0.15649000  0.83907000  1
  C  C88  1  0.86110000  0.33907000  0.65649000  1
  C  C89  1  0.45332000  0.98415000  0.19195000  1
  C  C90  1  0.95332000  0.69195000  0.48415000  1
  C  C91  1  0.16047000  0.25000000  0.33953000  1
  C  C92  1  0.66047000  0.83953000  0.75000000  1
  C  C93  1  0.51285000  0.98715000  0.25000000  1
  C  C94  1  0.01285000  0.75000000  0.48715000  1
  C  C95  1  0.02002000  0.86415000  0.36809000  1
  C  C96  1  0.52002000  0.86809000  0.36415000  1
  C  C97  1  0.03088000  0.92922000  0.32375000  1
  C  C98  1  0.53088000  0.82375000  0.42922000  1
  C  C99  1  0.68264000  0.41806000  0.11392000  1
  C  C100  1  0.18264000  0.61392000  0.91806000  1
  C  C101  1  0.16093000  0.63890000  0.84351000  1
  C  C102  1  0.66093000  0.34351000  0.13890000  1
  C  C103  1  0.86809000  0.36415000  0.52002000  1
  C  C104  1  0.36809000  0.02002000  0.86415000  1
  C  C105  1  0.88608000  0.31736000  0.58194000  1
  C  C106  1  0.38608000  0.08194000  0.81736000  1
  C  C107  1  0.33339000  0.18449000  0.59636000  1
  C  C108  1  0.83339000  0.09636000  0.68449000  1
  C  C109  1  0.34351000  0.13890000  0.66093000  1
  C  C110  1  0.84351000  0.16093000  0.63890000  1
  C  C111  1  0.69128000  0.54034000  0.89714000  1
  C  C112  1  0.19128000  0.39714000  0.04034000  1
  C  C113  1  0.69195000  0.48415000  0.95332000  1
  C  C114  1  0.19195000  0.45332000  0.98415000  1
  C  C115  1  0.08194000  0.81736000  0.38608000  1
  C  C116  1  0.58194000  0.88608000  0.31736000  1
  C  C117  1  0.10413000  0.94853000  0.29518000  1
  C  C118  1  0.60413000  0.79518000  0.44853000  1
  C  C119  1  0.11580000  0.01608000  0.24443000  1
  C  C120  1  0.61580000  0.74443000  0.51608000  1
  C  C121  1  0.75000000  0.48715000  0.01285000  1
  C  C122  1  0.75000000  0.60017000  0.89983000  1
  C  C123  1  0.25000000  0.33953000  0.16047000  1
  C  C124  1  0.25000000  0.39983000  0.10017000  1
  C  C125  1  0.25000000  0.51285000  0.98715000  1
  H  H126  1  0.30970000  0.70000000  0.87540000  1
  H  H127  1  0.80970000  0.37540000  0.20000000  1
  H  H128  1  0.61370000  0.03020000  0.14860000  1
  H  H129  1  0.11370000  0.64860000  0.53020000  1
  H  H130  1  0.34770000  0.55660000  0.04920000  1
  H  H131  1  0.84770000  0.54920000  0.05660000  1
  H  H132  1  0.34910000  0.46200000  0.14300000  1
  H  H133  1  0.84910000  0.64300000  0.96200000  1
  H  H134  1  0.04920000  0.34770000  0.55660000  1
  H  H135  1  0.54920000  0.05660000  0.84770000  1
  H  H136  1  0.70000000  0.87540000  0.30970000  1
  H  H137  1  0.20000000  0.80970000  0.37540000  1
  H  H138  1  0.71700000  0.79810000  0.41710000  1
  H  H139  1  0.21700000  0.91710000  0.29810000  1
  H  H140  1  0.62460000  0.80000000  0.19030000  1
  H  H141  1  0.12460000  0.69030000  0.30000000  1
  H  H142  1  0.94340000  0.15230000  0.45080000  1
  H  H143  1  0.44340000  0.95080000  0.65230000  1
  H  H144  1  0.01180000  0.03910000  0.68730000  1
  H  H145  1  0.51180000  0.18730000  0.53910000  1
  H  H146  1  0.03020000  0.14860000  0.61370000  1
  H  H147  1  0.53020000  0.11370000  0.64860000  1
  H  H148  1  0.41710000  0.71700000  0.79810000  1
  H  H149  1  0.91710000  0.29810000  0.21700000  1
  H  H150  1  0.68730000  0.01180000  0.03910000  1
  H  H151  1  0.18730000  0.53910000  0.51180000  1
  H  H152  1  0.35140000  0.46980000  0.88630000  1
  H  H153  1  0.85140000  0.38630000  0.96980000  1
  H  H154  1  0.53910000  0.51180000  0.18730000  1
  H  H155  1  0.03910000  0.68730000  0.01180000  1
  H  H156  1  0.96200000  0.84910000  0.64300000  1
  H  H157  1  0.46200000  0.14300000  0.34910000  1
  H  H158  1  0.29810000  0.21700000  0.91710000  1
  H  H159  1  0.79810000  0.41710000  0.71700000  1
  H  H160  1  0.14300000  0.34910000  0.46200000  1
  H  H161  1  0.64300000  0.96200000  0.84910000  1
  H  H162  1  0.35700000  0.03800000  0.15090000  1
  H  H163  1  0.85700000  0.65090000  0.53800000  1
  H  H164  1  0.70190000  0.78300000  0.08290000  1
  H  H165  1  0.20190000  0.58290000  0.28300000  1
  H  H166  1  0.03800000  0.15090000  0.35700000  1
  H  H167  1  0.53800000  0.85700000  0.65090000  1
  H  H168  1  0.46090000  0.48820000  0.81270000  1
  H  H169  1  0.96090000  0.31270000  0.98820000  1
  H  H170  1  0.64860000  0.53020000  0.11370000  1
  H  H171  1  0.14860000  0.61370000  0.03020000  1
  H  H172  1  0.81270000  0.46090000  0.48820000  1
  H  H173  1  0.31270000  0.98820000  0.96090000  1
  H  H174  1  0.08290000  0.70190000  0.78300000  1
  H  H175  1  0.58290000  0.28300000  0.20190000  1
  H  H176  1  0.96980000  0.85140000  0.38630000  1
  H  H177  1  0.46980000  0.88630000  0.35140000  1
  H  H178  1  0.98820000  0.96090000  0.31270000  1
  H  H179  1  0.48820000  0.81270000  0.46090000  1
  H  H180  1  0.05660000  0.84770000  0.54920000  1
  H  H181  1  0.55660000  0.04920000  0.34770000  1
  H  H182  1  0.37540000  0.20000000  0.80970000  1
  H  H183  1  0.87540000  0.30970000  0.70000000  1
  H  H184  1  0.28300000  0.20190000  0.58290000  1
  H  H185  1  0.78300000  0.08290000  0.70190000  1
  H  H186  1  0.30000000  0.12460000  0.69030000  1
  H  H187  1  0.80000000  0.19030000  0.62460000  1
  H  H188  1  0.45080000  0.94340000  0.15230000  1
  H  H189  1  0.95080000  0.65230000  0.44340000  1
  H  H190  1  0.65090000  0.53800000  0.85700000  1
  H  H191  1  0.15090000  0.35700000  0.03800000  1
  H  H192  1  0.65230000  0.44340000  0.95080000  1
  H  H193  1  0.15230000  0.45080000  0.94340000  1
  H  H194  1  0.88630000  0.35140000  0.46980000  1
  H  H195  1  0.38630000  0.96980000  0.85140000  1
  H  H196  1  0.19030000  0.62460000  0.80000000  1
  H  H197  1  0.69030000  0.30000000  0.12460000  1
  N  N198  1  0.75000000  0.42947000  0.07053000  1
  N  N199  1  0.92947000  0.25000000  0.57053000  1
  N  N200  1  0.42947000  0.07053000  0.75000000  1
  N  N201  1  0.57053000  0.92947000  0.25000000  1
  N  N202  1  0.07053000  0.75000000  0.42947000  1
  N  N203  1  0.25000000  0.57053000  0.92947000  1
  O  O204  1  0.30823000  0.34046000  0.20833000  1
  O  O205  1  0.80823000  0.70833000  0.84046000  1
  O  O206  1  0.68223000  0.71784000  0.52991000  1
  O  O207  1  0.18223000  0.02991000  0.21784000  1
  O  O208  1  0.84046000  0.80823000  0.70833000  1
  O  O209  1  0.34046000  0.20833000  0.30823000  1
  O  O210  1  0.94043000  0.94071000  0.77165000  1
  O  O211  1  0.44043000  0.27165000  0.44071000  1
  O  O212  1  0.44071000  0.44043000  0.27165000  1
  O  O213  1  0.94071000  0.77165000  0.94043000  1
  O  O214  1  0.21784000  0.18223000  0.02991000  1
  O  O215  1  0.71784000  0.52991000  0.68223000  1
  O  O216  1  0.29167000  0.15954000  0.19177000  1
  O  O217  1  0.79167000  0.69177000  0.65954000  1
  O  O218  1  0.72835000  0.55929000  0.55957000  1
  O  O219  1  0.22835000  0.05957000  0.05929000  1
  O  O220  1  0.97009000  0.78216000  0.81777000  1
  O  O221  1  0.47009000  0.31777000  0.28216000  1
  O  O222  1  0.52991000  0.68223000  0.71784000  1
  O  O223  1  0.02991000  0.21784000  0.18223000  1
  O  O224  1  0.77165000  0.94043000  0.94071000  1
  O  O225  1  0.27165000  0.44071000  0.44043000  1
  O  O226  1  0.20833000  0.30823000  0.34046000  1
  O  O227  1  0.70833000  0.84046000  0.80823000  1
  O  O228  1  0.78216000  0.81777000  0.97009000  1
  O  O229  1  0.28216000  0.47009000  0.31777000  1
  O  O230  1  0.55929000  0.55957000  0.72835000  1
  O  O231  1  0.05929000  0.22835000  0.05957000  1
  O  O232  1  0.05957000  0.05929000  0.22835000  1
  O  O233  1  0.55957000  0.72835000  0.55929000  1
  O  O234  1  0.15954000  0.19177000  0.29167000  1
  O  O235  1  0.65954000  0.79167000  0.69177000  1
  O  O236  1  0.31777000  0.28216000  0.47009000  1
  O  O237  1  0.81777000  0.97009000  0.78216000  1
  O  O238  1  0.69177000  0.65954000  0.79167000  1
  O  O239  1  0.19177000  0.29167000  0.15954000  1
  Th  Th240  1  0.15443667  0.15443667  0.15443667  1
  Th  Th241  1  0.34556333  0.34556333  0.34556333  1
  Th  Th242  1  0.65443667  0.65443667  0.65443667  1
  Th  Th243  1  0.84556333  0.84556333  0.84556333  1
