# generated using pymatgen
data_EuH15(C9O2)3
_symmetry_space_group_name_H-M   'P 1'
_cell_length_a   13.87000000
_cell_length_b   14.06500000
_cell_length_c   22.21357912
_cell_angle_alpha   108.45656356
_cell_angle_beta   101.37050911
_cell_angle_gamma   90.00000000
_symmetry_Int_Tables_number   1
_chemical_formula_structural   EuH15(C9O2)3
_chemical_formula_sum   'Eu4 H60 C108 O24'
_cell_volume   4020.79732366
_cell_formula_units_Z   4
loop_
 _symmetry_equiv_pos_site_id
 _symmetry_equiv_pos_as_xyz
  1  'x, y, z'
loop_
 _atom_site_type_symbol
 _atom_site_label
 _atom_site_symmetry_multiplicity
 _atom_site_fract_x
 _atom_site_fract_y
 _atom_site_fract_z
 _atom_site_occupancy
  C  C0  1  0.11810000  0.75160000  0.99880000  1
  C  C1  1  0.61810000  0.24720000  0.99880000  1
  C  C2  1  0.40530000  0.91340000  0.98700000  1
  C  C3  1  0.90530000  0.07360000  0.98700000  1
  C  C4  1  0.40310000  0.80910000  0.96340000  1
  C  C5  1  0.90310000  0.15430000  0.96340000  1
  C  C6  1  0.11380000  0.91310000  0.95180000  1
  C  C7  1  0.61380000  0.03870000  0.95180000  1
  C  C8  1  0.13720000  0.73840000  0.93780000  1
  C  C9  1  0.63720000  0.19940000  0.93780000  1
  C  C10  1  0.13500000  0.81910000  0.91420000  1
  C  C11  1  0.63500000  0.09510000  0.91420000  1
  C  C12  1  0.42120000  0.75544000  0.89508000  1
  C  C13  1  0.92120000  0.13964000  0.89508000  1
  C  C14  1  0.43590000  0.65330000  0.87700000  1
  C  C15  1  0.93590000  0.22370000  0.87700000  1
  C  C16  1  0.42980000  0.80900000  0.85320000  1
  C  C17  1  0.92980000  0.04420000  0.85320000  1
  C  C18  1  0.14640000  0.80330000  0.84620000  1
  C  C19  1  0.64640000  0.04290000  0.84620000  1
  C  C20  1  0.13990000  0.88260000  0.81960000  1
  C  C21  1  0.63990000  0.93700000  0.81960000  1
  C  C22  1  0.45920000  0.60480000  0.81720000  1
  C  C23  1  0.95920000  0.21240000  0.81720000  1
  C  C24  1  0.17130000  0.70610000  0.80680000  1
  C  C25  1  0.67130000  0.10070000  0.80680000  1
  C  C26  1  0.45310000  0.76051000  0.79342000  1
  C  C27  1  0.95310000  0.03291000  0.79342000  1
  C  C28  1  0.46780000  0.65839000  0.77538000  1
  C  C29  1  0.96780000  0.11699000  0.77538000  1
  C  C30  1  0.15550000  0.86380000  0.75660000  1
  C  C31  1  0.65550000  0.89280000  0.75660000  1
  C  C32  1  0.18230000  0.68960000  0.74300000  1
  C  C33  1  0.68230000  0.05340000  0.74300000  1
  C  C34  1  0.17640000  0.77190000  0.71760000  1
  C  C35  1  0.67640000  0.94570000  0.71760000  1
  C  C36  1  0.50050000  0.60690000  0.71180000  1
  C  C37  1  0.00050000  0.10490000  0.71180000  1
  C  C38  1  0.18700000  0.75210000  0.64860000  1
  C  C39  1  0.68700000  0.89650000  0.64860000  1
  C  C40  1  0.25150000  0.68550000  0.62260000  1
  C  C41  1  0.75150000  0.93710000  0.62260000  1
  C  C42  1  0.13030000  0.80160000  0.60940000  1
  C  C43  1  0.63030000  0.80780000  0.60940000  1
  C  C44  1  0.26230000  0.66510000  0.55960000  1
  C  C45  1  0.76230000  0.89450000  0.55960000  1
  C  C46  1  0.63580000  0.76470000  0.54480000  1
  C  C47  1  0.13580000  0.78010000  0.54480000  1
  C  C48  1  0.33720000  0.58920000  0.53100000  1
  C  C49  1  0.83720000  0.94180000  0.53100000  1
  C  C50  1  0.19960000  0.70860000  0.51920000  1
  C  C51  1  0.69960000  0.81060000  0.51920000  1
  C  C52  1  0.57710000  0.67400000  0.50560000  1
  C  C53  1  0.07710000  0.83160000  0.50560000  1
  C  C54  1  0.42290000  0.32600000  0.49440000  1
  C  C55  1  0.92290000  0.16840000  0.49440000  1
  C  C56  1  0.80040000  0.29140000  0.48080000  1
  C  C57  1  0.30040000  0.18940000  0.48080000  1
  C  C58  1  0.66280000  0.41080000  0.46900000  1
  C  C59  1  0.16280000  0.05820000  0.46900000  1
  C  C60  1  0.36420000  0.23530000  0.45520000  1
  C  C61  1  0.86420000  0.21990000  0.45520000  1
  C  C62  1  0.73770000  0.33490000  0.44040000  1
  C  C63  1  0.23770000  0.10550000  0.44040000  1
  C  C64  1  0.86970000  0.19840000  0.39060000  1
  C  C65  1  0.36970000  0.19220000  0.39060000  1
  C  C66  1  0.74850000  0.31450000  0.37740000  1
  C  C67  1  0.24850000  0.06290000  0.37740000  1
  C  C68  1  0.81300000  0.24790000  0.35140000  1
  C  C69  1  0.31300000  0.10350000  0.35140000  1
  C  C70  1  0.49950000  0.39310000  0.28820000  1
  C  C71  1  0.99950000  0.89510000  0.28820000  1
  C  C72  1  0.82360000  0.22810000  0.28240000  1
  C  C73  1  0.32360000  0.05430000  0.28240000  1
  C  C74  1  0.81770000  0.31040000  0.25700000  1
  C  C75  1  0.31770000  0.94660000  0.25700000  1
  C  C76  1  0.84450000  0.13620000  0.24340000  1
  C  C77  1  0.34450000  0.10720000  0.24340000  1
  C  C78  1  0.53220000  0.34161000  0.22462000  1
  C  C79  1  0.03220000  0.88301000  0.22462000  1
  C  C80  1  0.54690000  0.23949000  0.20658000  1
  C  C81  1  0.04690000  0.96709000  0.20658000  1
  C  C82  1  0.82870000  0.29390000  0.19320000  1
  C  C83  1  0.32870000  0.89930000  0.19320000  1
  C  C84  1  0.54080000  0.39520000  0.18280000  1
  C  C85  1  0.04080000  0.78760000  0.18280000  1
  C  C86  1  0.86010000  0.11740000  0.18040000  1
  C  C87  1  0.36010000  0.06300000  0.18040000  1
  C  C88  1  0.85360000  0.19670000  0.15380000  1
  C  C89  1  0.35360000  0.95710000  0.15380000  1
  C  C90  1  0.57020000  0.19100000  0.14680000  1
  C  C91  1  0.07020000  0.95580000  0.14680000  1
  C  C92  1  0.56410000  0.34670000  0.12300000  1
  C  C93  1  0.06410000  0.77630000  0.12300000  1
  C  C94  1  0.57880000  0.24456000  0.10492000  1
  C  C95  1  0.07880000  0.86036000  0.10492000  1
  C  C96  1  0.86500000  0.18090000  0.08580000  1
  C  C97  1  0.36500000  0.90490000  0.08580000  1
  C  C98  1  0.86280000  0.26160000  0.06220000  1
  C  C99  1  0.36280000  0.80060000  0.06220000  1
  C  C100  1  0.88620000  0.08690000  0.04820000  1
  C  C101  1  0.38620000  0.96130000  0.04820000  1
  C  C102  1  0.59690000  0.19090000  0.03660000  1
  C  C103  1  0.09690000  0.84570000  0.03660000  1
  C  C104  1  0.59470000  0.08660000  0.01300000  1
  C  C105  1  0.09470000  0.92640000  0.01300000  1
  C  C106  1  0.88190000  0.24840000  0.00120000  1
  C  C107  1  0.38190000  0.75280000  0.00120000  1
  Eu  Eu108  1  0.54796000  0.50355000  0.59178000  1
  Eu  Eu109  1  0.04796000  0.08823000  0.59178000  1
  Eu  Eu110  1  0.45204000  0.49645000  0.40822000  1
  Eu  Eu111  1  0.95204000  0.91177000  0.40822000  1
  H  H112  1  0.38040000  0.68300000  0.98540000  1
  H  H113  1  0.88040000  0.30240000  0.98540000  1
  H  H114  1  0.41950000  0.95110000  0.96180000  1
  H  H115  1  0.91950000  0.01070000  0.96180000  1
  H  H116  1  0.11230000  0.96720000  0.93620000  1
  H  H117  1  0.61230000  0.96900000  0.93620000  1
  H  H118  1  0.15140000  0.67540000  0.91240000  1
  H  H119  1  0.65140000  0.23700000  0.91240000  1
  H  H120  1  0.43010000  0.61750000  0.90500000  1
  H  H121  1  0.93010000  0.28750000  0.90500000  1
  H  H122  1  0.42000000  0.87740000  0.86540000  1
  H  H123  1  0.92000000  0.98800000  0.86540000  1
  H  H124  1  0.62540000  0.89720000  0.84340000  1
  H  H125  1  0.12540000  0.94620000  0.84340000  1
  H  H126  1  0.18000000  0.65390000  0.82420000  1
  H  H127  1  0.68000000  0.17030000  0.82420000  1
  H  H128  1  0.46900000  0.53660000  0.80520000  1
  H  H129  1  0.96900000  0.26860000  0.80520000  1
  H  H130  1  0.45890000  0.79640000  0.76540000  1
  H  H131  1  0.95890000  0.96900000  0.76540000  1
  H  H132  1  0.65150000  0.82300000  0.74000000  1
  H  H133  1  0.15150000  0.91700000  0.74000000  1
  H  H134  1  0.19340000  0.62580000  0.71720000  1
  H  H135  1  0.69340000  0.09140000  0.71720000  1
  H  H136  1  0.28950000  0.65290000  0.64840000  1
  H  H137  1  0.78950000  0.99550000  0.64840000  1
  H  H138  1  0.58850000  0.77750000  0.62700000  1
  H  H139  1  0.08850000  0.84950000  0.62700000  1
  H  H140  1  0.79950000  0.31030000  0.52480000  1
  H  H141  1  0.29950000  0.21450000  0.52480000  1
  H  H142  1  0.20050000  0.68970000  0.47520000  1
  H  H143  1  0.70050000  0.78550000  0.47520000  1
  H  H144  1  0.41150000  0.22250000  0.37300000  1
  H  H145  1  0.91150000  0.15050000  0.37300000  1
  H  H146  1  0.71050000  0.34710000  0.35160000  1
  H  H147  1  0.21050000  0.00450000  0.35160000  1
  H  H148  1  0.80660000  0.37420000  0.28280000  1
  H  H149  1  0.30660000  0.90860000  0.28280000  1
  H  H150  1  0.34850000  0.17700000  0.26000000  1
  H  H151  1  0.84850000  0.08300000  0.26000000  1
  H  H152  1  0.54110000  0.20360000  0.23460000  1
  H  H153  1  0.04110000  0.03100000  0.23460000  1
  H  H154  1  0.53100000  0.46340000  0.19480000  1
  H  H155  1  0.03100000  0.73140000  0.19480000  1
  H  H156  1  0.82000000  0.34610000  0.17580000  1
  H  H157  1  0.32000000  0.82970000  0.17580000  1
  H  H158  1  0.37460000  0.10280000  0.15660000  1
  H  H159  1  0.87460000  0.05380000  0.15660000  1
  H  H160  1  0.58000000  0.12260000  0.13460000  1
  H  H161  1  0.08000000  0.01200000  0.13460000  1
  H  H162  1  0.56990000  0.38250000  0.09500000  1
  H  H163  1  0.06990000  0.71250000  0.09500000  1
  H  H164  1  0.84860000  0.32460000  0.08760000  1
  H  H165  1  0.34860000  0.76300000  0.08760000  1
  H  H166  1  0.88770000  0.03280000  0.06380000  1
  H  H167  1  0.38770000  0.03100000  0.06380000  1
  H  H168  1  0.58050000  0.04890000  0.03820000  1
  H  H169  1  0.08050000  0.98930000  0.03820000  1
  H  H170  1  0.61960000  0.31700000  0.01460000  1
  H  H171  1  0.11960000  0.69760000  0.01460000  1
  O  O172  1  0.49420000  0.51400000  0.69280000  1
  O  O173  1  0.99420000  0.17880000  0.69280000  1
  O  O174  1  0.52530000  0.65650000  0.68100000  1
  O  O175  1  0.02530000  0.02450000  0.68100000  1
  O  O176  1  0.38100000  0.54400000  0.56780000  1
  O  O177  1  0.88100000  0.02380000  0.56780000  1
  O  O178  1  0.44920000  0.34455000  0.55450000  1
  O  O179  1  0.94920000  0.20995000  0.55450000  1
  O  O180  1  0.54860000  0.61049000  0.52898000  1
  O  O181  1  0.04860000  0.91849000  0.52898000  1
  O  O182  1  0.65990000  0.42454000  0.52428000  1
  O  O183  1  0.15990000  0.09974000  0.52428000  1
  O  O184  1  0.34010000  0.57546000  0.47572000  1
  O  O185  1  0.84010000  0.90026000  0.47572000  1
  O  O186  1  0.45140000  0.38951000  0.47102000  1
  O  O187  1  0.95140000  0.08151000  0.47102000  1
  O  O188  1  0.55080000  0.65545000  0.44550000  1
  O  O189  1  0.05080000  0.79005000  0.44550000  1
  O  O190  1  0.61900000  0.45600000  0.43220000  1
  O  O191  1  0.11900000  0.97620000  0.43220000  1
  O  O192  1  0.47470000  0.34350000  0.31900000  1
  O  O193  1  0.97470000  0.97550000  0.31900000  1
  O  O194  1  0.50580000  0.48600000  0.30720000  1
  O  O195  1  0.00580000  0.82120000  0.30720000  1
