# generated using pymatgen
data_YP3C12(NO3)3
_symmetry_space_group_name_H-M   'P 1'
_cell_length_a   10.00360000
_cell_length_b   16.18950000
_cell_length_c   16.18950000
_cell_angle_alpha   120.00000000
_cell_angle_beta   90.00000000
_cell_angle_gamma   90.00000000
_symmetry_Int_Tables_number   1
_chemical_formula_structural   YP3C12(NO3)3
_chemical_formula_sum   'Y4 P12 C48 N12 O36'
_cell_volume   2270.66895271
_cell_formula_units_Z   4
loop_
 _symmetry_equiv_pos_site_id
 _symmetry_equiv_pos_as_xyz
  1  'x, y, z'
loop_
 _atom_site_type_symbol
 _atom_site_label
 _atom_site_symmetry_multiplicity
 _atom_site_fract_x
 _atom_site_fract_y
 _atom_site_fract_z
 _atom_site_occupancy
  Y  Y0  1  0.79470000  0.66666667  0.33333333  1
  Y  Y1  1  0.30810000  0.66666667  0.33333333  1
  Y  Y2  1  0.69190000  0.33333333  0.66666667  1
  Y  Y3  1  0.20530000  0.33333333  0.66666667  1
  P  P4  1  0.06320000  0.84690000  0.45110000  1
  P  P5  1  0.54950000  0.79640000  0.26790000  1
  P  P6  1  0.54950000  0.73210000  0.52850000  1
  P  P7  1  0.06320000  0.60420000  0.15310000  1
  P  P8  1  0.06320000  0.54890000  0.39580000  1
  P  P9  1  0.45050000  0.52850000  0.79640000  1
  P  P10  1  0.54950000  0.47150000  0.20360000  1
  P  P11  1  0.93680000  0.45110000  0.60420000  1
  P  P12  1  0.93680000  0.39580000  0.84690000  1
  P  P13  1  0.45050000  0.26790000  0.47150000  1
  P  P14  1  0.45050000  0.20360000  0.73210000  1
  P  P15  1  0.93680000  0.15310000  0.54890000  1
  C  C16  1  0.27870000  0.98630000  0.45530000  1
  C  C17  1  0.22580000  0.96400000  0.29460000  1
  C  C18  1  0.10360000  0.96280000  0.24090000  1
  C  C19  1  0.63350000  0.95900000  0.76990000  1
  C  C20  1  0.69260000  0.95240000  0.68310000  1
  C  C21  1  0.62040000  0.94370000  0.53190000  1
  C  C22  1  0.08900000  0.88500000  0.36000000  1
  C  C23  1  0.48990000  0.85940000  0.60010000  1
  C  C24  1  0.63350000  0.81090000  0.04100000  1
  C  C25  1  0.36650000  0.76990000  0.81090000  1
  C  C26  1  0.10360000  0.75910000  0.72190000  1
  C  C27  1  0.48990000  0.74070000  0.14060000  1
  C  C28  1  0.69260000  0.73070000  0.04760000  1
  C  C29  1  0.89640000  0.72190000  0.96280000  1
  C  C30  1  0.22580000  0.70540000  0.66940000  1
  C  C31  1  0.30740000  0.68310000  0.73070000  1
  C  C32  1  0.77420000  0.66940000  0.96400000  1
  C  C33  1  0.08900000  0.64000000  0.52500000  1
  C  C34  1  0.51010000  0.60010000  0.74070000  1
  C  C35  1  0.62040000  0.58820000  0.05630000  1
  C  C36  1  0.27870000  0.54470000  0.53100000  1
  C  C37  1  0.37960000  0.53190000  0.58820000  1
  C  C38  1  0.72130000  0.53100000  0.98630000  1
  C  C39  1  0.91100000  0.52500000  0.88500000  1
  C  C40  1  0.08900000  0.47500000  0.11500000  1
  C  C41  1  0.27870000  0.46900000  0.01370000  1
  C  C42  1  0.62040000  0.46810000  0.41180000  1
  C  C43  1  0.72130000  0.45530000  0.46900000  1
  C  C44  1  0.37960000  0.41180000  0.94370000  1
  C  C45  1  0.48990000  0.39990000  0.25930000  1
  C  C46  1  0.91100000  0.36000000  0.47500000  1
  C  C47  1  0.22580000  0.33060000  0.03600000  1
  C  C48  1  0.69260000  0.31690000  0.26930000  1
  C  C49  1  0.77420000  0.29460000  0.33060000  1
  C  C50  1  0.10360000  0.27810000  0.03720000  1
  C  C51  1  0.30740000  0.26930000  0.95240000  1
  C  C52  1  0.51010000  0.25930000  0.85940000  1
  C  C53  1  0.89640000  0.24090000  0.27810000  1
  C  C54  1  0.63350000  0.23010000  0.18910000  1
  C  C55  1  0.36650000  0.18910000  0.95900000  1
  C  C56  1  0.51010000  0.14060000  0.39990000  1
  C  C57  1  0.91100000  0.11500000  0.64000000  1
  C  C58  1  0.37960000  0.05630000  0.46810000  1
  C  C59  1  0.30740000  0.04760000  0.31690000  1
  C  C60  1  0.36650000  0.04100000  0.23010000  1
  C  C61  1  0.89640000  0.03720000  0.75910000  1
  C  C62  1  0.77420000  0.03600000  0.70540000  1
  C  C63  1  0.72130000  0.01370000  0.54470000  1
  N  N64  1  0.17710000  0.96800000  0.38390000  1
  N  N65  1  0.58260000  0.93860000  0.61650000  1
  N  N66  1  0.58260000  0.67790000  0.06140000  1
  N  N67  1  0.41740000  0.61650000  0.67790000  1
  N  N68  1  0.17710000  0.61610000  0.58410000  1
  N  N69  1  0.82290000  0.58410000  0.96800000  1
  N  N70  1  0.17710000  0.41590000  0.03200000  1
  N  N71  1  0.82290000  0.38390000  0.41590000  1
  N  N72  1  0.58260000  0.38350000  0.32210000  1
  N  N73  1  0.41740000  0.32210000  0.93860000  1
  N  N74  1  0.41740000  0.06140000  0.38350000  1
  N  N75  1  0.82290000  0.03200000  0.61610000  1
  O  O76  1  0.05910000  0.92990000  0.55180000  1
  O  O77  1  0.57220000  0.89870000  0.30050000  1
  O  O78  1  0.93730000  0.79150000  0.42740000  1
  O  O79  1  0.44000000  0.78420000  0.32470000  1
  O  O80  1  0.17400000  0.78300000  0.44140000  1
  O  O81  1  0.67100000  0.74930000  0.27380000  1
  O  O82  1  0.67100000  0.72620000  0.47550000  1
  O  O83  1  0.57220000  0.69950000  0.59820000  1
  O  O84  1  0.44000000  0.67530000  0.45950000  1
  O  O85  1  0.17400000  0.65840000  0.21700000  1
  O  O86  1  0.93730000  0.63590000  0.20850000  1
  O  O87  1  0.05910000  0.62190000  0.07010000  1
  O  O88  1  0.42780000  0.59820000  0.89870000  1
  O  O89  1  0.93730000  0.57260000  0.36410000  1
  O  O90  1  0.17400000  0.55860000  0.34160000  1
  O  O91  1  0.94090000  0.55180000  0.62190000  1
  O  O92  1  0.44000000  0.54050000  0.21580000  1
  O  O93  1  0.67100000  0.52450000  0.25070000  1
  O  O94  1  0.32900000  0.47550000  0.74930000  1
  O  O95  1  0.56000000  0.45950000  0.78420000  1
  O  O96  1  0.05910000  0.44820000  0.37810000  1
  O  O97  1  0.82600000  0.44140000  0.65840000  1
  O  O98  1  0.06270000  0.42740000  0.63590000  1
  O  O99  1  0.57220000  0.40180000  0.10130000  1
  O  O100  1  0.94090000  0.37810000  0.92990000  1
  O  O101  1  0.06270000  0.36410000  0.79150000  1
  O  O102  1  0.82600000  0.34160000  0.78300000  1
  O  O103  1  0.56000000  0.32470000  0.54050000  1
  O  O104  1  0.42780000  0.30050000  0.40180000  1
  O  O105  1  0.32900000  0.27380000  0.52450000  1
  O  O106  1  0.32900000  0.25070000  0.72620000  1
  O  O107  1  0.82600000  0.21700000  0.55860000  1
  O  O108  1  0.56000000  0.21580000  0.67530000  1
  O  O109  1  0.06270000  0.20850000  0.57260000  1
  O  O110  1  0.42780000  0.10130000  0.69950000  1
  O  O111  1  0.94090000  0.07010000  0.44820000  1
