# generated using pymatgen
data_CdH11C18(NO2)2
_symmetry_space_group_name_H-M   'P 1'
_cell_length_a   9.81550000
_cell_length_b   10.18840000
_cell_length_c   12.87100000
_cell_angle_alpha   69.00200000
_cell_angle_beta   69.67600000
_cell_angle_gamma   63.28100000
_symmetry_Int_Tables_number   1
_chemical_formula_structural   CdH11C18(NO2)2
_chemical_formula_sum   'Cd2 H22 C36 N4 O8'
_cell_volume   1046.26202181
_cell_formula_units_Z   2
loop_
 _symmetry_equiv_pos_site_id
 _symmetry_equiv_pos_as_xyz
  1  'x, y, z'
loop_
 _atom_site_type_symbol
 _atom_site_label
 _atom_site_symmetry_multiplicity
 _atom_site_fract_x
 _atom_site_fract_y
 _atom_site_fract_z
 _atom_site_occupancy
  Cd  Cd0  1  0.16071000  0.87344000  0.58260000  1
  Cd  Cd1  1  0.83929000  0.12656000  0.41740000  1
  H  H2  1  0.02310000  0.58780000  0.63090000  1
  H  H3  1  0.08400000  0.24210000  0.02140000  1
  H  H4  1  0.08780000  0.33210000  0.66040000  1
  H  H5  1  0.11780000  0.84260000  0.02120000  1
  H  H6  1  0.15420000  0.39390000  0.84700000  1
  H  H7  1  0.18080000  0.96310000  0.83140000  1
  H  H8  1  0.24120000  0.82720000  0.14950000  1
  H  H9  1  0.25210000  0.02410000  0.30210000  1
  H  H10  1  0.36050000  0.06930000  0.76900000  1
  H  H11  1  0.42830000  0.60080000  0.44900000  1
  H  H12  1  0.44280000  0.37500000  0.75040000  1
  H  H13  1  0.55720000  0.62500000  0.24960000  1
  H  H14  1  0.57170000  0.39920000  0.55100000  1
  H  H15  1  0.63950000  0.93070000  0.23100000  1
  H  H16  1  0.74790000  0.97590000  0.69790000  1
  H  H17  1  0.75880000  0.17280000  0.85050000  1
  H  H18  1  0.81920000  0.03690000  0.16860000  1
  H  H19  1  0.84580000  0.60610000  0.15300000  1
  H  H20  1  0.88220000  0.15740000  0.97880000  1
  H  H21  1  0.91220000  0.66790000  0.33960000  1
  H  H22  1  0.91600000  0.75790000  0.97860000  1
  H  H23  1  0.97690000  0.41220000  0.36910000  1
  C  C24  1  0.01440000  0.55250000  0.57700000  1
  C  C25  1  0.03450000  0.34690000  0.51820000  1
  C  C26  1  0.04190000  0.59360000  0.89290000  1
  C  C27  1  0.05000000  0.34570000  0.01350000  1
  C  C28  1  0.05160000  0.39930000  0.59580000  1
  C  C29  1  0.07450000  0.18080000  0.53680000  1
  C  C30  1  0.08730000  0.68860000  0.78200000  1
  C  C31  1  0.09180000  0.43730000  0.90840000  1
  C  C32  1  0.19340000  0.88490000  0.99690000  1
  C  C33  1  0.23160000  0.95760000  0.88280000  1
  C  C34  1  0.26740000  0.87570000  0.07320000  1
  C  C35  1  0.31390000  0.92140000  0.31440000  1
  C  C36  1  0.33920000  0.01940000  0.84550000  1
  C  C37  1  0.38250000  0.93830000  0.03840000  1
  C  C38  1  0.40940000  0.69130000  0.39320000  1
  C  C39  1  0.42230000  0.01060000  0.92050000  1
  C  C40  1  0.46410000  0.92870000  0.11330000  1
  C  C41  1  0.48200000  0.70270000  0.28390000  1
  C  C42  1  0.51800000  0.29730000  0.71610000  1
  C  C43  1  0.53590000  0.07130000  0.88670000  1
  C  C44  1  0.57770000  0.98940000  0.07950000  1
  C  C45  1  0.59060000  0.30870000  0.60680000  1
  C  C46  1  0.61750000  0.06170000  0.96160000  1
  C  C47  1  0.66080000  0.98060000  0.15450000  1
  C  C48  1  0.68610000  0.07860000  0.68560000  1
  C  C49  1  0.73260000  0.12430000  0.92680000  1
  C  C50  1  0.76840000  0.04240000  0.11720000  1
  C  C51  1  0.80660000  0.11510000  0.00310000  1
  C  C52  1  0.90820000  0.56270000  0.09160000  1
  C  C53  1  0.91270000  0.31140000  0.21800000  1
  C  C54  1  0.92550000  0.81920000  0.46320000  1
  C  C55  1  0.94840000  0.60070000  0.40420000  1
  C  C56  1  0.95000000  0.65430000  0.98650000  1
  C  C57  1  0.95810000  0.40640000  0.10710000  1
  C  C58  1  0.96550000  0.65310000  0.48180000  1
  C  C59  1  0.98560000  0.44750000  0.42300000  1
  N  N60  1  0.30530000  0.82590000  0.41350000  1
  N  N61  1  0.42180000  0.85520000  0.23220000  1
  N  N62  1  0.57820000  0.14480000  0.76780000  1
  N  N63  1  0.69470000  0.17410000  0.58650000  1
  O  O64  1  0.01660000  0.82960000  0.76610000  1
  O  O65  1  0.04910000  0.13360000  0.47090000  1
  O  O66  1  0.14510000  0.09090000  0.61190000  1
  O  O67  1  0.19820000  0.62930000  0.70620000  1
  O  O68  1  0.80180000  0.37070000  0.29380000  1
  O  O69  1  0.85490000  0.90910000  0.38810000  1
  O  O70  1  0.95090000  0.86640000  0.52910000  1
  O  O71  1  0.98340000  0.17040000  0.23390000  1
