# generated using pymatgen
data_SrH2C6SO4
_symmetry_space_group_name_H-M   'P 1'
_cell_length_a   6.00780000
_cell_length_b   11.67725535
_cell_length_c   16.94010000
_cell_angle_alpha   90.00000000
_cell_angle_beta   90.00000000
_cell_angle_gamma   91.34496105
_symmetry_Int_Tables_number   1
_chemical_formula_structural   SrH2C6SO4
_chemical_formula_sum   'Sr4 H8 C24 S4 O16'
_cell_volume   1188.09877521
_cell_formula_units_Z   4
loop_
 _symmetry_equiv_pos_site_id
 _symmetry_equiv_pos_as_xyz
  1  'x, y, z'
loop_
 _atom_site_type_symbol
 _atom_site_label
 _atom_site_symmetry_multiplicity
 _atom_site_fract_x
 _atom_site_fract_y
 _atom_site_fract_z
 _atom_site_occupancy
  Sr  Sr0  1  0.77644000  0.59430000  0.50053000  1
  Sr  Sr1  1  0.27644000  0.09430000  0.99947000  1
  Sr  Sr2  1  0.72356000  0.90570000  0.00053000  1
  Sr  Sr3  1  0.22356000  0.40570000  0.49947000  1
  H  H4  1  0.35140000  0.28070000  0.69080000  1
  H  H5  1  0.85140000  0.78070000  0.80920000  1
  H  H6  1  0.89050000  0.67520000  0.68600000  1
  H  H7  1  0.39050000  0.17520000  0.81400000  1
  H  H8  1  0.60950000  0.82480000  0.18600000  1
  H  H9  1  0.10950000  0.32480000  0.31400000  1
  H  H10  1  0.14860000  0.21930000  0.19080000  1
  H  H11  1  0.64860000  0.71930000  0.30920000  1
  C  C12  1  0.48490000  0.27580000  0.71831000  1
  C  C13  1  0.98490000  0.77580000  0.78169000  1
  C  C14  1  0.00740000  0.71490000  0.71037000  1
  C  C15  1  0.50740000  0.21490000  0.78963000  1
  C  C16  1  0.71720000  0.39900000  0.62306000  1
  C  C17  1  0.21720000  0.89900000  0.87694000  1
  C  C18  1  0.67970000  0.32670000  0.69389000  1
  C  C19  1  0.17970000  0.82670000  0.80611000  1
  C  C20  1  0.19300000  0.82850000  0.10591000  1
  C  C21  1  0.69300000  0.32850000  0.39409000  1
  C  C22  1  0.21880000  0.72040000  0.68086000  1
  C  C23  1  0.71880000  0.22040000  0.81914000  1
  C  C24  1  0.28120000  0.77960000  0.18086000  1
  C  C25  1  0.78120000  0.27960000  0.31914000  1
  C  C26  1  0.30700000  0.67150000  0.60591000  1
  C  C27  1  0.80700000  0.17150000  0.89409000  1
  C  C28  1  0.82030000  0.17330000  0.19389000  1
  C  C29  1  0.32030000  0.67330000  0.30611000  1
  C  C30  1  0.78280000  0.10100000  0.12306000  1
  C  C31  1  0.28280000  0.60100000  0.37694000  1
  C  C32  1  0.49260000  0.78510000  0.21037000  1
  C  C33  1  0.99260000  0.28510000  0.28963000  1
  C  C34  1  0.01510000  0.22420000  0.21831000  1
  C  C35  1  0.51510000  0.72420000  0.28169000  1
  S  S36  1  0.10747000  0.70047000  0.24147000  1
  S  S37  1  0.60747000  0.20047000  0.25853000  1
  S  S38  1  0.39253000  0.79953000  0.74147000  1
  S  S39  1  0.89253000  0.29953000  0.75853000  1
  O  O40  1  0.54923000  0.43023000  0.58548000  1
  O  O41  1  0.04923000  0.93023000  0.91452000  1
  O  O42  1  0.99015000  0.81155000  0.09262000  1
  O  O43  1  0.49015000  0.31155000  0.40738000  1
  O  O44  1  0.32924000  0.88114000  0.06210000  1
  O  O45  1  0.82924000  0.38114000  0.43790000  1
  O  O46  1  0.91317000  0.42877000  0.60568000  1
  O  O47  1  0.41317000  0.92877000  0.89432000  1
  O  O48  1  0.58683000  0.07123000  0.10568000  1
  O  O49  1  0.08683000  0.57123000  0.39432000  1
  O  O50  1  0.17076000  0.61886000  0.56210000  1
  O  O51  1  0.67076000  0.11886000  0.93790000  1
  O  O52  1  0.50985000  0.68845000  0.59262000  1
  O  O53  1  0.00985000  0.18845000  0.90738000  1
  O  O54  1  0.95077000  0.06977000  0.08548000  1
  O  O55  1  0.45077000  0.56977000  0.41452000  1
