# generated using pymatgen
data_CoH17C30(NO2)3
_symmetry_space_group_name_H-M   'P 1'
_cell_length_a   9.85800000
_cell_length_b   12.56500000
_cell_length_c   29.61800000
_cell_angle_alpha   90.00000000
_cell_angle_beta   90.00000000
_cell_angle_gamma   105.69500000
_symmetry_Int_Tables_number   1
_chemical_formula_structural   CoH17C30(NO2)3
_chemical_formula_sum   'Co4 H68 C120 N12 O24'
_cell_volume   3531.87183298
_cell_formula_units_Z   4
loop_
 _symmetry_equiv_pos_site_id
 _symmetry_equiv_pos_as_xyz
  1  'x, y, z'
loop_
 _atom_site_type_symbol
 _atom_site_label
 _atom_site_symmetry_multiplicity
 _atom_site_fract_x
 _atom_site_fract_y
 _atom_site_fract_z
 _atom_site_occupancy
  Co  Co0  1  0.03802000  0.35709000  0.05754000  1
  Co  Co1  1  0.46198000  0.64291000  0.55754000  1
  Co  Co2  1  0.53802000  0.35709000  0.44246000  1
  Co  Co3  1  0.96198000  0.64291000  0.94246000  1
  H  H4  1  0.03580000  0.38020000  0.43930000  1
  H  H5  1  0.03690000  0.68930000  0.23630000  1
  H  H6  1  0.05490000  0.43570000  0.95090000  1
  H  H7  1  0.06750000  0.28570000  0.90750000  1
  H  H8  1  0.09720000  0.12710000  0.30010000  1
  H  H9  1  0.14580000  0.11480000  0.68160000  1
  H  H10  1  0.15610000  0.16610000  0.60590000  1
  H  H11  1  0.16210000  0.61220000  0.18770000  1
  H  H12  1  0.17120000  0.85710000  0.91750000  1
  H  H13  1  0.17440000  0.70680000  0.37580000  1
  H  H14  1  0.17610000  0.47130000  0.13980000  1
  H  H15  1  0.18150000  0.13930000  0.18330000  1
  H  H16  1  0.18460000  0.75890000  0.30000000  1
  H  H17  1  0.18960000  0.01510000  0.87480000  1
  H  H18  1  0.18960000  0.70070000  0.44560000  1
  H  H19  1  0.19940000  0.28700000  0.13530000  1
  H  H20  1  0.21190000  0.28130000  0.54910000  1
  H  H21  1  0.28810000  0.71870000  0.04910000  1
  H  H22  1  0.30060000  0.71300000  0.63530000  1
  H  H23  1  0.31040000  0.29930000  0.94560000  1
  H  H24  1  0.31040000  0.98490000  0.37480000  1
  H  H25  1  0.31540000  0.24110000  0.80000000  1
  H  H26  1  0.31850000  0.86070000  0.68330000  1
  H  H27  1  0.32390000  0.52870000  0.63980000  1
  H  H28  1  0.32560000  0.29320000  0.87580000  1
  H  H29  1  0.32880000  0.14290000  0.41750000  1
  H  H30  1  0.33790000  0.38780000  0.68770000  1
  H  H31  1  0.34390000  0.83390000  0.10590000  1
  H  H32  1  0.35420000  0.88520000  0.18160000  1
  H  H33  1  0.40280000  0.87290000  0.80010000  1
  H  H34  1  0.43250000  0.71430000  0.40750000  1
  H  H35  1  0.44510000  0.56430000  0.45090000  1
  H  H36  1  0.46310000  0.31070000  0.73630000  1
  H  H37  1  0.46420000  0.61980000  0.93930000  1
  H  H38  1  0.53580000  0.38020000  0.06070000  1
  H  H39  1  0.53690000  0.68930000  0.26370000  1
  H  H40  1  0.55490000  0.43570000  0.54910000  1
  H  H41  1  0.56750000  0.28570000  0.59250000  1
  H  H42  1  0.59720000  0.12710000  0.19990000  1
  H  H43  1  0.64580000  0.11480000  0.81840000  1
  H  H44  1  0.65610000  0.16610000  0.89410000  1
  H  H45  1  0.66210000  0.61220000  0.31230000  1
  H  H46  1  0.67120000  0.85710000  0.58250000  1
  H  H47  1  0.67440000  0.70680000  0.12420000  1
  H  H48  1  0.67610000  0.47130000  0.36020000  1
  H  H49  1  0.68150000  0.13930000  0.31670000  1
  H  H50  1  0.68460000  0.75890000  0.20000000  1
  H  H51  1  0.68960000  0.01510000  0.62520000  1
  H  H52  1  0.68960000  0.70070000  0.05440000  1
  H  H53  1  0.69940000  0.28700000  0.36470000  1
  H  H54  1  0.71190000  0.28130000  0.95090000  1
  H  H55  1  0.78810000  0.71870000  0.45090000  1
  H  H56  1  0.80060000  0.71300000  0.86470000  1
  H  H57  1  0.81040000  0.29930000  0.55440000  1
  H  H58  1  0.81040000  0.98490000  0.12520000  1
  H  H59  1  0.81540000  0.24110000  0.70000000  1
  H  H60  1  0.81850000  0.86070000  0.81670000  1
  H  H61  1  0.82390000  0.52870000  0.86020000  1
  H  H62  1  0.82560000  0.29320000  0.62420000  1
  H  H63  1  0.82880000  0.14290000  0.08250000  1
  H  H64  1  0.83790000  0.38780000  0.81230000  1
  H  H65  1  0.84390000  0.83390000  0.39410000  1
  H  H66  1  0.85420000  0.88520000  0.31840000  1
  H  H67  1  0.90280000  0.87290000  0.69990000  1
  H  H68  1  0.93250000  0.71430000  0.09250000  1
  H  H69  1  0.94510000  0.56430000  0.04910000  1
  H  H70  1  0.96310000  0.31070000  0.76370000  1
  H  H71  1  0.96420000  0.61980000  0.56070000  1
  C  C72  1  0.00000000  0.04370000  0.15830000  1
  C  C73  1  0.00000000  0.95630000  0.84170000  1
  C  C74  1  0.00100000  0.05750000  0.81680000  1
  C  C75  1  0.00310000  0.93840000  0.23040000  1
  C  C76  1  0.00370000  0.76020000  0.39290000  1
  C  C77  1  0.00580000  0.96320000  0.74190000  1
  C  C78  1  0.00930000  0.28130000  0.55980000  1
  C  C79  1  0.01240000  0.42670000  0.92190000  1
  C  C80  1  0.01560000  0.84200000  0.25120000  1
  C  C81  1  0.01680000  0.82340000  0.30080000  1
  C  C82  1  0.02140000  0.76640000  0.17720000  1
  C  C83  1  0.02180000  0.33750000  0.89590000  1
  C  C84  1  0.02620000  0.75580000  0.22340000  1
  C  C85  1  0.02930000  0.35610000  0.46980000  1
  C  C86  1  0.03510000  0.67590000  0.14650000  1
  C  C87  1  0.08160000  0.15280000  0.67030000  1
  C  C88  1  0.08780000  0.18370000  0.62500000  1
  C  C89  1  0.09370000  0.65430000  0.50590000  1
  C  C90  1  0.09590000  0.85920000  0.89780000  1
  C  C91  1  0.10390000  0.69240000  0.46160000  1
  C  C92  1  0.10710000  0.74140000  0.36430000  1
  C  C93  1  0.10900000  0.95370000  0.87210000  1
  C  C94  1  0.10990000  0.13620000  0.16150000  1
  C  C95  1  0.11320000  0.77270000  0.31880000  1
  C  C96  1  0.11400000  0.60300000  0.15950000  1
  C  C97  1  0.11860000  0.22540000  0.13350000  1
  C  C98  1  0.12050000  0.51900000  0.13110000  1
  C  C99  1  0.13180000  0.29570000  0.53530000  1
  C  C100  1  0.14020000  0.33150000  0.49010000  1
  C  C101  1  0.21930000  0.63460000  0.52880000  1
  C  C102  1  0.23010000  0.66430000  0.96260000  1
  C  C103  1  0.26990000  0.33570000  0.46260000  1
  C  C104  1  0.28070000  0.36540000  0.02880000  1
  C  C105  1  0.35980000  0.66850000  0.99010000  1
  C  C106  1  0.36820000  0.70430000  0.03530000  1
  C  C107  1  0.37950000  0.48100000  0.63110000  1
  C  C108  1  0.38140000  0.77460000  0.63350000  1
  C  C109  1  0.38600000  0.39700000  0.65950000  1
  C  C110  1  0.38680000  0.22730000  0.81880000  1
  C  C111  1  0.39010000  0.86380000  0.66150000  1
  C  C112  1  0.39100000  0.04630000  0.37210000  1
  C  C113  1  0.39290000  0.25860000  0.86430000  1
  C  C114  1  0.39610000  0.30760000  0.96160000  1
  C  C115  1  0.40410000  0.14080000  0.39780000  1
  C  C116  1  0.40630000  0.34570000  0.00590000  1
  C  C117  1  0.41220000  0.81630000  0.12500000  1
  C  C118  1  0.41840000  0.84720000  0.17030000  1
  C  C119  1  0.46490000  0.32410000  0.64650000  1
  C  C120  1  0.47070000  0.64390000  0.96980000  1
  C  C121  1  0.47380000  0.24420000  0.72340000  1
  C  C122  1  0.47820000  0.66250000  0.39590000  1
  C  C123  1  0.47860000  0.23360000  0.67720000  1
  C  C124  1  0.48320000  0.17660000  0.80080000  1
  C  C125  1  0.48440000  0.15800000  0.75120000  1
  C  C126  1  0.48760000  0.57330000  0.42190000  1
  C  C127  1  0.49070000  0.71870000  0.05980000  1
  C  C128  1  0.49420000  0.03680000  0.24190000  1
  C  C129  1  0.49630000  0.23980000  0.89290000  1
  C  C130  1  0.49690000  0.06160000  0.73040000  1
  C  C131  1  0.49900000  0.94250000  0.31680000  1
  C  C132  1  0.50000000  0.04370000  0.34170000  1
  C  C133  1  0.50000000  0.95630000  0.65830000  1
  C  C134  1  0.50100000  0.05750000  0.68320000  1
  C  C135  1  0.50310000  0.93840000  0.26960000  1
  C  C136  1  0.50370000  0.76020000  0.10710000  1
  C  C137  1  0.50580000  0.96320000  0.75810000  1
  C  C138  1  0.50930000  0.28130000  0.94020000  1
  C  C139  1  0.51240000  0.42670000  0.57810000  1
  C  C140  1  0.51560000  0.84200000  0.24880000  1
  C  C141  1  0.51680000  0.82340000  0.19920000  1
  C  C142  1  0.52140000  0.76640000  0.32280000  1
  C  C143  1  0.52180000  0.33750000  0.60410000  1
  C  C144  1  0.52620000  0.75580000  0.27660000  1
  C  C145  1  0.52930000  0.35610000  0.03020000  1
  C  C146  1  0.53510000  0.67590000  0.35350000  1
  C  C147  1  0.58160000  0.15280000  0.82970000  1
  C  C148  1  0.58780000  0.18370000  0.87500000  1
  C  C149  1  0.59370000  0.65430000  0.99410000  1
  C  C150  1  0.59590000  0.85920000  0.60220000  1
  C  C151  1  0.60390000  0.69240000  0.03840000  1
  C  C152  1  0.60710000  0.74140000  0.13570000  1
  C  C153  1  0.60900000  0.95370000  0.62790000  1
  C  C154  1  0.60990000  0.13620000  0.33850000  1
  C  C155  1  0.61320000  0.77270000  0.18120000  1
  C  C156  1  0.61400000  0.60300000  0.34050000  1
  C  C157  1  0.61860000  0.22540000  0.36650000  1
  C  C158  1  0.62050000  0.51900000  0.36890000  1
  C  C159  1  0.63180000  0.29570000  0.96470000  1
  C  C160  1  0.64020000  0.33150000  0.00990000  1
  C  C161  1  0.71930000  0.63460000  0.97120000  1
  C  C162  1  0.73010000  0.66430000  0.53740000  1
  C  C163  1  0.76990000  0.33570000  0.03740000  1
  C  C164  1  0.78070000  0.36540000  0.47120000  1
  C  C165  1  0.85980000  0.66850000  0.50990000  1
  C  C166  1  0.86820000  0.70430000  0.46470000  1
  C  C167  1  0.87950000  0.48100000  0.86890000  1
  C  C168  1  0.88140000  0.77460000  0.86650000  1
  C  C169  1  0.88600000  0.39700000  0.84050000  1
  C  C170  1  0.88680000  0.22730000  0.68120000  1
  C  C171  1  0.89010000  0.86380000  0.83850000  1
  C  C172  1  0.89100000  0.04630000  0.12790000  1
  C  C173  1  0.89290000  0.25860000  0.63570000  1
  C  C174  1  0.89610000  0.30760000  0.53840000  1
  C  C175  1  0.90410000  0.14080000  0.10220000  1
  C  C176  1  0.90630000  0.34570000  0.49410000  1
  C  C177  1  0.91220000  0.81630000  0.37500000  1
  C  C178  1  0.91840000  0.84720000  0.32970000  1
  C  C179  1  0.96490000  0.32410000  0.85350000  1
  C  C180  1  0.97070000  0.64390000  0.53020000  1
  C  C181  1  0.97380000  0.24420000  0.77660000  1
  C  C182  1  0.97820000  0.66250000  0.10410000  1
  C  C183  1  0.97860000  0.23360000  0.82280000  1
  C  C184  1  0.98320000  0.17660000  0.69920000  1
  C  C185  1  0.98440000  0.15800000  0.74880000  1
  C  C186  1  0.98760000  0.57330000  0.07810000  1
  C  C187  1  0.99070000  0.71870000  0.44020000  1
  C  C188  1  0.99420000  0.03680000  0.25810000  1
  C  C189  1  0.99630000  0.23980000  0.60710000  1
  C  C190  1  0.99690000  0.06160000  0.76960000  1
  C  C191  1  0.99900000  0.94250000  0.18320000  1
  N  N192  1  0.00530000  0.85770000  0.15709000  1
  N  N193  1  0.01540000  0.22850000  0.10325000  1
  N  N194  1  0.05270000  0.50050000  0.09171000  1
  N  N195  1  0.44730000  0.49950000  0.59171000  1
  N  N196  1  0.48460000  0.77150000  0.60325000  1
  N  N197  1  0.49470000  0.14230000  0.65709000  1
  N  N198  1  0.50530000  0.85770000  0.34291000  1
  N  N199  1  0.51540000  0.22850000  0.39675000  1
  N  N200  1  0.55270000  0.50050000  0.40829000  1
  N  N201  1  0.94730000  0.49950000  0.90829000  1
  N  N202  1  0.98460000  0.77150000  0.89675000  1
  N  N203  1  0.99470000  0.14230000  0.84291000  1
  O  O204  1  0.11470000  0.08970000  0.27840000  1
  O  O205  1  0.11760000  0.93950000  0.73904000  1
  O  O206  1  0.12190000  0.66400000  0.98373000  1
  O  O207  1  0.16960000  0.34820000  0.00720000  1
  O  O208  1  0.21430000  0.60690000  0.56925000  1
  O  O209  1  0.23760000  0.65990000  0.92046000  1
  O  O210  1  0.26240000  0.34010000  0.42046000  1
  O  O211  1  0.28570000  0.39310000  0.06925000  1
  O  O212  1  0.33040000  0.65180000  0.50720000  1
  O  O213  1  0.37810000  0.33600000  0.48373000  1
  O  O214  1  0.38240000  0.06050000  0.23904000  1
  O  O215  1  0.38530000  0.91030000  0.77840000  1
  O  O216  1  0.61470000  0.08970000  0.22160000  1
  O  O217  1  0.61760000  0.93950000  0.76096000  1
  O  O218  1  0.62190000  0.66400000  0.51627000  1
  O  O219  1  0.66960000  0.34820000  0.49280000  1
  O  O220  1  0.71430000  0.60690000  0.93075000  1
  O  O221  1  0.73760000  0.65990000  0.57954000  1
  O  O222  1  0.76240000  0.34010000  0.07954000  1
  O  O223  1  0.78570000  0.39310000  0.43075000  1
  O  O224  1  0.83040000  0.65180000  0.99280000  1
  O  O225  1  0.87810000  0.33600000  0.01627000  1
  O  O226  1  0.88240000  0.06050000  0.26096000  1
  O  O227  1  0.88530000  0.91030000  0.72160000  1
