# generated using pymatgen
data_La2Cu7H28C42I6(NO2)7
_symmetry_space_group_name_H-M   'P 1'
_cell_length_a   7.06140000
_cell_length_b   18.20800000
_cell_length_c   24.72900000
_cell_angle_alpha   90.00000000
_cell_angle_beta   90.00000000
_cell_angle_gamma   100.32000000
_symmetry_Int_Tables_number   1
_chemical_formula_structural   La2Cu7H28C42I6(NO2)7
_chemical_formula_sum   'La4 Cu14 H56 C84 I12 N14 O28'
_cell_volume   3128.06948407
_cell_formula_units_Z   2
loop_
 _symmetry_equiv_pos_site_id
 _symmetry_equiv_pos_as_xyz
  1  'x, y, z'
loop_
 _atom_site_type_symbol
 _atom_site_label
 _atom_site_symmetry_multiplicity
 _atom_site_fract_x
 _atom_site_fract_y
 _atom_site_fract_z
 _atom_site_occupancy
  La  La0  1  0.22471000  0.01602000  0.10028000  1
  La  La1  1  0.22471000  0.01602000  0.39972000  1
  La  La2  1  0.77529000  0.98398000  0.60028000  1
  La  La3  1  0.77529000  0.98398000  0.89972000  1
  Cu  Cu4  1  0.17173000  0.43988000  0.58035000  1
  Cu  Cu5  1  0.17173000  0.43988000  0.91965000  1
  Cu  Cu6  1  0.22844000  0.43586000  0.75000000  1
  Cu  Cu7  1  0.25000000  0.55401000  0.68430000  1
  Cu  Cu8  1  0.25000000  0.55401000  0.81570000  1
  Cu  Cu9  1  0.37881000  0.54320000  0.00726000  1
  Cu  Cu10  1  0.37881000  0.54320000  0.49274000  1
  Cu  Cu11  1  0.62119000  0.45680000  0.50726000  1
  Cu  Cu12  1  0.62119000  0.45680000  0.99274000  1
  Cu  Cu13  1  0.75000000  0.44599000  0.18430000  1
  Cu  Cu14  1  0.75000000  0.44599000  0.31570000  1
  Cu  Cu15  1  0.77156000  0.56414000  0.25000000  1
  Cu  Cu16  1  0.82827000  0.56012000  0.08035000  1
  Cu  Cu17  1  0.82827000  0.56012000  0.41965000  1
  H  H18  1  0.09600000  0.16950000  0.62130000  1
  H  H19  1  0.09600000  0.16950000  0.87870000  1
  H  H20  1  0.10370000  0.39530000  0.15110000  1
  H  H21  1  0.10370000  0.39530000  0.34890000  1
  H  H22  1  0.10720000  0.29360000  0.63750000  1
  H  H23  1  0.10720000  0.29360000  0.86250000  1
  H  H24  1  0.11370000  0.26760000  0.75000000  1
  H  H25  1  0.19100000  0.34150000  0.01550000  1
  H  H26  1  0.19100000  0.34150000  0.48450000  1
  H  H27  1  0.19190000  0.21880000  0.03550000  1
  H  H28  1  0.19190000  0.21880000  0.46450000  1
  H  H29  1  0.22280000  0.28670000  0.13810000  1
  H  H30  1  0.22280000  0.28670000  0.36190000  1
  H  H31  1  0.23380000  0.70590000  0.25000000  1
  H  H32  1  0.25070000  0.16250000  0.75000000  1
  H  H33  1  0.29980000  0.80210000  0.52810000  1
  H  H34  1  0.29980000  0.80210000  0.97190000  1
  H  H35  1  0.30420000  0.82920000  0.66510000  1
  H  H36  1  0.30420000  0.82920000  0.83490000  1
  H  H37  1  0.32150000  0.68140000  0.54740000  1
  H  H38  1  0.32150000  0.68140000  0.95260000  1
  H  H39  1  0.38340000  0.60410000  0.25000000  1
  H  H40  1  0.39600000  0.76170000  0.12790000  1
  H  H41  1  0.39600000  0.76170000  0.37210000  1
  H  H42  1  0.40710000  0.71860000  0.68100000  1
  H  H43  1  0.40710000  0.71860000  0.81900000  1
  H  H44  1  0.42170000  0.64190000  0.10420000  1
  H  H45  1  0.42170000  0.64190000  0.39580000  1
  H  H46  1  0.57830000  0.35810000  0.60420000  1
  H  H47  1  0.57830000  0.35810000  0.89580000  1
  H  H48  1  0.59290000  0.28140000  0.18100000  1
  H  H49  1  0.59290000  0.28140000  0.31900000  1
  H  H50  1  0.60400000  0.23830000  0.62790000  1
  H  H51  1  0.60400000  0.23830000  0.87210000  1
  H  H52  1  0.61660000  0.39590000  0.75000000  1
  H  H53  1  0.67850000  0.31860000  0.04740000  1
  H  H54  1  0.67850000  0.31860000  0.45260000  1
  H  H55  1  0.69580000  0.17080000  0.16510000  1
  H  H56  1  0.69580000  0.17080000  0.33490000  1
  H  H57  1  0.70020000  0.19790000  0.02810000  1
  H  H58  1  0.70020000  0.19790000  0.47190000  1
  H  H59  1  0.74930000  0.83750000  0.25000000  1
  H  H60  1  0.76620000  0.29410000  0.75000000  1
  H  H61  1  0.77720000  0.71330000  0.63810000  1
  H  H62  1  0.77720000  0.71330000  0.86190000  1
  H  H63  1  0.80810000  0.78120000  0.53550000  1
  H  H64  1  0.80810000  0.78120000  0.96450000  1
  H  H65  1  0.80900000  0.65850000  0.51550000  1
  H  H66  1  0.80900000  0.65850000  0.98450000  1
  H  H67  1  0.88630000  0.73240000  0.25000000  1
  H  H68  1  0.89280000  0.70640000  0.13750000  1
  H  H69  1  0.89280000  0.70640000  0.36250000  1
  H  H70  1  0.89630000  0.60470000  0.65110000  1
  H  H71  1  0.89630000  0.60470000  0.84890000  1
  H  H72  1  0.90400000  0.83050000  0.12130000  1
  H  H73  1  0.90400000  0.83050000  0.37870000  1
  C  C74  1  0.02100000  0.34970000  0.15470000  1
  C  C75  1  0.02100000  0.34970000  0.34530000  1
  C  C76  1  0.02730000  0.78370000  0.65030000  1
  C  C77  1  0.02730000  0.78370000  0.84970000  1
  C  C78  1  0.05010000  0.14540000  0.14080000  1
  C  C79  1  0.05010000  0.14540000  0.35920000  1
  C  C80  1  0.09330000  0.28440000  0.14640000  1
  C  C81  1  0.09330000  0.28440000  0.35360000  1
  C  C82  1  0.11790000  0.20370000  0.59300000  1
  C  C83  1  0.11790000  0.20370000  0.90700000  1
  C  C84  1  0.12280000  0.27800000  0.60220000  1
  C  C85  1  0.12280000  0.27800000  0.89780000  1
  C  C86  1  0.14590000  0.09790000  0.52790000  1
  C  C87  1  0.14590000  0.09790000  0.97210000  1
  C  C88  1  0.14600000  0.17970000  0.54050000  1
  C  C89  1  0.14600000  0.17970000  0.95950000  1
  C  C90  1  0.17340000  0.23280000  0.00000000  1
  C  C91  1  0.17340000  0.23280000  0.50000000  1
  C  C92  1  0.17340000  0.30650000  0.51230000  1
  C  C93  1  0.17340000  0.30650000  0.98770000  1
  C  C94  1  0.21780000  0.78430000  0.66280000  1
  C  C95  1  0.21780000  0.78430000  0.83720000  1
  C  C96  1  0.24730000  0.27340000  0.75000000  1
  C  C97  1  0.27890000  0.71720000  0.67170000  1
  C  C98  1  0.27890000  0.71720000  0.82830000  1
  C  C99  1  0.32440000  0.77020000  0.50060000  1
  C  C100  1  0.32440000  0.77020000  0.99940000  1
  C  C101  1  0.32880000  0.20940000  0.75000000  1
  C  C102  1  0.32890000  0.87430000  0.06780000  1
  C  C103  1  0.32890000  0.87430000  0.43220000  1
  C  C104  1  0.33830000  0.69800000  0.51190000  1
  C  C105  1  0.33830000  0.69800000  0.98810000  1
  C  C106  1  0.34730000  0.79580000  0.05250000  1
  C  C107  1  0.34730000  0.79580000  0.44750000  1
  C  C108  1  0.36750000  0.71280000  0.25000000  1
  C  C109  1  0.37360000  0.85110000  0.25000000  1
  C  C110  1  0.38220000  0.74660000  0.09200000  1
  C  C111  1  0.38220000  0.74660000  0.40800000  1
  C  C112  1  0.39640000  0.67470000  0.07740000  1
  C  C113  1  0.39640000  0.67470000  0.42260000  1
  C  C114  1  0.45850000  0.65160000  0.25000000  1
  C  C115  1  0.47420000  0.78400000  0.25000000  1
  C  C116  1  0.52580000  0.21600000  0.75000000  1
  C  C117  1  0.54150000  0.34840000  0.75000000  1
  C  C118  1  0.60360000  0.32530000  0.57740000  1
  C  C119  1  0.60360000  0.32530000  0.92260000  1
  C  C120  1  0.61780000  0.25340000  0.59200000  1
  C  C121  1  0.61780000  0.25340000  0.90800000  1
  C  C122  1  0.62640000  0.14890000  0.75000000  1
  C  C123  1  0.63250000  0.28720000  0.75000000  1
  C  C124  1  0.65270000  0.20420000  0.55250000  1
  C  C125  1  0.65270000  0.20420000  0.94750000  1
  C  C126  1  0.66170000  0.30200000  0.01190000  1
  C  C127  1  0.66170000  0.30200000  0.48810000  1
  C  C128  1  0.67110000  0.12570000  0.56780000  1
  C  C129  1  0.67110000  0.12570000  0.93220000  1
  C  C130  1  0.67120000  0.79060000  0.25000000  1
  C  C131  1  0.67560000  0.22980000  0.00060000  1
  C  C132  1  0.67560000  0.22980000  0.49940000  1
  C  C133  1  0.72110000  0.28280000  0.17170000  1
  C  C134  1  0.72110000  0.28280000  0.32830000  1
  C  C135  1  0.75270000  0.72660000  0.25000000  1
  C  C136  1  0.78220000  0.21570000  0.16280000  1
  C  C137  1  0.78220000  0.21570000  0.33720000  1
  C  C138  1  0.82660000  0.69350000  0.01230000  1
  C  C139  1  0.82660000  0.69350000  0.48770000  1
  C  C140  1  0.82660000  0.76720000  0.00000000  1
  C  C141  1  0.82660000  0.76720000  0.50000000  1
  C  C142  1  0.85400000  0.82030000  0.04050000  1
  C  C143  1  0.85400000  0.82030000  0.45950000  1
  C  C144  1  0.85410000  0.90210000  0.02790000  1
  C  C145  1  0.85410000  0.90210000  0.47210000  1
  C  C146  1  0.87720000  0.72200000  0.10220000  1
  C  C147  1  0.87720000  0.72200000  0.39780000  1
  C  C148  1  0.88210000  0.79630000  0.09300000  1
  C  C149  1  0.88210000  0.79630000  0.40700000  1
  C  C150  1  0.90670000  0.71560000  0.64640000  1
  C  C151  1  0.90670000  0.71560000  0.85360000  1
  C  C152  1  0.94990000  0.85460000  0.64080000  1
  C  C153  1  0.94990000  0.85460000  0.85920000  1
  C  C154  1  0.97270000  0.21630000  0.15030000  1
  C  C155  1  0.97270000  0.21630000  0.34970000  1
  C  C156  1  0.97900000  0.65030000  0.65470000  1
  C  C157  1  0.97900000  0.65030000  0.84530000  1
  I  I158  1  0.00000000  0.50000000  0.00000000  1
  I  I159  1  0.00000000  0.50000000  0.50000000  1
  I  I160  1  0.02295000  0.55701000  0.17011000  1
  I  I161  1  0.02295000  0.55701000  0.32989000  1
  I  I162  1  0.46956000  0.44039000  0.25000000  1
  I  I163  1  0.48946000  0.47106000  0.08995000  1
  I  I164  1  0.48946000  0.47106000  0.41005000  1
  I  I165  1  0.51054000  0.52894000  0.58995000  1
  I  I166  1  0.51054000  0.52894000  0.91005000  1
  I  I167  1  0.53044000  0.55961000  0.75000000  1
  I  I168  1  0.97705000  0.44299000  0.67011000  1
  I  I169  1  0.97705000  0.44299000  0.82989000  1
  N  N170  1  0.14900000  0.32980000  0.56281000  1
  N  N171  1  0.14900000  0.32980000  0.93719000  1
  N  N172  1  0.16440000  0.65060000  0.66787000  1
  N  N173  1  0.16440000  0.65060000  0.83213000  1
  N  N174  1  0.34800000  0.34200000  0.75000000  1
  N  N175  1  0.37510000  0.65010000  0.02620000  1
  N  N176  1  0.37510000  0.65010000  0.47380000  1
  N  N177  1  0.62490000  0.34990000  0.52620000  1
  N  N178  1  0.62490000  0.34990000  0.97380000  1
  N  N179  1  0.65200000  0.65800000  0.25000000  1
  N  N180  1  0.83560000  0.34940000  0.16787000  1
  N  N181  1  0.83560000  0.34940000  0.33213000  1
  N  N182  1  0.85100000  0.67020000  0.06281000  1
  N  N183  1  0.85100000  0.67020000  0.43719000  1
  O  O184  1  0.06390000  0.91520000  0.63424000  1
  O  O185  1  0.06390000  0.91520000  0.86576000  1
  O  O186  1  0.08360000  0.05100000  0.56362000  1
  O  O187  1  0.08360000  0.05100000  0.93638000  1
  O  O188  1  0.19340000  0.84040000  0.25000000  1
  O  O189  1  0.21300000  0.08470000  0.01724000  1
  O  O190  1  0.21300000  0.08470000  0.48276000  1
  O  O191  1  0.23090000  0.14960000  0.13933000  1
  O  O192  1  0.23090000  0.14960000  0.36067000  1
  O  O193  1  0.29710000  0.91890000  0.03077000  1
  O  O194  1  0.29710000  0.91890000  0.46923000  1
  O  O195  1  0.33860000  0.89200000  0.11617000  1
  O  O196  1  0.33860000  0.89200000  0.38383000  1
  O  O197  1  0.48060000  0.91500000  0.25000000  1
  O  O198  1  0.51940000  0.08500000  0.75000000  1
  O  O199  1  0.66140000  0.10800000  0.61617000  1
  O  O200  1  0.66140000  0.10800000  0.88383000  1
  O  O201  1  0.70290000  0.08110000  0.53077000  1
  O  O202  1  0.70290000  0.08110000  0.96923000  1
  O  O203  1  0.76910000  0.85040000  0.63933000  1
  O  O204  1  0.76910000  0.85040000  0.86067000  1
  O  O205  1  0.78700000  0.91530000  0.51724000  1
  O  O206  1  0.78700000  0.91530000  0.98276000  1
  O  O207  1  0.80660000  0.15960000  0.75000000  1
  O  O208  1  0.91640000  0.94900000  0.06362000  1
  O  O209  1  0.91640000  0.94900000  0.43638000  1
  O  O210  1  0.93610000  0.08480000  0.13424000  1
  O  O211  1  0.93610000  0.08480000  0.36576000  1
