# generated using pymatgen
data_ZnH21C32N5O8
_symmetry_space_group_name_H-M   'P 1'
_cell_length_a   16.50940000
_cell_length_b   16.50940000
_cell_length_c   25.70100000
_cell_angle_alpha   90.00000000
_cell_angle_beta   90.00000000
_cell_angle_gamma   120.00000000
_symmetry_Int_Tables_number   1
_chemical_formula_structural   ZnH21C32N5O8
_chemical_formula_sum   'Zn6 H126 C192 N30 O48'
_cell_volume   6066.57028235
_cell_formula_units_Z   6
loop_
 _symmetry_equiv_pos_site_id
 _symmetry_equiv_pos_as_xyz
  1  'x, y, z'
loop_
 _atom_site_type_symbol
 _atom_site_label
 _atom_site_symmetry_multiplicity
 _atom_site_fract_x
 _atom_site_fract_y
 _atom_site_fract_z
 _atom_site_occupancy
  Zn  Zn0  1  0.71534000  0.28466000  0.83333000  1
  Zn  Zn1  1  0.71534000  0.43068000  0.50000000  1
  Zn  Zn2  1  0.56932000  0.28466000  0.16667000  1
  Zn  Zn3  1  0.43068000  0.71534000  0.16667000  1
  Zn  Zn4  1  0.28466000  0.56932000  0.50000000  1
  Zn  Zn5  1  0.28466000  0.71534000  0.83333000  1
  H  H6  1  0.98360000  0.38790000  0.71417000  1
  H  H7  1  0.98360000  0.59570000  0.61917000  1
  H  H8  1  0.96710000  0.41370000  0.97950000  1
  H  H9  1  0.96710000  0.55340000  0.35383000  1
  H  H10  1  0.94340000  0.35630000  0.47147000  1
  H  H11  1  0.94340000  0.58710000  0.86187000  1
  H  H12  1  0.91510000  0.45300000  0.21213000  1
  H  H13  1  0.91510000  0.46210000  0.12120000  1
  H  H14  1  0.90280000  0.34750000  0.88407000  1
  H  H15  1  0.90280000  0.55530000  0.44927000  1
  H  H16  1  0.83560000  0.26820000  0.98270000  1
  H  H17  1  0.83560000  0.56740000  0.35063000  1
  H  H18  1  0.83520000  0.33730000  0.74017000  1
  H  H19  1  0.83520000  0.49790000  0.59317000  1
  H  H20  1  0.83150000  0.28080000  0.53407000  1
  H  H21  1  0.83150000  0.55070000  0.79927000  1
  H  H22  1  0.82010000  0.22850000  0.40893000  1
  H  H23  1  0.82010000  0.59160000  0.92440000  1
  H  H24  1  0.79110000  0.30820000  0.12800000  1
  H  H25  1  0.79110000  0.48290000  0.20533000  1
  H  H26  1  0.77150000  0.17990000  0.25773000  1
  H  H27  1  0.77150000  0.59160000  0.07560000  1
  H  H28  1  0.73180000  0.16440000  0.68397000  1
  H  H29  1  0.73180000  0.56740000  0.64937000  1
  H  H30  1  0.71920000  0.16850000  0.13260000  1
  H  H31  1  0.71920000  0.55070000  0.20073000  1
  H  H32  1  0.69180000  0.20890000  0.53867000  1
  H  H33  1  0.69180000  0.48290000  0.79467000  1
  H  H34  1  0.67505000  0.32495000  0.33333333  1
  H  H35  1  0.67505000  0.35010000  0.00000000  1
  H  H36  1  0.66270000  0.16480000  0.92650000  1
  H  H37  1  0.66270000  0.49790000  0.40683000  1
  H  H38  1  0.65250000  0.09720000  0.78260000  1
  H  H39  1  0.65250000  0.55530000  0.55073000  1
  H  H40  1  0.64990000  0.32495000  0.66666667  1
  H  H41  1  0.64370000  0.05660000  0.19520000  1
  H  H42  1  0.64370000  0.58710000  0.13813000  1
  H  H43  1  0.61210000  0.01640000  0.95250000  1
  H  H44  1  0.61210000  0.59570000  0.38083000  1
  H  H45  1  0.59570000  0.61210000  0.28583000  1
  H  H46  1  0.59570000  0.98360000  0.04750000  1
  H  H47  1  0.59160000  0.77150000  0.59107000  1
  H  H48  1  0.59160000  0.82010000  0.74227000  1
  H  H49  1  0.58710000  0.64370000  0.52853000  1
  H  H50  1  0.58710000  0.94340000  0.80480000  1
  H  H51  1  0.58630000  0.03290000  0.68717000  1
  H  H52  1  0.58630000  0.55340000  0.64617000  1
  H  H53  1  0.56740000  0.73180000  0.01730000  1
  H  H54  1  0.56740000  0.83560000  0.31603000  1
  H  H55  1  0.55530000  0.65250000  0.11593000  1
  H  H56  1  0.55530000  0.90280000  0.21740000  1
  H  H57  1  0.55340000  0.58630000  0.02050000  1
  H  H58  1  0.55340000  0.96710000  0.31283000  1
  H  H59  1  0.55070000  0.71920000  0.46593000  1
  H  H60  1  0.55070000  0.83150000  0.86740000  1
  H  H61  1  0.54700000  0.08490000  0.45453000  1
  H  H62  1  0.54700000  0.46210000  0.87880000  1
  H  H63  1  0.53790000  0.08490000  0.54547000  1
  H  H64  1  0.53790000  0.45300000  0.78787000  1
  H  H65  1  0.51710000  0.20890000  0.46133000  1
  H  H66  1  0.51710000  0.30820000  0.87200000  1
  H  H67  1  0.50210000  0.16480000  0.07350000  1
  H  H68  1  0.50210000  0.33730000  0.25983000  1
  H  H69  1  0.49790000  0.66270000  0.25983000  1
  H  H70  1  0.49790000  0.83520000  0.07350000  1
  H  H71  1  0.48290000  0.69180000  0.87200000  1
  H  H72  1  0.48290000  0.79110000  0.46133000  1
  H  H73  1  0.46210000  0.54700000  0.78787000  1
  H  H74  1  0.46210000  0.91510000  0.54547000  1
  H  H75  1  0.45300000  0.53790000  0.87880000  1
  H  H76  1  0.45300000  0.91510000  0.45453000  1
  H  H77  1  0.44930000  0.16850000  0.86740000  1
  H  H78  1  0.44930000  0.28080000  0.46593000  1
  H  H79  1  0.44660000  0.03290000  0.31283000  1
  H  H80  1  0.44660000  0.41370000  0.02050000  1
  H  H81  1  0.44470000  0.09720000  0.21740000  1
  H  H82  1  0.44470000  0.34750000  0.11593000  1
  H  H83  1  0.43260000  0.16440000  0.31603000  1
  H  H84  1  0.43260000  0.26820000  0.01730000  1
  H  H85  1  0.41370000  0.44660000  0.64617000  1
  H  H86  1  0.41370000  0.96710000  0.68717000  1
  H  H87  1  0.41290000  0.05660000  0.80480000  1
  H  H88  1  0.41290000  0.35630000  0.52853000  1
  H  H89  1  0.40840000  0.17990000  0.74227000  1
  H  H90  1  0.40840000  0.22850000  0.59107000  1
  H  H91  1  0.40430000  0.01640000  0.04750000  1
  H  H92  1  0.40430000  0.38790000  0.28583000  1
  H  H93  1  0.38790000  0.40430000  0.38083000  1
  H  H94  1  0.38790000  0.98360000  0.95250000  1
  H  H95  1  0.35630000  0.41290000  0.13813000  1
  H  H96  1  0.35630000  0.94340000  0.19520000  1
  H  H97  1  0.35010000  0.67505000  0.66666667  1
  H  H98  1  0.34750000  0.44470000  0.55073000  1
  H  H99  1  0.34750000  0.90280000  0.78260000  1
  H  H100  1  0.33730000  0.50210000  0.40683000  1
  H  H101  1  0.33730000  0.83520000  0.92650000  1
  H  H102  1  0.32495000  0.64990000  1.00000000  1
  H  H103  1  0.32495000  0.67505000  0.33333333  1
  H  H104  1  0.30820000  0.51710000  0.79467000  1
  H  H105  1  0.30820000  0.79110000  0.53867000  1
  H  H106  1  0.28080000  0.44930000  0.20073000  1
  H  H107  1  0.28080000  0.83150000  0.13260000  1
  H  H108  1  0.26820000  0.43260000  0.64937000  1
  H  H109  1  0.26820000  0.83560000  0.68397000  1
  H  H110  1  0.22850000  0.40840000  0.07560000  1
  H  H111  1  0.22850000  0.82010000  0.25773000  1
  H  H112  1  0.20890000  0.51710000  0.20533000  1
  H  H113  1  0.20890000  0.69180000  0.12800000  1
  H  H114  1  0.17990000  0.40840000  0.92440000  1
  H  H115  1  0.17990000  0.77150000  0.40893000  1
  H  H116  1  0.16850000  0.44930000  0.79927000  1
  H  H117  1  0.16850000  0.71920000  0.53407000  1
  H  H118  1  0.16480000  0.50210000  0.59317000  1
  H  H119  1  0.16480000  0.66270000  0.74017000  1
  H  H120  1  0.16440000  0.43260000  0.35063000  1
  H  H121  1  0.16440000  0.73180000  0.98270000  1
  H  H122  1  0.09720000  0.44470000  0.44927000  1
  H  H123  1  0.09720000  0.65250000  0.88407000  1
  H  H124  1  0.08490000  0.53790000  0.12120000  1
  H  H125  1  0.08490000  0.54700000  0.21213000  1
  H  H126  1  0.05660000  0.41290000  0.86187000  1
  H  H127  1  0.05660000  0.64370000  0.47147000  1
  H  H128  1  0.03290000  0.44660000  0.35383000  1
  H  H129  1  0.03290000  0.58630000  0.97950000  1
  H  H130  1  0.01640000  0.40430000  0.61917000  1
  H  H131  1  0.01640000  0.61210000  0.71417000  1
  C  C132  1  0.98830000  0.38230000  0.49752000  1
  C  C133  1  0.98830000  0.60600000  0.83582000  1
  C  C134  1  0.96950000  0.38130000  0.74948000  1
  C  C135  1  0.96950000  0.58820000  0.58386000  1
  C  C136  1  0.96155000  0.36455000  0.54813000  1
  C  C137  1  0.96155000  0.59700000  0.78521000  1
  C  C138  1  0.95875000  0.45225000  0.05118000  1
  C  C139  1  0.95875000  0.50650000  0.28215000  1
  C  C140  1  0.93260000  0.39380000  0.01015000  1
  C  C141  1  0.93260000  0.53880000  0.32318000  1
  C  C142  1  0.91920000  0.35750000  0.84903000  1
  C  C143  1  0.91920000  0.56170000  0.48431000  1
  C  C144  1  0.90320000  0.42110000  0.09364000  1
  C  C145  1  0.90320000  0.48210000  0.23969000  1
  C  C146  1  0.88020000  0.34980000  0.76551000  1
  C  C147  1  0.88020000  0.53040000  0.56783000  1
  C  C148  1  0.85540000  0.30470000  0.01260000  1
  C  C149  1  0.85540000  0.55070000  0.32073000  1
  C  C150  1  0.83010000  0.26680000  0.60701000  1
  C  C151  1  0.83010000  0.56330000  0.72633000  1
  C  C152  1  0.82700000  0.32800000  0.09783000  1
  C  C153  1  0.82700000  0.49900000  0.23550000  1
  C  C154  1  0.80786000  0.26946000  0.05777000  1
  C  C155  1  0.80786000  0.53840000  0.27556000  1
  C  C156  1  0.80090000  0.19910000  0.33333333  1
  C  C157  1  0.80090000  0.60180000  0.00000000  1
  C  C158  1  0.79320000  0.23560000  0.37879000  1
  C  C159  1  0.79320000  0.55760000  0.95454000  1
  C  C160  1  0.76440000  0.20680000  0.28787000  1
  C  C161  1  0.76440000  0.55760000  0.04546000  1
  C  C162  1  0.74540000  0.28328000  0.37973000  1
  C  C163  1  0.74540000  0.46212000  0.95360000  1
  C  C164  1  0.73699000  0.32539000  0.42987000  1
  C  C165  1  0.73699000  0.41160000  0.90346000  1
  C  C166  1  0.73320000  0.16990000  0.05966000  1
  C  C167  1  0.73320000  0.56330000  0.27367000  1
  C  C168  1  0.73054000  0.19214000  0.60890000  1
  C  C169  1  0.73054000  0.53840000  0.72444000  1
  C  C170  1  0.71672000  0.25460000  0.28693000  1
  C  C171  1  0.71672000  0.46212000  0.04640000  1
  C  C172  1  0.70755000  0.29245000  0.33333333  1
  C  C173  1  0.70755000  0.41510000  1.00000000  1
  C  C174  1  0.69530000  0.14460000  0.65407000  1
  C  C175  1  0.69530000  0.55070000  0.67927000  1
  C  C176  1  0.67461000  0.26301000  0.23679000  1
  C  C177  1  0.67461000  0.41160000  0.09654000  1
  C  C178  1  0.67200000  0.17300000  0.56884000  1
  C  C179  1  0.67200000  0.49900000  0.76450000  1
  C  C180  1  0.65020000  0.11980000  0.90116000  1
  C  C181  1  0.65020000  0.53040000  0.43217000  1
  C  C182  1  0.64250000  0.08080000  0.81764000  1
  C  C183  1  0.64250000  0.56170000  0.51569000  1
  C  C184  1  0.63545000  0.03845000  0.11854000  1
  C  C185  1  0.63545000  0.59700000  0.21479000  1
  C  C186  1  0.61870000  0.03050000  0.91719000  1
  C  C187  1  0.61870000  0.58820000  0.41614000  1
  C  C188  1  0.61770000  0.01170000  0.16915000  1
  C  C189  1  0.61770000  0.60600000  0.16418000  1
  C  C190  1  0.60620000  0.06740000  0.65652000  1
  C  C191  1  0.60620000  0.53880000  0.67682000  1
  C  C192  1  0.60600000  0.61770000  0.50248000  1
  C  C193  1  0.60600000  0.98830000  0.83085000  1
  C  C194  1  0.60180000  0.80090000  0.66666667  1
  C  C195  1  0.59700000  0.63545000  0.45187000  1
  C  C196  1  0.59700000  0.96155000  0.88146000  1
  C  C197  1  0.58840000  0.26301000  0.76321000  1
  C  C198  1  0.58840000  0.32539000  0.57013000  1
  C  C199  1  0.58820000  0.61870000  0.25052000  1
  C  C200  1  0.58820000  0.96950000  0.08281000  1
  C  C201  1  0.58490000  0.29245000  0.66666667  1
  C  C202  1  0.57890000  0.09680000  0.57303000  1
  C  C203  1  0.57890000  0.48210000  0.76031000  1
  C  C204  1  0.56330000  0.73320000  0.39299000  1
  C  C205  1  0.56330000  0.83010000  0.94034000  1
  C  C206  1  0.56170000  0.64250000  0.15097000  1
  C  C207  1  0.56170000  0.91920000  0.18236000  1
  C  C208  1  0.55760000  0.76440000  0.62121000  1
  C  C209  1  0.55760000  0.79320000  0.71213000  1
  C  C210  1  0.55070000  0.69530000  0.98740000  1
  C  C211  1  0.55070000  0.85540000  0.34593000  1
  C  C212  1  0.54775000  0.04125000  0.61549000  1
  C  C213  1  0.54775000  0.50650000  0.71785000  1
  C  C214  1  0.53880000  0.60620000  0.98985000  1
  C  C215  1  0.53880000  0.93260000  0.34348000  1
  C  C216  1  0.53840000  0.73054000  0.94223000  1
  C  C217  1  0.53840000  0.80786000  0.39110000  1
  C  C218  1  0.53788000  0.25460000  0.71307000  1
  C  C219  1  0.53788000  0.28328000  0.62027000  1
  C  C220  1  0.53040000  0.65020000  0.23449000  1
  C  C221  1  0.53040000  0.88020000  0.09884000  1
  C  C222  1  0.51790000  0.09680000  0.42697000  1
  C  C223  1  0.51790000  0.42110000  0.90636000  1
  C  C224  1  0.50650000  0.54775000  0.94882000  1
  C  C225  1  0.50650000  0.95875000  0.38451000  1
  C  C226  1  0.50100000  0.17300000  0.43116000  1
  C  C227  1  0.50100000  0.32800000  0.90217000  1
  C  C228  1  0.49900000  0.67200000  0.90217000  1
  C  C229  1  0.49900000  0.82700000  0.43116000  1
  C  C230  1  0.49350000  0.04125000  0.38451000  1
  C  C231  1  0.49350000  0.45225000  0.94882000  1
  C  C232  1  0.48210000  0.57890000  0.90636000  1
  C  C233  1  0.48210000  0.90320000  0.42697000  1
  C  C234  1  0.46960000  0.11980000  0.09884000  1
  C  C235  1  0.46960000  0.34980000  0.23449000  1
  C  C236  1  0.46212000  0.71672000  0.62027000  1
  C  C237  1  0.46212000  0.74540000  0.71307000  1
  C  C238  1  0.46160000  0.19214000  0.39110000  1
  C  C239  1  0.46160000  0.26946000  0.94223000  1
  C  C240  1  0.46120000  0.06740000  0.34348000  1
  C  C241  1  0.46120000  0.39380000  0.98985000  1
  C  C242  1  0.45225000  0.49350000  0.71785000  1
  C  C243  1  0.45225000  0.95875000  0.61549000  1
  C  C244  1  0.44930000  0.14460000  0.34593000  1
  C  C245  1  0.44930000  0.30470000  0.98740000  1
  C  C246  1  0.44240000  0.20680000  0.71213000  1
  C  C247  1  0.44240000  0.23560000  0.62121000  1
  C  C248  1  0.43830000  0.08080000  0.18236000  1
  C  C249  1  0.43830000  0.35750000  0.15097000  1
  C  C250  1  0.43670000  0.16990000  0.94034000  1
  C  C251  1  0.43670000  0.26680000  0.39299000  1
  C  C252  1  0.42110000  0.51790000  0.76031000  1
  C  C253  1  0.42110000  0.90320000  0.57303000  1
  C  C254  1  0.41510000  0.70755000  0.66666667  1
  C  C255  1  0.41180000  0.03050000  0.08281000  1
  C  C256  1  0.41180000  0.38130000  0.25052000  1
  C  C257  1  0.41160000  0.67461000  0.57013000  1
  C  C258  1  0.41160000  0.73699000  0.76321000  1
  C  C259  1  0.40300000  0.03845000  0.88146000  1
  C  C260  1  0.40300000  0.36455000  0.45187000  1
  C  C261  1  0.39820000  0.19910000  0.66666667  1
  C  C262  1  0.39400000  0.01170000  0.83085000  1
  C  C263  1  0.39400000  0.38230000  0.50248000  1
  C  C264  1  0.39380000  0.46120000  0.67682000  1
  C  C265  1  0.39380000  0.93260000  0.65652000  1
  C  C266  1  0.38230000  0.39400000  0.16418000  1
  C  C267  1  0.38230000  0.98830000  0.16915000  1
  C  C268  1  0.38130000  0.41180000  0.41614000  1
  C  C269  1  0.38130000  0.96950000  0.91719000  1
  C  C270  1  0.36455000  0.40300000  0.21479000  1
  C  C271  1  0.36455000  0.96155000  0.11854000  1
  C  C272  1  0.35750000  0.43830000  0.51569000  1
  C  C273  1  0.35750000  0.91920000  0.81764000  1
  C  C274  1  0.34980000  0.46960000  0.43217000  1
  C  C275  1  0.34980000  0.88020000  0.90116000  1
  C  C276  1  0.32800000  0.50100000  0.76450000  1
  C  C277  1  0.32800000  0.82700000  0.56884000  1
  C  C278  1  0.32539000  0.58840000  0.09654000  1
  C  C279  1  0.32539000  0.73699000  0.23679000  1
  C  C280  1  0.30470000  0.44930000  0.67927000  1
  C  C281  1  0.30470000  0.85540000  0.65407000  1
  C  C282  1  0.29245000  0.58490000  1.00000000  1
  C  C283  1  0.29245000  0.70755000  0.33333333  1
  C  C284  1  0.28328000  0.53788000  0.04640000  1
  C  C285  1  0.28328000  0.74540000  0.28693000  1
  C  C286  1  0.26946000  0.46160000  0.72444000  1
  C  C287  1  0.26946000  0.80786000  0.60890000  1
  C  C288  1  0.26680000  0.43670000  0.27367000  1
  C  C289  1  0.26680000  0.83010000  0.05966000  1
  C  C290  1  0.26301000  0.58840000  0.90346000  1
  C  C291  1  0.26301000  0.67461000  0.42987000  1
  C  C292  1  0.25460000  0.53788000  0.95360000  1
  C  C293  1  0.25460000  0.71672000  0.37973000  1
  C  C294  1  0.23560000  0.44240000  0.04546000  1
  C  C295  1  0.23560000  0.79320000  0.28787000  1
  C  C296  1  0.20680000  0.44240000  0.95454000  1
  C  C297  1  0.20680000  0.76440000  0.37879000  1
  C  C298  1  0.19910000  0.39820000  1.00000000  1
  C  C299  1  0.19910000  0.80090000  0.33333333  1
  C  C300  1  0.19214000  0.46160000  0.27556000  1
  C  C301  1  0.19214000  0.73054000  0.05777000  1
  C  C302  1  0.17300000  0.50100000  0.23550000  1
  C  C303  1  0.17300000  0.67200000  0.09783000  1
  C  C304  1  0.16990000  0.43670000  0.72633000  1
  C  C305  1  0.16990000  0.73320000  0.60701000  1
  C  C306  1  0.14460000  0.44930000  0.32073000  1
  C  C307  1  0.14460000  0.69530000  0.01260000  1
  C  C308  1  0.11980000  0.46960000  0.56783000  1
  C  C309  1  0.11980000  0.65020000  0.76551000  1
  C  C310  1  0.09680000  0.51790000  0.23969000  1
  C  C311  1  0.09680000  0.57890000  0.09364000  1
  C  C312  1  0.08080000  0.43830000  0.48431000  1
  C  C313  1  0.08080000  0.64250000  0.84903000  1
  C  C314  1  0.06740000  0.46120000  0.32318000  1
  C  C315  1  0.06740000  0.60620000  0.01015000  1
  C  C316  1  0.04125000  0.49350000  0.28215000  1
  C  C317  1  0.04125000  0.54775000  0.05118000  1
  C  C318  1  0.03845000  0.40300000  0.78521000  1
  C  C319  1  0.03845000  0.63545000  0.54813000  1
  C  C320  1  0.03050000  0.41180000  0.58386000  1
  C  C321  1  0.03050000  0.61870000  0.74948000  1
  C  C322  1  0.01170000  0.39400000  0.83582000  1
  C  C323  1  0.01170000  0.61770000  0.49752000  1
  N  N324  1  0.86924000  0.30119000  0.56010000  1
  N  N325  1  0.86924000  0.56805000  0.77324000  1
  N  N326  1  0.85317000  0.33602000  0.81447000  1
  N  N327  1  0.85317000  0.51715000  0.51887000  1
  N  N328  1  0.85095000  0.14905000  0.33333333  1
  N  N329  1  0.85095000  0.70190000  0.00000000  1
  N  N330  1  0.70190000  0.85095000  0.66666667  1
  N  N331  1  0.69881000  0.13076000  0.10657000  1
  N  N332  1  0.69881000  0.56805000  0.22676000  1
  N  N333  1  0.66398000  0.14683000  0.85220000  1
  N  N334  1  0.66398000  0.51715000  0.48113000  1
  N  N335  1  0.56805000  0.69881000  0.43990000  1
  N  N336  1  0.56805000  0.86924000  0.89343000  1
  N  N337  1  0.51715000  0.66398000  0.18553000  1
  N  N338  1  0.51715000  0.85317000  0.14780000  1
  N  N339  1  0.48285000  0.14683000  0.14780000  1
  N  N340  1  0.48285000  0.33602000  0.18553000  1
  N  N341  1  0.43195000  0.13076000  0.89343000  1
  N  N342  1  0.43195000  0.30119000  0.43990000  1
  N  N343  1  0.33602000  0.48285000  0.48113000  1
  N  N344  1  0.33602000  0.85317000  0.85220000  1
  N  N345  1  0.30119000  0.43195000  0.22676000  1
  N  N346  1  0.30119000  0.86924000  0.10657000  1
  N  N347  1  0.29810000  0.14905000  0.66666667  1
  N  N348  1  0.14905000  0.29810000  1.00000000  1
  N  N349  1  0.14905000  0.85095000  0.33333333  1
  N  N350  1  0.14683000  0.48285000  0.51887000  1
  N  N351  1  0.14683000  0.66398000  0.81447000  1
  N  N352  1  0.13076000  0.43195000  0.77324000  1
  N  N353  1  0.13076000  0.69881000  0.56010000  1
  O  O354  1  0.90960000  0.16440000  0.37353000  1
  O  O355  1  0.90960000  0.74520000  0.95980000  1
  O  O356  1  0.87597000  0.29667000  0.64624000  1
  O  O357  1  0.87597000  0.57930000  0.68710000  1
  O  O358  1  0.83560000  0.09040000  0.29313000  1
  O  O359  1  0.83560000  0.74520000  0.04020000  1
  O  O360  1  0.76347000  0.30369000  0.46993000  1
  O  O361  1  0.76347000  0.45978000  0.86340000  1
  O  O362  1  0.74520000  0.83560000  0.62647000  1
  O  O363  1  0.74520000  0.90960000  0.70687000  1
  O  O364  1  0.70725000  0.32671000  0.90457000  1
  O  O365  1  0.70725000  0.38054000  0.42876000  1
  O  O366  1  0.70333000  0.12403000  0.02043000  1
  O  O367  1  0.70333000  0.57930000  0.31290000  1
  O  O368  1  0.69631000  0.23653000  0.19673000  1
  O  O369  1  0.69631000  0.45978000  0.13660000  1
  O  O370  1  0.67329000  0.29275000  0.76210000  1
  O  O371  1  0.67329000  0.38054000  0.57124000  1
  O  O372  1  0.61946000  0.29275000  0.23790000  1
  O  O373  1  0.61946000  0.32671000  0.09543000  1
  O  O374  1  0.57930000  0.70333000  0.35376000  1
  O  O375  1  0.57930000  0.87597000  0.97957000  1
  O  O376  1  0.54022000  0.23653000  0.80327000  1
  O  O377  1  0.54022000  0.30369000  0.53007000  1
  O  O378  1  0.45978000  0.69631000  0.53007000  1
  O  O379  1  0.45978000  0.76347000  0.80327000  1
  O  O380  1  0.42070000  0.12403000  0.97957000  1
  O  O381  1  0.42070000  0.29667000  0.35376000  1
  O  O382  1  0.38054000  0.67329000  0.09543000  1
  O  O383  1  0.38054000  0.70725000  0.23790000  1
  O  O384  1  0.32671000  0.61946000  0.57124000  1
  O  O385  1  0.32671000  0.70725000  0.76210000  1
  O  O386  1  0.30369000  0.54022000  0.13660000  1
  O  O387  1  0.30369000  0.76347000  0.19673000  1
  O  O388  1  0.29667000  0.42070000  0.31290000  1
  O  O389  1  0.29667000  0.87597000  0.02043000  1
  O  O390  1  0.29275000  0.61946000  0.42876000  1
  O  O391  1  0.29275000  0.67329000  0.90457000  1
  O  O392  1  0.25480000  0.09040000  0.70687000  1
  O  O393  1  0.25480000  0.16440000  0.62647000  1
  O  O394  1  0.23653000  0.54022000  0.86340000  1
  O  O395  1  0.23653000  0.69631000  0.46993000  1
  O  O396  1  0.16440000  0.25480000  0.04020000  1
  O  O397  1  0.16440000  0.90960000  0.29313000  1
  O  O398  1  0.12403000  0.42070000  0.68710000  1
  O  O399  1  0.12403000  0.70333000  0.64624000  1
  O  O400  1  0.09040000  0.25480000  0.95980000  1
  O  O401  1  0.09040000  0.83560000  0.37353000  1
