# generated using pymatgen
data_CuH5C7NO5
_symmetry_space_group_name_H-M   'P 1'
_cell_length_a   24.16325293
_cell_length_b   24.16325293
_cell_length_c   24.16325293
_cell_angle_alpha   60.00000000
_cell_angle_beta   60.00000000
_cell_angle_gamma   60.00000000
_symmetry_Int_Tables_number   1
_chemical_formula_structural   CuH5C7NO5
_chemical_formula_sum   'Cu24 H120 C168 N24 O120'
_cell_volume   9975.87966411
_cell_formula_units_Z   24
loop_
 _symmetry_equiv_pos_site_id
 _symmetry_equiv_pos_as_xyz
  1  'x, y, z'
loop_
 _atom_site_type_symbol
 _atom_site_label
 _atom_site_symmetry_multiplicity
 _atom_site_fract_x
 _atom_site_fract_y
 _atom_site_fract_z
 _atom_site_occupancy
  C  C0  1  0.17830000  0.81610000  0.67470000  1
  C  C1  1  0.81610000  0.17830000  0.33090000  1
  C  C2  1  0.82510000  0.16890000  0.68390000  1
  C  C3  1  0.16890000  0.82510000  0.32210000  1
  C  C4  1  0.08680000  0.89860000  0.46420000  1
  C  C5  1  0.89860000  0.08680000  0.55040000  1
  C  C6  1  0.03610000  0.94910000  0.60190000  1
  C  C7  1  0.94910000  0.03610000  0.41290000  1
  C  C8  1  0.86600000  0.11820000  0.64720000  1
  C  C9  1  0.11820000  0.86600000  0.36860000  1
  C  C10  1  0.07150000  0.91250000  0.65450000  1
  C  C11  1  0.13780000  0.84620000  0.42880000  1
  C  C12  1  0.84620000  0.13780000  0.58720000  1
  C  C13  1  0.91250000  0.07150000  0.36150000  1
  C  C14  1  0.13140000  0.85220000  0.63420000  1
  C  C15  1  0.85220000  0.13140000  0.38220000  1
  C  C16  1  0.17210000  0.74450000  0.51850000  1
  C  C17  1  0.74450000  0.17210000  0.56490000  1
  C  C18  1  0.98110000  0.93510000  0.75550000  1
  C  C19  1  0.93510000  0.98110000  0.32830000  1
  C  C20  1  0.17830000  0.67470000  0.33090000  1
  C  C21  1  0.67470000  0.17830000  0.81610000  1
  C  C22  1  0.16890000  0.68390000  0.82510000  1
  C  C23  1  0.68390000  0.16890000  0.32210000  1
  C  C24  1  0.93450000  0.91090000  0.82450000  1
  C  C25  1  0.16980000  0.67560000  0.56460000  1
  C  C26  1  0.67560000  0.16980000  0.59000000  1
  C  C27  1  0.91090000  0.93450000  0.33010000  1
  C  C28  1  0.17030000  0.65470000  0.62990000  1
  C  C29  1  0.86980000  0.95520000  0.84500000  1
  C  C30  1  0.95520000  0.86980000  0.33000000  1
  C  C31  1  0.65470000  0.17030000  0.54510000  1
  C  C32  1  0.95520000  0.84500000  0.86980000  1
  C  C33  1  0.17030000  0.62990000  0.54510000  1
  C  C34  1  0.62990000  0.17030000  0.65470000  1
  C  C35  1  0.84500000  0.95520000  0.33000000  1
  C  C36  1  0.13140000  0.63420000  0.38220000  1
  C  C37  1  0.63420000  0.13140000  0.85220000  1
  C  C38  1  0.11820000  0.64720000  0.86600000  1
  C  C39  1  0.64720000  0.11820000  0.36860000  1
  C  C40  1  0.16980000  0.59000000  0.67560000  1
  C  C41  1  0.59000000  0.16980000  0.56460000  1
  C  C42  1  0.82450000  0.93450000  0.91090000  1
  C  C43  1  0.93450000  0.82450000  0.33010000  1
  C  C44  1  0.17210000  0.56490000  0.74450000  1
  C  C45  1  0.56490000  0.17210000  0.51850000  1
  C  C46  1  0.75550000  0.98110000  0.93510000  1
  C  C47  1  0.98110000  0.75550000  0.32830000  1
  C  C48  1  0.91090000  0.82450000  0.93450000  1
  C  C49  1  0.82450000  0.91090000  0.33010000  1
  C  C50  1  0.16980000  0.56460000  0.59000000  1
  C  C51  1  0.56460000  0.16980000  0.67560000  1
  C  C52  1  0.65450000  0.07150000  0.91250000  1
  C  C53  1  0.07150000  0.65450000  0.36150000  1
  C  C54  1  0.13780000  0.58720000  0.84620000  1
  C  C55  1  0.58720000  0.13780000  0.42880000  1
  C  C56  1  0.17030000  0.54510000  0.65470000  1
  C  C57  1  0.54510000  0.17030000  0.62990000  1
  C  C58  1  0.84500000  0.86980000  0.95520000  1
  C  C59  1  0.86980000  0.84500000  0.33000000  1
  C  C60  1  0.93510000  0.75550000  0.98110000  1
  C  C61  1  0.17210000  0.51850000  0.56490000  1
  C  C62  1  0.51850000  0.17210000  0.74450000  1
  C  C63  1  0.75550000  0.93510000  0.32830000  1
  C  C64  1  0.60190000  0.03610000  0.94910000  1
  C  C65  1  0.03610000  0.60190000  0.41290000  1
  C  C66  1  0.08680000  0.55040000  0.89860000  1
  C  C67  1  0.55040000  0.08680000  0.46420000  1
  C  C68  1  0.91250000  0.65450000  0.07150000  1
  C  C69  1  0.65450000  0.91250000  0.36150000  1
  C  C70  1  0.13780000  0.42880000  0.58720000  1
  C  C71  1  0.42880000  0.13780000  0.84620000  1
  C  C72  1  0.94910000  0.60190000  0.03610000  1
  C  C73  1  0.08680000  0.46420000  0.55040000  1
  C  C74  1  0.46420000  0.08680000  0.89860000  1
  C  C75  1  0.60190000  0.94910000  0.41290000  1
  C  C76  1  0.13140000  0.38220000  0.85220000  1
  C  C77  1  0.38220000  0.13140000  0.63420000  1
  C  C78  1  0.64720000  0.86600000  0.11820000  1
  C  C79  1  0.86600000  0.64720000  0.36860000  1
  C  C80  1  0.17830000  0.33090000  0.81610000  1
  C  C81  1  0.33090000  0.17830000  0.67470000  1
  C  C82  1  0.68390000  0.82510000  0.16890000  1
  C  C83  1  0.82510000  0.68390000  0.32210000  1
  C  C84  1  0.16890000  0.32210000  0.68390000  1
  C  C85  1  0.32210000  0.16890000  0.82510000  1
  C  C86  1  0.81610000  0.67470000  0.17830000  1
  C  C87  1  0.67470000  0.81610000  0.33090000  1
  C  C88  1  0.11820000  0.36860000  0.64720000  1
  C  C89  1  0.36860000  0.11820000  0.86600000  1
  C  C90  1  0.85220000  0.63420000  0.13140000  1
  C  C91  1  0.63420000  0.85220000  0.38220000  1
  C  C92  1  0.03610000  0.41290000  0.94910000  1
  C  C93  1  0.55040000  0.89860000  0.08680000  1
  C  C94  1  0.89860000  0.55040000  0.46420000  1
  C  C95  1  0.41290000  0.03610000  0.60190000  1
  C  C96  1  0.58720000  0.84620000  0.13780000  1
  C  C97  1  0.84620000  0.58720000  0.42880000  1
  C  C98  1  0.07150000  0.36150000  0.91250000  1
  C  C99  1  0.36150000  0.07150000  0.65450000  1
  C  C100  1  0.89860000  0.46420000  0.08680000  1
  C  C101  1  0.46420000  0.89860000  0.55040000  1
  C  C102  1  0.94910000  0.41290000  0.60190000  1
  C  C103  1  0.41290000  0.94910000  0.03610000  1
  C  C104  1  0.98110000  0.32830000  0.93510000  1
  C  C105  1  0.56490000  0.74450000  0.17210000  1
  C  C106  1  0.74450000  0.56490000  0.51850000  1
  C  C107  1  0.32830000  0.98110000  0.75550000  1
  C  C108  1  0.95520000  0.33000000  0.84500000  1
  C  C109  1  0.33000000  0.95520000  0.86980000  1
  C  C110  1  0.65470000  0.62990000  0.17030000  1
  C  C111  1  0.62990000  0.65470000  0.54510000  1
  C  C112  1  0.84620000  0.42880000  0.13780000  1
  C  C113  1  0.42880000  0.84620000  0.58720000  1
  C  C114  1  0.91250000  0.36150000  0.65450000  1
  C  C115  1  0.36150000  0.91250000  0.07150000  1
  C  C116  1  0.59000000  0.67560000  0.16980000  1
  C  C117  1  0.67560000  0.59000000  0.56460000  1
  C  C118  1  0.93450000  0.33010000  0.91090000  1
  C  C119  1  0.33010000  0.93450000  0.82450000  1
  C  C120  1  0.93510000  0.32830000  0.75550000  1
  C  C121  1  0.32830000  0.93510000  0.98110000  1
  C  C122  1  0.74450000  0.51850000  0.17210000  1
  C  C123  1  0.51850000  0.74450000  0.56490000  1
  C  C124  1  0.91090000  0.33010000  0.82450000  1
  C  C125  1  0.33010000  0.91090000  0.93450000  1
  C  C126  1  0.67560000  0.56460000  0.16980000  1
  C  C127  1  0.56460000  0.67560000  0.59000000  1
  C  C128  1  0.86600000  0.36860000  0.11820000  1
  C  C129  1  0.36860000  0.86600000  0.64720000  1
  C  C130  1  0.38220000  0.85220000  0.13140000  1
  C  C131  1  0.85220000  0.38220000  0.63420000  1
  C  C132  1  0.86980000  0.33000000  0.95520000  1
  C  C133  1  0.54510000  0.65470000  0.17030000  1
  C  C134  1  0.65470000  0.54510000  0.62990000  1
  C  C135  1  0.33000000  0.86980000  0.84500000  1
  C  C136  1  0.62990000  0.54510000  0.17030000  1
  C  C137  1  0.84500000  0.33000000  0.86980000  1
  C  C138  1  0.33000000  0.84500000  0.95520000  1
  C  C139  1  0.54510000  0.62990000  0.65470000  1
  C  C140  1  0.82450000  0.33010000  0.93450000  1
  C  C141  1  0.56460000  0.59000000  0.16980000  1
  C  C142  1  0.59000000  0.56460000  0.67560000  1
  C  C143  1  0.33010000  0.82450000  0.91090000  1
  C  C144  1  0.82510000  0.32210000  0.16890000  1
  C  C145  1  0.32210000  0.82510000  0.68390000  1
  C  C146  1  0.33090000  0.81610000  0.17830000  1
  C  C147  1  0.81610000  0.33090000  0.67470000  1
  C  C148  1  0.75550000  0.32830000  0.98110000  1
  C  C149  1  0.32830000  0.75550000  0.93510000  1
  C  C150  1  0.51850000  0.56490000  0.17210000  1
  C  C151  1  0.56490000  0.51850000  0.74450000  1
  C  C152  1  0.63420000  0.38220000  0.13140000  1
  C  C153  1  0.38220000  0.63420000  0.85220000  1
  C  C154  1  0.65450000  0.36150000  0.07150000  1
  C  C155  1  0.42880000  0.58720000  0.13780000  1
  C  C156  1  0.58720000  0.42880000  0.84620000  1
  C  C157  1  0.36150000  0.65450000  0.91250000  1
  C  C158  1  0.64720000  0.36860000  0.86600000  1
  C  C159  1  0.36860000  0.64720000  0.11820000  1
  C  C160  1  0.60190000  0.41290000  0.03610000  1
  C  C161  1  0.41290000  0.60190000  0.94910000  1
  C  C162  1  0.46420000  0.55040000  0.08680000  1
  C  C163  1  0.55040000  0.46420000  0.89860000  1
  C  C164  1  0.68390000  0.32210000  0.82510000  1
  C  C165  1  0.32210000  0.68390000  0.16890000  1
  C  C166  1  0.67470000  0.33090000  0.17830000  1
  C  C167  1  0.33090000  0.67470000  0.81610000  1
  Cu  Cu168  1  0.21095000  0.78905000  0.78905000  1
  Cu  Cu169  1  0.28920000  0.71080000  0.71080000  1
  Cu  Cu170  1  0.71080000  0.28920000  0.28920000  1
  Cu  Cu171  1  0.78905000  0.21095000  0.21095000  1
  Cu  Cu172  1  0.28920000  0.71080000  0.28920000  1
  Cu  Cu173  1  0.78905000  0.21095000  0.78905000  1
  Cu  Cu174  1  0.21095000  0.78905000  0.21095000  1
  Cu  Cu175  1  0.71080000  0.28920000  0.71080000  1
  Cu  Cu176  1  0.46838000  0.46838000  0.03162000  1
  Cu  Cu177  1  0.95473000  0.95473000  0.54527000  1
  Cu  Cu178  1  0.28920000  0.28920000  0.71080000  1
  Cu  Cu179  1  0.78905000  0.78905000  0.21095000  1
  Cu  Cu180  1  0.46838000  0.03162000  0.46838000  1
  Cu  Cu181  1  0.95473000  0.54527000  0.95473000  1
  Cu  Cu182  1  0.54527000  0.95473000  0.95473000  1
  Cu  Cu183  1  0.95473000  0.54527000  0.54527000  1
  Cu  Cu184  1  0.03162000  0.46838000  0.46838000  1
  Cu  Cu185  1  0.46838000  0.03162000  0.03162000  1
  Cu  Cu186  1  0.54527000  0.95473000  0.54527000  1
  Cu  Cu187  1  0.03162000  0.46838000  0.03162000  1
  Cu  Cu188  1  0.21095000  0.21095000  0.78905000  1
  Cu  Cu189  1  0.71080000  0.71080000  0.28920000  1
  Cu  Cu190  1  0.54527000  0.54527000  0.95473000  1
  Cu  Cu191  1  0.03162000  0.03162000  0.46838000  1
  H  H192  1  0.63250000  0.34290000  0.91350000  1
  H  H193  1  0.34290000  0.63250000  0.11110000  1
  H  H194  1  0.58650000  0.38850000  0.15670000  1
  H  H195  1  0.38850000  0.58650000  0.86830000  1
  H  H196  1  0.41240000  0.55660000  0.18300000  1
  H  H197  1  0.55660000  0.41240000  0.84800000  1
  H  H198  1  0.65210000  0.31610000  0.08870000  1
  H  H199  1  0.31610000  0.65210000  0.94310000  1
  H  H200  1  0.11390000  0.82030000  0.64050000  1
  H  H201  1  0.82030000  0.11390000  0.42530000  1
  H  H202  1  0.85930000  0.07450000  0.68070000  1
  H  H203  1  0.07450000  0.85930000  0.38550000  1
  H  H204  1  0.02810000  0.84810000  0.74270000  1
  H  H205  1  0.84810000  0.02810000  0.38110000  1
  H  H206  1  0.11710000  0.75830000  0.47370000  1
  H  H207  1  0.75830000  0.11710000  0.65090000  1
  H  H208  1  0.17100000  0.68440000  0.64300000  1
  H  H209  1  0.68440000  0.17100000  0.50160000  1
  H  H210  1  0.85620000  0.99860000  0.81520000  1
  H  H211  1  0.99860000  0.85620000  0.33000000  1
  H  H212  1  0.17100000  0.64300000  0.50160000  1
  H  H213  1  0.64300000  0.17100000  0.68440000  1
  H  H214  1  0.99860000  0.81520000  0.85620000  1
  H  H215  1  0.81520000  0.99860000  0.33000000  1
  H  H216  1  0.74270000  0.02810000  0.84810000  1
  H  H217  1  0.02810000  0.74270000  0.38110000  1
  H  H218  1  0.11710000  0.65090000  0.75830000  1
  H  H219  1  0.65090000  0.11710000  0.47370000  1
  H  H220  1  0.07450000  0.68070000  0.85930000  1
  H  H221  1  0.68070000  0.07450000  0.38550000  1
  H  H222  1  0.11390000  0.64050000  0.42530000  1
  H  H223  1  0.64050000  0.11390000  0.82030000  1
  H  H224  1  0.63250000  0.11110000  0.34290000  1
  H  H225  1  0.11110000  0.63250000  0.91350000  1
  H  H226  1  0.15670000  0.58650000  0.38850000  1
  H  H227  1  0.58650000  0.15670000  0.86830000  1
  H  H228  1  0.65210000  0.08870000  0.94310000  1
  H  H229  1  0.08870000  0.65210000  0.31610000  1
  H  H230  1  0.55660000  0.18300000  0.41240000  1
  H  H231  1  0.18300000  0.55660000  0.84800000  1
  H  H232  1  0.17100000  0.50160000  0.68440000  1
  H  H233  1  0.50160000  0.17100000  0.64300000  1
  H  H234  1  0.81520000  0.85620000  0.99860000  1
  H  H235  1  0.85620000  0.81520000  0.33000000  1
  H  H236  1  0.18300000  0.41240000  0.55660000  1
  H  H237  1  0.41240000  0.18300000  0.84800000  1
  H  H238  1  0.65210000  0.94310000  0.31610000  1
  H  H239  1  0.94310000  0.65210000  0.08870000  1
  H  H240  1  0.84810000  0.74270000  0.02810000  1
  H  H241  1  0.11710000  0.47370000  0.65090000  1
  H  H242  1  0.47370000  0.11710000  0.75830000  1
  H  H243  1  0.74270000  0.84810000  0.38110000  1
  H  H244  1  0.63250000  0.91350000  0.11110000  1
  H  H245  1  0.91350000  0.63250000  0.34290000  1
  H  H246  1  0.38850000  0.15670000  0.58650000  1
  H  H247  1  0.15670000  0.38850000  0.86830000  1
  H  H248  1  0.68070000  0.85930000  0.07450000  1
  H  H249  1  0.85930000  0.68070000  0.38550000  1
  H  H250  1  0.11390000  0.42530000  0.82030000  1
  H  H251  1  0.42530000  0.11390000  0.64050000  1
  H  H252  1  0.82030000  0.64050000  0.11390000  1
  H  H253  1  0.64050000  0.82030000  0.42530000  1
  H  H254  1  0.07450000  0.38550000  0.68070000  1
  H  H255  1  0.38550000  0.07450000  0.85930000  1
  H  H256  1  0.58650000  0.86830000  0.38850000  1
  H  H257  1  0.86830000  0.58650000  0.15670000  1
  H  H258  1  0.11110000  0.34290000  0.63250000  1
  H  H259  1  0.34290000  0.11110000  0.91350000  1
  H  H260  1  0.02810000  0.38110000  0.84810000  1
  H  H261  1  0.65090000  0.75830000  0.11710000  1
  H  H262  1  0.75830000  0.65090000  0.47370000  1
  H  H263  1  0.38110000  0.02810000  0.74270000  1
  H  H264  1  0.31610000  0.08870000  0.65210000  1
  H  H265  1  0.08870000  0.31610000  0.94310000  1
  H  H266  1  0.55660000  0.84800000  0.18300000  1
  H  H267  1  0.84800000  0.55660000  0.41240000  1
  H  H268  1  0.99860000  0.33000000  0.81520000  1
  H  H269  1  0.33000000  0.99860000  0.85620000  1
  H  H270  1  0.68440000  0.64300000  0.17100000  1
  H  H271  1  0.64300000  0.68440000  0.50160000  1
  H  H272  1  0.41240000  0.84800000  0.55660000  1
  H  H273  1  0.84800000  0.41240000  0.18300000  1
  H  H274  1  0.94310000  0.31610000  0.65210000  1
  H  H275  1  0.31610000  0.94310000  0.08870000  1
  H  H276  1  0.38850000  0.86830000  0.15670000  1
  H  H277  1  0.86830000  0.38850000  0.58650000  1
  H  H278  1  0.34290000  0.91350000  0.63250000  1
  H  H279  1  0.91350000  0.34290000  0.11110000  1
  H  H280  1  0.42530000  0.82030000  0.11390000  1
  H  H281  1  0.82030000  0.42530000  0.64050000  1
  H  H282  1  0.85930000  0.38550000  0.07450000  1
  H  H283  1  0.38550000  0.85930000  0.68070000  1
  H  H284  1  0.75830000  0.47370000  0.11710000  1
  H  H285  1  0.47370000  0.75830000  0.65090000  1
  H  H286  1  0.84810000  0.38110000  0.74270000  1
  H  H287  1  0.38110000  0.84810000  0.02810000  1
  H  H288  1  0.85620000  0.33000000  0.99860000  1
  H  H289  1  0.33000000  0.85620000  0.81520000  1
  H  H290  1  0.50160000  0.68440000  0.17100000  1
  H  H291  1  0.68440000  0.50160000  0.64300000  1
  H  H292  1  0.81520000  0.33000000  0.85620000  1
  H  H293  1  0.33000000  0.81520000  0.99860000  1
  H  H294  1  0.64300000  0.50160000  0.17100000  1
  H  H295  1  0.50160000  0.64300000  0.68440000  1
  H  H296  1  0.47370000  0.65090000  0.11710000  1
  H  H297  1  0.65090000  0.47370000  0.75830000  1
  H  H298  1  0.74270000  0.38110000  0.02810000  1
  H  H299  1  0.38110000  0.74270000  0.84810000  1
  H  H300  1  0.68070000  0.38550000  0.85930000  1
  H  H301  1  0.38550000  0.68070000  0.07450000  1
  H  H302  1  0.64050000  0.42530000  0.11390000  1
  H  H303  1  0.42530000  0.64050000  0.82030000  1
  H  H304  1  0.08870000  0.94310000  0.65210000  1
  H  H305  1  0.94310000  0.08870000  0.31610000  1
  H  H306  1  0.18300000  0.84800000  0.41240000  1
  H  H307  1  0.84800000  0.18300000  0.55660000  1
  H  H308  1  0.15670000  0.86830000  0.58650000  1
  H  H309  1  0.86830000  0.15670000  0.38850000  1
  H  H310  1  0.91350000  0.11110000  0.63250000  1
  H  H311  1  0.11110000  0.91350000  0.34290000  1
  N  N312  1  0.13920000  0.77780000  0.47320000  1
  N  N313  1  0.77780000  0.13920000  0.60980000  1
  N  N314  1  0.02610000  0.88990000  0.72310000  1
  N  N315  1  0.88990000  0.02610000  0.36090000  1
  N  N316  1  0.72310000  0.02610000  0.88990000  1
  N  N317  1  0.02610000  0.72310000  0.36090000  1
  N  N318  1  0.13920000  0.60980000  0.77780000  1
  N  N319  1  0.60980000  0.13920000  0.47320000  1
  N  N320  1  0.88990000  0.72310000  0.02610000  1
  N  N321  1  0.72310000  0.88990000  0.36090000  1
  N  N322  1  0.13920000  0.47320000  0.60980000  1
  N  N323  1  0.47320000  0.13920000  0.77780000  1
  N  N324  1  0.60980000  0.77780000  0.13920000  1
  N  N325  1  0.77780000  0.60980000  0.47320000  1
  N  N326  1  0.02610000  0.36090000  0.88990000  1
  N  N327  1  0.36090000  0.02610000  0.72310000  1
  N  N328  1  0.77780000  0.47320000  0.13920000  1
  N  N329  1  0.47320000  0.77780000  0.60980000  1
  N  N330  1  0.88990000  0.36090000  0.72310000  1
  N  N331  1  0.36090000  0.88990000  0.02610000  1
  N  N332  1  0.72310000  0.36090000  0.02610000  1
  N  N333  1  0.36090000  0.72310000  0.88990000  1
  N  N334  1  0.47320000  0.60980000  0.13920000  1
  N  N335  1  0.60980000  0.47320000  0.77780000  1
  O  O336  1  0.32760000  0.65780000  0.22640000  1
  O  O337  1  0.65780000  0.32760000  0.78820000  1
  O  O338  1  0.71150000  0.27350000  0.17250000  1
  O  O339  1  0.27350000  0.71150000  0.84250000  1
  O  O340  1  0.83320000  0.14920000  0.73960000  1
  O  O341  1  0.14920000  0.83320000  0.27800000  1
  O  O342  1  0.22150000  0.76070000  0.66650000  1
  O  O343  1  0.76070000  0.22150000  0.35130000  1
  O  O344  1  0.20370000  0.77110000  0.52050000  1
  O  O345  1  0.77110000  0.20370000  0.50470000  1
  O  O346  1  0.97870000  0.99570000  0.72870000  1
  O  O347  1  0.99570000  0.97870000  0.29690000  1
  O  O348  1  0.43640000  0.51340000  0.09600000  1
  O  O349  1  0.51340000  0.43640000  0.95420000  1
  O  O350  1  0.54520000  0.40300000  0.06480000  1
  O  O351  1  0.40300000  0.54520000  0.98700000  1
  O  O352  1  0.03720000  0.88420000  0.51440000  1
  O  O353  1  0.88420000  0.03720000  0.56420000  1
  O  O354  1  0.98549000  0.93551000  0.61609000  1
  O  O355  1  0.93551000  0.98549000  0.46291000  1
  O  O356  1  0.14920000  0.73960000  0.83320000  1
  O  O357  1  0.73960000  0.14920000  0.27800000  1
  O  O358  1  0.22150000  0.66650000  0.35130000  1
  O  O359  1  0.66650000  0.22150000  0.76070000  1
  O  O360  1  0.65780000  0.22640000  0.32760000  1
  O  O361  1  0.22640000  0.65780000  0.78820000  1
  O  O362  1  0.71150000  0.17250000  0.84250000  1
  O  O363  1  0.17250000  0.71150000  0.27350000  1
  O  O364  1  0.99570000  0.72870000  0.97870000  1
  O  O365  1  0.72870000  0.99570000  0.29690000  1
  O  O366  1  0.20370000  0.52050000  0.50470000  1
  O  O367  1  0.52050000  0.20370000  0.77110000  1
  O  O368  1  0.20370000  0.50470000  0.77110000  1
  O  O369  1  0.50470000  0.20370000  0.52050000  1
  O  O370  1  0.72870000  0.97870000  0.99570000  1
  O  O371  1  0.97870000  0.72870000  0.29690000  1
  O  O372  1  0.54520000  0.06480000  0.98700000  1
  O  O373  1  0.06480000  0.54520000  0.40300000  1
  O  O374  1  0.51340000  0.09600000  0.43640000  1
  O  O375  1  0.09600000  0.51340000  0.95420000  1
  O  O376  1  0.61609000  0.98549000  0.93551000  1
  O  O377  1  0.98549000  0.61609000  0.46291000  1
  O  O378  1  0.03720000  0.56420000  0.88420000  1
  O  O379  1  0.56420000  0.03720000  0.51440000  1
  O  O380  1  0.22150000  0.35130000  0.76070000  1
  O  O381  1  0.73960000  0.83320000  0.14920000  1
  O  O382  1  0.83320000  0.73960000  0.27800000  1
  O  O383  1  0.35130000  0.22150000  0.66650000  1
  O  O384  1  0.71150000  0.84250000  0.27350000  1
  O  O385  1  0.22640000  0.32760000  0.65780000  1
  O  O386  1  0.32760000  0.22640000  0.78820000  1
  O  O387  1  0.84250000  0.71150000  0.17250000  1
  O  O388  1  0.93551000  0.61609000  0.98549000  1
  O  O389  1  0.03720000  0.51440000  0.56420000  1
  O  O390  1  0.51440000  0.03720000  0.88420000  1
  O  O391  1  0.61609000  0.93551000  0.46291000  1
  O  O392  1  0.09600000  0.43640000  0.51340000  1
  O  O393  1  0.43640000  0.09600000  0.95420000  1
  O  O394  1  0.54520000  0.98700000  0.40300000  1
  O  O395  1  0.98700000  0.54520000  0.06480000  1
  O  O396  1  0.40300000  0.06480000  0.54520000  1
  O  O397  1  0.06480000  0.40300000  0.98700000  1
  O  O398  1  0.51340000  0.95420000  0.09600000  1
  O  O399  1  0.95420000  0.51340000  0.43640000  1
  O  O400  1  0.98549000  0.46291000  0.93551000  1
  O  O401  1  0.56420000  0.88420000  0.03720000  1
  O  O402  1  0.88420000  0.56420000  0.51440000  1
  O  O403  1  0.46291000  0.98549000  0.61609000  1
  O  O404  1  0.27350000  0.17250000  0.71150000  1
  O  O405  1  0.65780000  0.78820000  0.22640000  1
  O  O406  1  0.78820000  0.65780000  0.32760000  1
  O  O407  1  0.17250000  0.27350000  0.84250000  1
  O  O408  1  0.76070000  0.66650000  0.22150000  1
  O  O409  1  0.14920000  0.27800000  0.73960000  1
  O  O410  1  0.27800000  0.14920000  0.83320000  1
  O  O411  1  0.66650000  0.76070000  0.35130000  1
  O  O412  1  0.88420000  0.51440000  0.03720000  1
  O  O413  1  0.51440000  0.88420000  0.56420000  1
  O  O414  1  0.93551000  0.46291000  0.61609000  1
  O  O415  1  0.46291000  0.93551000  0.98549000  1
  O  O416  1  0.43640000  0.95420000  0.51340000  1
  O  O417  1  0.95420000  0.43640000  0.09600000  1
  O  O418  1  0.98700000  0.40300000  0.54520000  1
  O  O419  1  0.40300000  0.98700000  0.06480000  1
  O  O420  1  0.99570000  0.29690000  0.72870000  1
  O  O421  1  0.29690000  0.99570000  0.97870000  1
  O  O422  1  0.77110000  0.52050000  0.20370000  1
  O  O423  1  0.52050000  0.77110000  0.50470000  1
  O  O424  1  0.50470000  0.77110000  0.20370000  1
  O  O425  1  0.77110000  0.50470000  0.52050000  1
  O  O426  1  0.97870000  0.29690000  0.99570000  1
  O  O427  1  0.29690000  0.97870000  0.72870000  1
  O  O428  1  0.84250000  0.27350000  0.71150000  1
  O  O429  1  0.27350000  0.84250000  0.17250000  1
  O  O430  1  0.32760000  0.78820000  0.65780000  1
  O  O431  1  0.78820000  0.32760000  0.22640000  1
  O  O432  1  0.35130000  0.76070000  0.22150000  1
  O  O433  1  0.76070000  0.35130000  0.66650000  1
  O  O434  1  0.83320000  0.27800000  0.14920000  1
  O  O435  1  0.27800000  0.83320000  0.73960000  1
  O  O436  1  0.61609000  0.46291000  0.98549000  1
  O  O437  1  0.46291000  0.61609000  0.93551000  1
  O  O438  1  0.51440000  0.56420000  0.03720000  1
  O  O439  1  0.56420000  0.51440000  0.88420000  1
  O  O440  1  0.06480000  0.98700000  0.54520000  1
  O  O441  1  0.98700000  0.06480000  0.40300000  1
  O  O442  1  0.09600000  0.95420000  0.43640000  1
  O  O443  1  0.95420000  0.09600000  0.51340000  1
  O  O444  1  0.72870000  0.29690000  0.97870000  1
  O  O445  1  0.29690000  0.72870000  0.99570000  1
  O  O446  1  0.52050000  0.50470000  0.20370000  1
  O  O447  1  0.50470000  0.52050000  0.77110000  1
  O  O448  1  0.66650000  0.35130000  0.22150000  1
  O  O449  1  0.35130000  0.66650000  0.76070000  1
  O  O450  1  0.73960000  0.27800000  0.83320000  1
  O  O451  1  0.27800000  0.73960000  0.14920000  1
  O  O452  1  0.17250000  0.84250000  0.71150000  1
  O  O453  1  0.84250000  0.17250000  0.27350000  1
  O  O454  1  0.22640000  0.78820000  0.32760000  1
  O  O455  1  0.78820000  0.22640000  0.65780000  1
