# generated using pymatgen
data_Zn3H16(C2O)16
_symmetry_space_group_name_H-M   'P 1'
_cell_length_a   9.85310000
_cell_length_b   18.21800000
_cell_length_c   33.27370000
_cell_angle_alpha   90.00000000
_cell_angle_beta   90.00000000
_cell_angle_gamma   90.00000000
_symmetry_Int_Tables_number   1
_chemical_formula_structural   Zn3H16(C2O)16
_chemical_formula_sum   'Zn12 H64 C128 O64'
_cell_volume   5972.75478484
_cell_formula_units_Z   4
loop_
 _symmetry_equiv_pos_site_id
 _symmetry_equiv_pos_as_xyz
  1  'x, y, z'
loop_
 _atom_site_type_symbol
 _atom_site_label
 _atom_site_symmetry_multiplicity
 _atom_site_fract_x
 _atom_site_fract_y
 _atom_site_fract_z
 _atom_site_occupancy
  Zn  Zn0  1  0.00000000  0.50000000  0.00000000  1
  Zn  Zn1  1  0.50000000  1.00000000  1.00000000  1
  Zn  Zn2  1  0.55071000  0.00487000  0.09650000  1
  Zn  Zn3  1  0.94929000  0.50487000  0.09650000  1
  Zn  Zn4  1  0.55071000  0.50487000  0.40350000  1
  Zn  Zn5  1  0.94929000  0.00487000  0.40350000  1
  Zn  Zn6  1  0.00000000  0.00000000  0.50000000  1
  Zn  Zn7  1  0.50000000  0.50000000  0.50000000  1
  Zn  Zn8  1  0.05071000  0.99513000  0.59650000  1
  Zn  Zn9  1  0.44929000  0.49513000  0.59650000  1
  Zn  Zn10  1  0.05071000  0.49513000  0.90350000  1
  Zn  Zn11  1  0.44929000  0.99513000  0.90350000  1
  H  H12  1  0.16020000  0.71560000  1.00000000  1
  H  H13  1  0.33980000  0.21560000  1.00000000  1
  H  H14  1  0.66020000  0.78440000  0.00000000  1
  H  H15  1  0.83980000  0.28440000  1.00000000  1
  H  H16  1  0.68230000  0.41990000  0.00260000  1
  H  H17  1  0.81770000  0.91990000  0.00260000  1
  H  H18  1  0.22640000  0.32570000  0.00280000  1
  H  H19  1  0.27360000  0.82570000  0.00280000  1
  H  H20  1  0.51070000  0.61170000  0.03270000  1
  H  H21  1  0.98930000  0.11170000  0.03270000  1
  H  H22  1  0.19720000  0.69410000  0.11950000  1
  H  H23  1  0.30280000  0.19410000  0.11950000  1
  H  H24  1  0.18630000  0.30340000  0.12210000  1
  H  H25  1  0.31370000  0.80340000  0.12210000  1
  H  H26  1  0.62930000  0.50410000  0.19090000  1
  H  H27  1  0.87070000  0.00410000  0.19090000  1
  H  H28  1  0.51880000  0.00360000  0.24860000  1
  H  H29  1  0.98120000  0.50360000  0.24860000  1
  H  H30  1  0.51880000  0.50360000  0.25140000  1
  H  H31  1  0.98120000  0.00360000  0.25140000  1
  H  H32  1  0.62930000  0.00410000  0.30910000  1
  H  H33  1  0.87070000  0.50410000  0.30910000  1
  H  H34  1  0.18630000  0.80340000  0.37790000  1
  H  H35  1  0.31370000  0.30340000  0.37790000  1
  H  H36  1  0.19720000  0.19410000  0.38050000  1
  H  H37  1  0.30280000  0.69410000  0.38050000  1
  H  H38  1  0.51070000  0.11170000  0.46730000  1
  H  H39  1  0.98930000  0.61170000  0.46730000  1
  H  H40  1  0.22640000  0.82570000  0.49720000  1
  H  H41  1  0.27360000  0.32570000  0.49720000  1
  H  H42  1  0.68230000  0.91990000  0.49740000  1
  H  H43  1  0.81770000  0.41990000  0.49740000  1
  H  H44  1  0.16020000  0.21560000  0.50000000  1
  H  H45  1  0.33980000  0.71560000  0.50000000  1
  H  H46  1  0.66020000  0.28440000  0.50000000  1
  H  H47  1  0.83980000  0.78440000  0.50000000  1
  H  H48  1  0.18230000  0.58010000  0.50260000  1
  H  H49  1  0.31770000  0.08010000  0.50260000  1
  H  H50  1  0.72640000  0.67430000  0.50280000  1
  H  H51  1  0.77360000  0.17430000  0.50280000  1
  H  H52  1  0.01070000  0.38830000  0.53270000  1
  H  H53  1  0.48930000  0.88830000  0.53270000  1
  H  H54  1  0.69720000  0.30590000  0.61950000  1
  H  H55  1  0.80280000  0.80590000  0.61950000  1
  H  H56  1  0.68630000  0.69660000  0.62210000  1
  H  H57  1  0.81370000  0.19660000  0.62210000  1
  H  H58  1  0.12930000  0.49590000  0.69090000  1
  H  H59  1  0.37070000  0.99590000  0.69090000  1
  H  H60  1  0.01880000  0.99640000  0.74860000  1
  H  H61  1  0.48120000  0.49640000  0.74860000  1
  H  H62  1  0.01880000  0.49640000  0.75140000  1
  H  H63  1  0.48120000  0.99640000  0.75140000  1
  H  H64  1  0.12930000  0.99590000  0.80910000  1
  H  H65  1  0.37070000  0.49590000  0.80910000  1
  H  H66  1  0.68630000  0.19660000  0.87790000  1
  H  H67  1  0.81370000  0.69660000  0.87790000  1
  H  H68  1  0.69720000  0.80590000  0.88050000  1
  H  H69  1  0.80280000  0.30590000  0.88050000  1
  H  H70  1  0.01070000  0.88830000  0.96730000  1
  H  H71  1  0.48930000  0.38830000  0.96730000  1
  H  H72  1  0.72640000  0.17430000  0.99720000  1
  H  H73  1  0.77360000  0.67430000  0.99720000  1
  H  H74  1  0.18230000  0.08010000  0.99740000  1
  H  H75  1  0.31770000  0.58010000  0.99740000  1
  C  C76  1  0.60920000  0.45210000  0.00161000  1
  C  C77  1  0.89080000  0.95210000  0.00161000  1
  C  C78  1  0.50650000  0.56670000  0.01956000  1
  C  C79  1  0.99350000  0.06670000  0.01956000  1
  C  C80  1  0.61610000  0.51910000  0.02136000  1
  C  C81  1  0.88390000  0.01910000  0.02136000  1
  C  C82  1  0.19040000  0.73350000  0.02461000  1
  C  C83  1  0.30960000  0.23350000  0.02461000  1
  C  C84  1  0.24090000  0.29910000  0.02628000  1
  C  C85  1  0.25910000  0.79910000  0.02628000  1
  C  C86  1  0.73660000  0.53890000  0.04670000  1
  C  C87  1  0.76340000  0.03890000  0.04670000  1
  C  C88  1  0.09130000  0.62187000  0.05704000  1
  C  C89  1  0.40870000  0.12187000  0.05704000  1
  C  C90  1  0.16590000  0.69380000  0.05955000  1
  C  C91  1  0.33410000  0.19380000  0.05955000  1
  C  C92  1  0.19270000  0.32609000  0.06275000  1
  C  C93  1  0.30730000  0.82609000  0.06275000  1
  C  C94  1  0.11860000  0.39724000  0.06399000  1
  C  C95  1  0.38140000  0.89724000  0.06399000  1
  C  C96  1  0.21290000  0.72040000  0.09604000  1
  C  C97  1  0.28710000  0.22040000  0.09604000  1
  C  C98  1  0.21740000  0.28590000  0.09751000  1
  C  C99  1  0.28260000  0.78590000  0.09751000  1
  C  C100  1  0.60860000  0.00750000  0.17388000  1
  C  C101  1  0.89140000  0.50750000  0.17388000  1
  C  C102  1  0.68270000  0.00380000  0.21329000  1
  C  C103  1  0.81730000  0.50380000  0.21329000  1
  C  C104  1  0.67910000  0.50390000  0.21467000  1
  C  C105  1  0.82090000  0.00390000  0.21467000  1
  C  C106  1  0.61320000  0.00370000  0.24900000  1
  C  C107  1  0.88680000  0.50370000  0.24900000  1
  C  C108  1  0.61320000  0.50370000  0.25100000  1
  C  C109  1  0.88680000  0.00370000  0.25100000  1
  C  C110  1  0.67910000  0.00390000  0.28533000  1
  C  C111  1  0.82090000  0.50390000  0.28533000  1
  C  C112  1  0.68270000  0.50380000  0.28671000  1
  C  C113  1  0.81730000  0.00380000  0.28671000  1
  C  C114  1  0.60860000  0.50750000  0.32612000  1
  C  C115  1  0.89140000  0.00750000  0.32612000  1
  C  C116  1  0.21740000  0.78590000  0.40249000  1
  C  C117  1  0.28260000  0.28590000  0.40249000  1
  C  C118  1  0.21290000  0.22040000  0.40396000  1
  C  C119  1  0.28710000  0.72040000  0.40396000  1
  C  C120  1  0.11860000  0.89724000  0.43601000  1
  C  C121  1  0.38140000  0.39724000  0.43601000  1
  C  C122  1  0.19270000  0.82609000  0.43725000  1
  C  C123  1  0.30730000  0.32609000  0.43725000  1
  C  C124  1  0.16590000  0.19380000  0.44045000  1
  C  C125  1  0.33410000  0.69380000  0.44045000  1
  C  C126  1  0.09130000  0.12187000  0.44296000  1
  C  C127  1  0.40870000  0.62187000  0.44296000  1
  C  C128  1  0.73660000  0.03890000  0.45330000  1
  C  C129  1  0.76340000  0.53890000  0.45330000  1
  C  C130  1  0.24090000  0.79910000  0.47372000  1
  C  C131  1  0.25910000  0.29910000  0.47372000  1
  C  C132  1  0.19040000  0.23350000  0.47539000  1
  C  C133  1  0.30960000  0.73350000  0.47539000  1
  C  C134  1  0.61610000  0.01910000  0.47864000  1
  C  C135  1  0.88390000  0.51910000  0.47864000  1
  C  C136  1  0.50650000  0.06670000  0.48044000  1
  C  C137  1  0.99350000  0.56670000  0.48044000  1
  C  C138  1  0.60920000  0.95210000  0.49839000  1
  C  C139  1  0.89080000  0.45210000  0.49839000  1
  C  C140  1  0.10920000  0.54790000  0.50161000  1
  C  C141  1  0.39080000  0.04790000  0.50161000  1
  C  C142  1  0.00650000  0.43330000  0.51956000  1
  C  C143  1  0.49350000  0.93330000  0.51956000  1
  C  C144  1  0.11610000  0.48090000  0.52136000  1
  C  C145  1  0.38390000  0.98090000  0.52136000  1
  C  C146  1  0.69040000  0.26650000  0.52461000  1
  C  C147  1  0.80960000  0.76650000  0.52461000  1
  C  C148  1  0.74090000  0.70090000  0.52628000  1
  C  C149  1  0.75910000  0.20090000  0.52628000  1
  C  C150  1  0.23660000  0.46110000  0.54670000  1
  C  C151  1  0.26340000  0.96110000  0.54670000  1
  C  C152  1  0.59130000  0.37813000  0.55704000  1
  C  C153  1  0.90870000  0.87813000  0.55704000  1
  C  C154  1  0.66590000  0.30620000  0.55955000  1
  C  C155  1  0.83410000  0.80620000  0.55955000  1
  C  C156  1  0.69270000  0.67391000  0.56275000  1
  C  C157  1  0.80730000  0.17391000  0.56275000  1
  C  C158  1  0.61860000  0.60276000  0.56399000  1
  C  C159  1  0.88140000  0.10276000  0.56399000  1
  C  C160  1  0.71290000  0.27960000  0.59604000  1
  C  C161  1  0.78710000  0.77960000  0.59604000  1
  C  C162  1  0.71740000  0.71410000  0.59751000  1
  C  C163  1  0.78260000  0.21410000  0.59751000  1
  C  C164  1  0.10860000  0.99250000  0.67388000  1
  C  C165  1  0.39140000  0.49250000  0.67388000  1
  C  C166  1  0.18270000  0.99620000  0.71329000  1
  C  C167  1  0.31730000  0.49620000  0.71329000  1
  C  C168  1  0.17910000  0.49610000  0.71467000  1
  C  C169  1  0.32090000  0.99610000  0.71467000  1
  C  C170  1  0.11320000  0.99630000  0.74900000  1
  C  C171  1  0.38680000  0.49630000  0.74900000  1
  C  C172  1  0.11320000  0.49630000  0.75100000  1
  C  C173  1  0.38680000  0.99630000  0.75100000  1
  C  C174  1  0.17910000  0.99610000  0.78533000  1
  C  C175  1  0.32090000  0.49610000  0.78533000  1
  C  C176  1  0.18270000  0.49620000  0.78671000  1
  C  C177  1  0.31730000  0.99620000  0.78671000  1
  C  C178  1  0.10860000  0.49250000  0.82612000  1
  C  C179  1  0.39140000  0.99250000  0.82612000  1
  C  C180  1  0.71740000  0.21410000  0.90249000  1
  C  C181  1  0.78260000  0.71410000  0.90249000  1
  C  C182  1  0.71290000  0.77960000  0.90396000  1
  C  C183  1  0.78710000  0.27960000  0.90396000  1
  C  C184  1  0.61860000  0.10276000  0.93601000  1
  C  C185  1  0.88140000  0.60276000  0.93601000  1
  C  C186  1  0.69270000  0.17391000  0.93725000  1
  C  C187  1  0.80730000  0.67391000  0.93725000  1
  C  C188  1  0.66590000  0.80620000  0.94045000  1
  C  C189  1  0.83410000  0.30620000  0.94045000  1
  C  C190  1  0.59130000  0.87813000  0.94296000  1
  C  C191  1  0.90870000  0.37813000  0.94296000  1
  C  C192  1  0.23660000  0.96110000  0.95330000  1
  C  C193  1  0.26340000  0.46110000  0.95330000  1
  C  C194  1  0.74090000  0.20090000  0.97372000  1
  C  C195  1  0.75910000  0.70090000  0.97372000  1
  C  C196  1  0.69040000  0.76650000  0.97539000  1
  C  C197  1  0.80960000  0.26650000  0.97539000  1
  C  C198  1  0.11610000  0.98090000  0.97864000  1
  C  C199  1  0.38390000  0.48090000  0.97864000  1
  C  C200  1  0.00650000  0.93330000  0.98044000  1
  C  C201  1  0.49350000  0.43330000  0.98044000  1
  C  C202  1  0.10920000  0.04790000  0.99839000  1
  C  C203  1  0.39080000  0.54790000  0.99839000  1
  O  O204  1  0.06520000  0.59780000  0.02308000  1
  O  O205  1  0.43480000  0.09780000  0.02308000  1
  O  O206  1  0.12940000  0.43921000  0.03485000  1
  O  O207  1  0.37060000  0.93921000  0.03485000  1
  O  O208  1  0.66220000  0.99259000  0.04650000  1
  O  O209  1  0.83780000  0.49259000  0.04650000  1
  O  O210  1  0.73650000  0.59416000  0.06736000  1
  O  O211  1  0.76350000  0.09416000  0.06736000  1
  O  O212  1  0.06190000  0.59219000  0.09030000  1
  O  O213  1  0.43810000  0.09219000  0.09030000  1
  O  O214  1  0.04980000  0.41035000  0.09542000  1
  O  O215  1  0.45020000  0.91035000  0.09542000  1
  O  O216  1  0.67360000  0.99709000  0.14277000  1
  O  O217  1  0.82640000  0.49709000  0.14277000  1
  O  O218  1  0.01310000  0.52120000  0.17347000  1
  O  O219  1  0.48690000  0.02120000  0.17347000  1
  O  O220  1  0.01310000  0.02120000  0.32653000  1
  O  O221  1  0.48690000  0.52120000  0.32653000  1
  O  O222  1  0.67360000  0.49709000  0.35723000  1
  O  O223  1  0.82640000  0.99709000  0.35723000  1
  O  O224  1  0.04980000  0.91035000  0.40458000  1
  O  O225  1  0.45020000  0.41035000  0.40458000  1
  O  O226  1  0.06190000  0.09219000  0.40970000  1
  O  O227  1  0.43810000  0.59219000  0.40970000  1
  O  O228  1  0.73650000  0.09416000  0.43264000  1
  O  O229  1  0.76350000  0.59416000  0.43264000  1
  O  O230  1  0.66220000  0.49259000  0.45350000  1
  O  O231  1  0.83780000  0.99259000  0.45350000  1
  O  O232  1  0.12940000  0.93921000  0.46515000  1
  O  O233  1  0.37060000  0.43921000  0.46515000  1
  O  O234  1  0.06520000  0.09780000  0.47692000  1
  O  O235  1  0.43480000  0.59780000  0.47692000  1
  O  O236  1  0.56520000  0.40220000  0.52308000  1
  O  O237  1  0.93480000  0.90220000  0.52308000  1
  O  O238  1  0.62940000  0.56079000  0.53485000  1
  O  O239  1  0.87060000  0.06079000  0.53485000  1
  O  O240  1  0.16220000  0.00741000  0.54650000  1
  O  O241  1  0.33780000  0.50741000  0.54650000  1
  O  O242  1  0.23650000  0.40584000  0.56736000  1
  O  O243  1  0.26350000  0.90584000  0.56736000  1
  O  O244  1  0.56190000  0.40781000  0.59030000  1
  O  O245  1  0.93810000  0.90781000  0.59030000  1
  O  O246  1  0.54980000  0.58965000  0.59542000  1
  O  O247  1  0.95020000  0.08965000  0.59542000  1
  O  O248  1  0.17360000  0.00291000  0.64277000  1
  O  O249  1  0.32640000  0.50291000  0.64277000  1
  O  O250  1  0.51310000  0.47880000  0.67347000  1
  O  O251  1  0.98690000  0.97880000  0.67347000  1
  O  O252  1  0.51310000  0.97880000  0.82653000  1
  O  O253  1  0.98690000  0.47880000  0.82653000  1
  O  O254  1  0.17360000  0.50291000  0.85723000  1
  O  O255  1  0.32640000  0.00291000  0.85723000  1
  O  O256  1  0.54980000  0.08965000  0.90458000  1
  O  O257  1  0.95020000  0.58965000  0.90458000  1
  O  O258  1  0.56190000  0.90781000  0.90970000  1
  O  O259  1  0.93810000  0.40781000  0.90970000  1
  O  O260  1  0.23650000  0.90584000  0.93264000  1
  O  O261  1  0.26350000  0.40584000  0.93264000  1
  O  O262  1  0.16220000  0.50741000  0.95350000  1
  O  O263  1  0.33780000  0.00741000  0.95350000  1
  O  O264  1  0.62940000  0.06079000  0.96515000  1
  O  O265  1  0.87060000  0.56079000  0.96515000  1
  O  O266  1  0.56520000  0.90220000  0.97692000  1
  O  O267  1  0.93480000  0.40220000  0.97692000  1
