# generated using pymatgen
data_ZnH32C41N3O8
_symmetry_space_group_name_H-M   'P 1'
_cell_length_a   11.42210000
_cell_length_b   19.06470000
_cell_length_c   21.27420000
_cell_angle_alpha   90.00000000
_cell_angle_beta   90.00000000
_cell_angle_gamma   95.41920000
_symmetry_Int_Tables_number   1
_chemical_formula_structural   ZnH32C41N3O8
_chemical_formula_sum   'Zn4 H128 C164 N12 O32'
_cell_volume   4611.94039667
_cell_formula_units_Z   4
loop_
 _symmetry_equiv_pos_site_id
 _symmetry_equiv_pos_as_xyz
  1  'x, y, z'
loop_
 _atom_site_type_symbol
 _atom_site_label
 _atom_site_symmetry_multiplicity
 _atom_site_fract_x
 _atom_site_fract_y
 _atom_site_fract_z
 _atom_site_occupancy
  Zn  Zn0  1  0.61566000  0.08484000  0.98653000  1
  Zn  Zn1  1  0.61566000  0.58484000  0.51347000  1
  Zn  Zn2  1  0.38434000  0.41516000  0.48653000  1
  Zn  Zn3  1  0.38434000  0.91516000  0.01347000  1
  H  H4  1  0.97286000  0.21764000  0.88489000  1
  H  H5  1  0.97286000  0.71764000  0.61511000  1
  H  H6  1  0.97231000  0.96996000  0.39431000  1
  H  H7  1  0.97231000  0.46996000  0.10569000  1
  H  H8  1  0.96832000  0.01676000  0.94696000  1
  H  H9  1  0.96832000  0.51676000  0.55304000  1
  H  H10  1  0.94910000  0.60829000  0.96274000  1
  H  H11  1  0.94910000  0.10829000  0.53726000  1
  H  H12  1  0.91317000  0.10243000  0.78120000  1
  H  H13  1  0.91317000  0.60243000  0.71880000  1
  H  H14  1  0.89735000  0.02488000  0.75100000  1
  H  H15  1  0.89735000  0.52488000  0.74900000  1
  H  H16  1  0.88546000  0.40746000  0.28098000  1
  H  H17  1  0.88546000  0.90746000  0.21902000  1
  H  H18  1  0.87719000  0.97482000  0.26362000  1
  H  H19  1  0.87719000  0.47482000  0.23638000  1
  H  H20  1  0.82882000  0.47828000  0.43367000  1
  H  H21  1  0.82882000  0.97828000  0.06633000  1
  H  H22  1  0.82727000  0.64190000  0.81759000  1
  H  H23  1  0.82727000  0.14190000  0.68241000  1
  H  H24  1  0.79913000  0.02460000  0.36283000  1
  H  H25  1  0.79913000  0.52460000  0.13717000  1
  H  H26  1  0.79689000  0.83540000  0.30185000  1
  H  H27  1  0.79689000  0.33540000  0.19815000  1
  H  H28  1  0.77611000  0.91433000  0.47608000  1
  H  H29  1  0.77611000  0.41433000  0.02392000  1
  H  H30  1  0.73783000  0.60072000  0.76894000  1
  H  H31  1  0.73783000  0.10072000  0.73106000  1
  H  H32  1  0.73279000  0.46078000  0.93199000  1
  H  H33  1  0.73279000  0.96078000  0.56801000  1
  H  H34  1  0.72385000  0.37461000  0.39926000  1
  H  H35  1  0.72385000  0.87461000  0.10074000  1
  H  H36  1  0.71705000  0.82579000  0.39900000  1
  H  H37  1  0.71705000  0.32579000  0.10100000  1
  H  H38  1  0.71052000  0.88848000  0.27263000  1
  H  H39  1  0.71052000  0.38848000  0.22737000  1
  H  H40  1  0.69026000  0.30230000  0.30468000  1
  H  H41  1  0.69026000  0.80230000  0.19532000  1
  H  H42  1  0.68438000  0.65936000  0.87523000  1
  H  H43  1  0.68438000  0.15936000  0.62477000  1
  H  H44  1  0.65653000  0.59952000  0.32138000  1
  H  H45  1  0.65653000  0.09952000  0.17862000  1
  H  H46  1  0.64756000  0.87549000  0.48990000  1
  H  H47  1  0.64756000  0.37549000  0.01010000  1
  H  H48  1  0.61230000  0.87159000  0.37871000  1
  H  H49  1  0.61230000  0.37159000  0.12129000  1
  H  H50  1  0.59760000  0.20446000  0.25616000  1
  H  H51  1  0.59760000  0.70446000  0.24384000  1
  H  H52  1  0.57743000  0.09165000  0.45124000  1
  H  H53  1  0.57743000  0.59165000  0.04876000  1
  H  H54  1  0.57620000  0.20200000  0.42726000  1
  H  H55  1  0.57620000  0.70200000  0.07274000  1
  H  H56  1  0.57119000  0.01448000  0.34785000  1
  H  H57  1  0.57119000  0.51448000  0.15215000  1
  H  H58  1  0.55373000  0.73255000  0.88522000  1
  H  H59  1  0.55373000  0.23255000  0.61478000  1
  H  H60  1  0.54048000  0.66962000  0.40528000  1
  H  H61  1  0.54048000  0.16962000  0.09472000  1
  H  H62  1  0.54026000  0.08783000  0.81040000  1
  H  H63  1  0.54026000  0.58783000  0.68960000  1
  H  H64  1  0.52474000  0.58413000  0.79859000  1
  H  H65  1  0.52474000  0.08413000  0.70141000  1
  H  H66  1  0.51874000  0.19895000  0.91269000  1
  H  H67  1  0.51874000  0.69895000  0.58731000  1
  H  H68  1  0.48126000  0.30105000  0.41269000  1
  H  H69  1  0.48126000  0.80105000  0.08731000  1
  H  H70  1  0.47526000  0.91587000  0.29859000  1
  H  H71  1  0.47526000  0.41587000  0.20141000  1
  H  H72  1  0.45974000  0.41217000  0.31040000  1
  H  H73  1  0.45974000  0.91217000  0.18960000  1
  H  H74  1  0.45952000  0.83038000  0.90528000  1
  H  H75  1  0.45952000  0.33038000  0.59472000  1
  H  H76  1  0.44627000  0.76745000  0.38522000  1
  H  H77  1  0.44627000  0.26745000  0.11478000  1
  H  H78  1  0.42881000  0.48552000  0.84785000  1
  H  H79  1  0.42881000  0.98552000  0.65215000  1
  H  H80  1  0.42380000  0.29800000  0.92726000  1
  H  H81  1  0.42380000  0.79800000  0.57274000  1
  H  H82  1  0.42257000  0.40835000  0.95124000  1
  H  H83  1  0.42257000  0.90835000  0.54876000  1
  H  H84  1  0.40240000  0.29554000  0.75616000  1
  H  H85  1  0.40240000  0.79554000  0.74384000  1
  H  H86  1  0.38770000  0.62841000  0.87871000  1
  H  H87  1  0.38770000  0.12841000  0.62129000  1
  H  H88  1  0.35244000  0.62451000  0.98990000  1
  H  H89  1  0.35244000  0.12451000  0.51010000  1
  H  H90  1  0.34347000  0.90048000  0.82138000  1
  H  H91  1  0.34347000  0.40048000  0.67862000  1
  H  H92  1  0.31562000  0.84064000  0.37523000  1
  H  H93  1  0.31562000  0.34064000  0.12477000  1
  H  H94  1  0.30974000  0.19770000  0.80468000  1
  H  H95  1  0.30974000  0.69770000  0.69532000  1
  H  H96  1  0.28948000  0.61152000  0.77263000  1
  H  H97  1  0.28948000  0.11152000  0.72737000  1
  H  H98  1  0.28295000  0.67421000  0.89900000  1
  H  H99  1  0.28295000  0.17421000  0.60100000  1
  H  H100  1  0.27615000  0.12539000  0.89926000  1
  H  H101  1  0.27615000  0.62539000  0.60074000  1
  H  H102  1  0.26721000  0.03922000  0.43199000  1
  H  H103  1  0.26721000  0.53922000  0.06801000  1
  H  H104  1  0.26217000  0.89928000  0.26894000  1
  H  H105  1  0.26217000  0.39928000  0.23106000  1
  H  H106  1  0.22389000  0.58567000  0.97608000  1
  H  H107  1  0.22389000  0.08567000  0.52392000  1
  H  H108  1  0.20311000  0.66460000  0.80185000  1
  H  H109  1  0.20311000  0.16460000  0.69815000  1
  H  H110  1  0.20087000  0.47540000  0.86283000  1
  H  H111  1  0.20087000  0.97540000  0.63717000  1
  H  H112  1  0.17273000  0.85810000  0.31759000  1
  H  H113  1  0.17273000  0.35810000  0.18241000  1
  H  H114  1  0.17118000  0.02172000  0.93367000  1
  H  H115  1  0.17118000  0.52172000  0.56633000  1
  H  H116  1  0.12281000  0.52518000  0.76362000  1
  H  H117  1  0.12281000  0.02518000  0.73638000  1
  H  H118  1  0.11454000  0.09254000  0.78098000  1
  H  H119  1  0.11454000  0.59254000  0.71902000  1
  H  H120  1  0.10265000  0.47512000  0.25100000  1
  H  H121  1  0.10265000  0.97512000  0.24900000  1
  H  H122  1  0.08683000  0.39757000  0.28120000  1
  H  H123  1  0.08683000  0.89757000  0.21880000  1
  H  H124  1  0.05090000  0.89171000  0.46274000  1
  H  H125  1  0.05090000  0.39171000  0.03726000  1
  H  H126  1  0.03168000  0.48324000  0.44696000  1
  H  H127  1  0.03168000  0.98324000  0.05304000  1
  H  H128  1  0.02769000  0.53004000  0.89431000  1
  H  H129  1  0.02769000  0.03004000  0.60569000  1
  H  H130  1  0.02714000  0.28236000  0.38489000  1
  H  H131  1  0.02714000  0.78236000  0.11511000  1
  C  C132  1  0.98980000  0.44130000  0.43170000  1
  C  C133  1  0.98980000  0.94130000  0.06830000  1
  C  C134  1  0.98640000  0.32213000  0.39488000  1
  C  C135  1  0.98640000  0.82213000  0.10512000  1
  C  C136  1  0.98340000  0.98220000  0.43733000  1
  C  C137  1  0.98340000  0.48220000  0.06267000  1
  C  C138  1  0.96960000  0.56420000  0.97797000  1
  C  C139  1  0.96960000  0.06420000  0.52203000  1
  C  C140  1  0.95220000  0.04706000  0.45917000  1
  C  C141  1  0.95220000  0.54706000  0.04083000  1
  C  C142  1  0.95040000  0.11600000  0.91727000  1
  C  C143  1  0.95040000  0.61600000  0.58273000  1
  C  C144  1  0.90770000  0.57580000  0.75880000  1
  C  C145  1  0.90770000  0.07580000  0.74120000  1
  C  C146  1  0.89390000  0.09457000  0.41767000  1
  C  C147  1  0.89390000  0.59457000  0.08233000  1
  C  C148  1  0.88420000  0.92350000  0.26330000  1
  C  C149  1  0.88420000  0.42350000  0.23670000  1
  C  C150  1  0.86920000  0.43820000  0.42420000  1
  C  C151  1  0.86920000  0.93820000  0.07580000  1
  C  C152  1  0.86500000  0.31850000  0.38717000  1
  C  C153  1  0.86500000  0.81850000  0.11283000  1
  C  C154  1  0.82670000  0.18568000  0.37653000  1
  C  C155  1  0.82670000  0.68568000  0.12347000  1
  C  C156  1  0.82000000  0.11630000  0.92830000  1
  C  C157  1  0.82000000  0.61630000  0.57170000  1
  C  C158  1  0.80700000  0.37680000  0.40300000  1
  C  C159  1  0.80700000  0.87680000  0.09700000  1
  C  C160  1  0.80640000  0.59610000  0.79660000  1
  C  C161  1  0.80640000  0.09610000  0.70340000  1
  C  C162  1  0.80050000  0.25378000  0.36064000  1
  C  C163  1  0.80050000  0.75378000  0.13936000  1
  C  C164  1  0.78370000  0.88570000  0.29710000  1
  C  C165  1  0.78370000  0.38570000  0.20290000  1
  C  C166  1  0.76970000  0.12633000  0.34654000  1
  C  C167  1  0.76970000  0.62633000  0.15346000  1
  C  C168  1  0.71940000  0.55940000  0.89550000  1
  C  C169  1  0.71940000  0.05940000  0.60450000  1
  C  C170  1  0.71290000  0.25730000  0.31586000  1
  C  C171  1  0.71290000  0.75730000  0.18414000  1
  C  C172  1  0.70680000  0.50570000  0.94070000  1
  C  C173  1  0.70680000  0.00570000  0.55930000  1
  C  C174  1  0.69450000  0.90660000  0.46020000  1
  C  C175  1  0.69450000  0.40660000  0.03980000  1
  C  C176  1  0.69280000  0.87420000  0.39640000  1
  C  C177  1  0.69280000  0.37420000  0.10360000  1
  C  C178  1  0.68390000  0.13085000  0.30002000  1
  C  C179  1  0.68390000  0.63085000  0.19998000  1
  C  C180  1  0.67730000  0.62350000  0.90640000  1
  C  C181  1  0.67730000  0.12350000  0.59360000  1
  C  C182  1  0.65670000  0.19820000  0.28652000  1
  C  C183  1  0.65670000  0.69820000  0.21348000  1
  C  C184  1  0.65640000  0.51860000  0.99790000  1
  C  C185  1  0.65640000  0.01860000  0.50210000  1
  C  C186  1  0.62350000  0.06723000  0.26873000  1
  C  C187  1  0.62350000  0.56723000  0.23127000  1
  C  C188  1  0.62310000  0.63530000  0.96480000  1
  C  C189  1  0.62310000  0.13530000  0.53520000  1
  C  C190  1  0.61840000  0.56264000  0.29665000  1
  C  C191  1  0.61840000  0.06264000  0.20335000  1
  C  C192  1  0.61350000  0.08340000  0.49040000  1
  C  C193  1  0.61350000  0.58340000  0.00960000  1
  C  C194  1  0.57250000  0.70260000  0.97612000  1
  C  C195  1  0.57250000  0.20260000  0.52388000  1
  C  C196  1  0.56880000  0.01230000  0.30325000  1
  C  C197  1  0.56880000  0.51230000  0.19675000  1
  C  C198  1  0.55870000  0.50507000  0.32611000  1
  C  C199  1  0.55870000  0.00507000  0.17389000  1
  C  C200  1  0.55150000  0.22700000  0.46270000  1
  C  C201  1  0.55150000  0.72700000  0.03730000  1
  C  C202  1  0.54840000  0.50220000  0.39643000  1
  C  C203  1  0.54840000  0.00220000  0.10357000  1
  C  C204  1  0.53840000  0.74480000  0.92750000  1
  C  C205  1  0.53840000  0.24480000  0.57250000  1
  C  C206  1  0.51670000  0.69650000  0.43980000  1
  C  C207  1  0.51670000  0.19650000  0.06020000  1
  C  C208  1  0.51020000  0.95380000  0.27399000  1
  C  C209  1  0.51020000  0.45380000  0.22601000  1
  C  C210  1  0.50420000  0.21350000  0.95450000  1
  C  C211  1  0.50420000  0.71350000  0.54550000  1
  C  C212  1  0.50290000  0.45100000  0.29041000  1
  C  C213  1  0.50290000  0.95100000  0.20959000  1
  C  C214  1  0.49710000  0.04900000  0.79041000  1
  C  C215  1  0.49710000  0.54900000  0.70959000  1
  C  C216  1  0.49580000  0.28650000  0.45450000  1
  C  C217  1  0.49580000  0.78650000  0.04550000  1
  C  C218  1  0.48980000  0.54620000  0.77399000  1
  C  C219  1  0.48980000  0.04620000  0.72601000  1
  C  C220  1  0.48330000  0.80350000  0.93980000  1
  C  C221  1  0.48330000  0.30350000  0.56020000  1
  C  C222  1  0.46160000  0.75520000  0.42750000  1
  C  C223  1  0.46160000  0.25520000  0.07250000  1
  C  C224  1  0.45160000  0.99780000  0.89643000  1
  C  C225  1  0.45160000  0.49780000  0.60357000  1
  C  C226  1  0.44850000  0.27300000  0.96270000  1
  C  C227  1  0.44850000  0.77300000  0.53730000  1
  C  C228  1  0.44130000  0.99493000  0.82611000  1
  C  C229  1  0.44130000  0.49493000  0.67389000  1
  C  C230  1  0.43120000  0.48770000  0.80325000  1
  C  C231  1  0.43120000  0.98770000  0.69675000  1
  C  C232  1  0.42750000  0.79740000  0.47612000  1
  C  C233  1  0.42750000  0.29740000  0.02388000  1
  C  C234  1  0.38650000  0.41660000  0.99040000  1
  C  C235  1  0.38650000  0.91660000  0.50960000  1
  C  C236  1  0.38160000  0.93736000  0.79665000  1
  C  C237  1  0.38160000  0.43736000  0.70335000  1
  C  C238  1  0.37690000  0.86470000  0.46480000  1
  C  C239  1  0.37690000  0.36470000  0.03520000  1
  C  C240  1  0.37650000  0.43277000  0.76873000  1
  C  C241  1  0.37650000  0.93277000  0.73127000  1
  C  C242  1  0.34360000  0.98140000  0.49790000  1
  C  C243  1  0.34360000  0.48140000  0.00210000  1
  C  C244  1  0.34330000  0.30180000  0.78652000  1
  C  C245  1  0.34330000  0.80180000  0.71348000  1
  C  C246  1  0.32270000  0.87650000  0.40640000  1
  C  C247  1  0.32270000  0.37650000  0.09360000  1
  C  C248  1  0.31610000  0.36915000  0.80002000  1
  C  C249  1  0.31610000  0.86915000  0.69998000  1
  C  C250  1  0.30720000  0.62580000  0.89640000  1
  C  C251  1  0.30720000  0.12580000  0.60360000  1
  C  C252  1  0.30550000  0.59340000  0.96020000  1
  C  C253  1  0.30550000  0.09340000  0.53980000  1
  C  C254  1  0.29320000  0.99430000  0.44070000  1
  C  C255  1  0.29320000  0.49430000  0.05930000  1
  C  C256  1  0.28710000  0.24270000  0.81586000  1
  C  C257  1  0.28710000  0.74270000  0.68414000  1
  C  C258  1  0.28060000  0.94060000  0.39550000  1
  C  C259  1  0.28060000  0.44060000  0.10450000  1
  C  C260  1  0.23030000  0.37367000  0.84654000  1
  C  C261  1  0.23030000  0.87367000  0.65346000  1
  C  C262  1  0.21630000  0.61430000  0.79710000  1
  C  C263  1  0.21630000  0.11430000  0.70290000  1
  C  C264  1  0.19950000  0.24622000  0.86064000  1
  C  C265  1  0.19950000  0.74622000  0.63936000  1
  C  C266  1  0.19360000  0.90390000  0.29660000  1
  C  C267  1  0.19360000  0.40390000  0.20340000  1
  C  C268  1  0.19300000  0.12320000  0.90300000  1
  C  C269  1  0.19300000  0.62320000  0.59700000  1
  C  C270  1  0.18000000  0.38370000  0.42830000  1
  C  C271  1  0.18000000  0.88370000  0.07170000  1
  C  C272  1  0.17330000  0.31432000  0.87653000  1
  C  C273  1  0.17330000  0.81432000  0.62347000  1
  C  C274  1  0.13500000  0.18150000  0.88717000  1
  C  C275  1  0.13500000  0.68150000  0.61283000  1
  C  C276  1  0.13080000  0.06180000  0.92420000  1
  C  C277  1  0.13080000  0.56180000  0.57580000  1
  C  C278  1  0.11580000  0.57650000  0.76330000  1
  C  C279  1  0.11580000  0.07650000  0.73670000  1
  C  C280  1  0.10610000  0.40543000  0.91767000  1
  C  C281  1  0.10610000  0.90543000  0.58233000  1
  C  C282  1  0.09230000  0.92420000  0.25880000  1
  C  C283  1  0.09230000  0.42420000  0.24120000  1
  C  C284  1  0.04960000  0.38400000  0.41727000  1
  C  C285  1  0.04960000  0.88400000  0.08273000  1
  C  C286  1  0.04780000  0.45294000  0.95917000  1
  C  C287  1  0.04780000  0.95294000  0.54083000  1
  C  C288  1  0.03040000  0.93580000  0.47797000  1
  C  C289  1  0.03040000  0.43580000  0.02203000  1
  C  C290  1  0.01660000  0.51780000  0.93733000  1
  C  C291  1  0.01660000  0.01780000  0.56267000  1
  C  C292  1  0.01360000  0.17787000  0.89488000  1
  C  C293  1  0.01360000  0.67787000  0.60512000  1
  C  C294  1  0.01020000  0.05870000  0.93170000  1
  C  C295  1  0.01020000  0.55870000  0.56830000  1
  N  N296  1  0.90480000  0.16391000  0.42197000  1
  N  N297  1  0.90480000  0.66391000  0.07803000  1
  N  N298  1  0.81630000  0.06913000  0.37298000  1
  N  N299  1  0.81630000  0.56913000  0.12702000  1
  N  N300  1  0.53940000  0.67452000  0.49851000  1
  N  N301  1  0.53940000  0.17452000  0.00149000  1
  N  N302  1  0.46060000  0.82548000  0.99851000  1
  N  N303  1  0.46060000  0.32548000  0.50149000  1
  N  N304  1  0.18370000  0.43087000  0.87298000  1
  N  N305  1  0.18370000  0.93087000  0.62702000  1
  N  N306  1  0.09520000  0.33609000  0.92197000  1
  N  N307  1  0.09520000  0.83609000  0.57803000  1
  O  O308  1  0.98950000  0.90840000  0.29453000  1
  O  O309  1  0.98950000  0.40840000  0.20547000  1
  O  O310  1  0.77830000  0.54245000  0.84237000  1
  O  O311  1  0.77830000  0.04245000  0.65763000  1
  O  O312  1  0.77440000  0.06814000  0.96465000  1
  O  O313  1  0.77440000  0.56814000  0.53535000  1
  O  O314  1  0.77170000  0.91634000  0.35707000  1
  O  O315  1  0.77170000  0.41634000  0.14293000  1
  O  O316  1  0.76340000  0.16174000  0.90544000  1
  O  O317  1  0.76340000  0.66174000  0.59456000  1
  O  O318  1  0.64520000  0.97185000  0.45399000  1
  O  O319  1  0.64520000  0.47185000  0.04601000  1
  O  O320  1  0.60280000  0.54957000  0.42698000  1
  O  O321  1  0.60280000  0.04957000  0.07302000  1
  O  O322  1  0.51070000  0.04851000  0.91988000  1
  O  O323  1  0.51070000  0.54851000  0.58012000  1
  O  O324  1  0.48930000  0.45149000  0.41988000  1
  O  O325  1  0.48930000  0.95149000  0.08012000  1
  O  O326  1  0.39720000  0.95043000  0.92698000  1
  O  O327  1  0.39720000  0.45043000  0.57302000  1
  O  O328  1  0.35480000  0.52815000  0.95399000  1
  O  O329  1  0.35480000  0.02815000  0.54601000  1
  O  O330  1  0.23660000  0.33826000  0.40544000  1
  O  O331  1  0.23660000  0.83826000  0.09456000  1
  O  O332  1  0.22830000  0.58366000  0.85707000  1
  O  O333  1  0.22830000  0.08366000  0.64293000  1
  O  O334  1  0.22560000  0.43186000  0.46465000  1
  O  O335  1  0.22560000  0.93186000  0.03535000  1
  O  O336  1  0.22170000  0.95755000  0.34237000  1
  O  O337  1  0.22170000  0.45755000  0.15763000  1
  O  O338  1  0.01050000  0.59160000  0.79453000  1
  O  O339  1  0.01050000  0.09160000  0.70547000  1
