# generated using pymatgen
data_InH5C8O5
_symmetry_space_group_name_H-M   'P 1'
_cell_length_a   11.97010000
_cell_length_b   18.22800000
_cell_length_c   28.77382350
_cell_angle_alpha   90.00147155
_cell_angle_beta   90.00000000
_cell_angle_gamma   90.00000000
_symmetry_Int_Tables_number   1
_chemical_formula_structural   InH5C8O5
_chemical_formula_sum   'In16 H80 C128 O80'
_cell_volume   6278.18882613
_cell_formula_units_Z   16
loop_
 _symmetry_equiv_pos_site_id
 _symmetry_equiv_pos_as_xyz
  1  'x, y, z'
loop_
 _atom_site_type_symbol
 _atom_site_label
 _atom_site_symmetry_multiplicity
 _atom_site_fract_x
 _atom_site_fract_y
 _atom_site_fract_z
 _atom_site_occupancy
  In  In0  1  0.00000000  0.00000000  0.00000000  1
  In  In1  1  0.50000000  0.50000000  0.50000000  1
  In  In2  1  0.49447000  0.49972000  0.37534000  1
  In  In3  1  0.00553000  0.99972000  0.87534000  1
  In  In4  1  0.49281000  0.49950000  0.24968000  1
  In  In5  1  0.00719000  0.99950000  0.74968000  1
  In  In6  1  0.49530000  0.49958000  0.12514000  1
  In  In7  1  0.00470000  0.99958000  0.62514000  1
  In  In8  1  0.00000000  1.00000000  0.50000000  1
  In  In9  1  0.50000000  0.50000000  0.00000000  1
  In  In10  1  0.99530000  0.00042000  0.37486000  1
  In  In11  1  0.50470000  0.50042000  0.87486000  1
  In  In12  1  0.99281000  0.00050000  0.25032000  1
  In  In13  1  0.50719000  0.50050000  0.75032000  1
  In  In14  1  0.99447000  0.00028000  0.12466000  1
  In  In15  1  0.50553000  0.50028000  0.62466000  1
  H  H16  1  0.82660000  0.20500000  0.75730000  1
  H  H17  1  0.67340000  0.70500000  0.25730000  1
  H  H18  1  0.77810000  0.81050000  0.11750000  1
  H  H19  1  0.72190000  0.31050000  0.61750000  1
  H  H20  1  0.27460000  0.68490000  0.24300000  1
  H  H21  1  0.22540000  0.18490000  0.74300000  1
  H  H22  1  0.34080000  0.48300000  0.44000000  1
  H  H23  1  0.15920000  0.98300000  0.94000000  1
  H  H24  1  0.33540000  0.28890000  0.63170000  1
  H  H25  1  0.16460000  0.78890000  0.13170000  1
  H  H26  1  0.75510000  0.82480000  0.00590000  1
  H  H27  1  0.74490000  0.32480000  0.50590000  1
  H  H28  1  0.81250000  0.20080000  0.61800000  1
  H  H29  1  0.68750000  0.70080000  0.11800000  1
  H  H30  1  0.26300000  0.67850000  0.13140000  1
  H  H31  1  0.23700000  0.17850000  0.63140000  1
  H  H32  1  0.85800000  0.00600000  0.80000000  1
  H  H33  1  0.64200000  0.50600000  0.30000000  1
  H  H34  1  0.30050000  0.30220000  0.49390000  1
  H  H35  1  0.19950000  0.80220000  0.99390000  1
  H  H36  1  0.83360000  0.21430000  0.50690000  1
  H  H37  1  0.66640000  0.71430000  0.00690000  1
  H  H38  1  0.33900000  0.50500000  0.18300000  1
  H  H39  1  0.16100000  0.00500000  0.68300000  1
  H  H40  1  0.28690000  0.69160000  0.99280000  1
  H  H41  1  0.21310000  0.19160000  0.49280000  1
  H  H42  1  0.79680000  0.80900000  0.86790000  1
  H  H43  1  0.70320000  0.30900000  0.36790000  1
  H  H44  1  0.32450000  0.28930000  0.38230000  1
  H  H45  1  0.17550000  0.78930000  0.88230000  1
  H  H46  1  0.85000000  0.02500000  0.56400000  1
  H  H47  1  0.65000000  0.52500000  0.06400000  1
  H  H48  1  0.79100000  0.81290000  0.75690000  1
  H  H49  1  0.70900000  0.31290000  0.25690000  1
  H  H50  1  0.80000000  0.19740000  0.36900000  1
  H  H51  1  0.70000000  0.69740000  0.86900000  1
  H  H52  1  0.26810000  0.67910000  0.88160000  1
  H  H53  1  0.23190000  0.17910000  0.38160000  1
  H  H54  1  0.31010000  0.29720000  0.24260000  1
  H  H55  1  0.18990000  0.79720000  0.74260000  1
  H  H56  1  0.81010000  0.20280000  0.25740000  1
  H  H57  1  0.68990000  0.70280000  0.75740000  1
  H  H58  1  0.76810000  0.82090000  0.61840000  1
  H  H59  1  0.73190000  0.32090000  0.11840000  1
  H  H60  1  0.30000000  0.30260000  0.13100000  1
  H  H61  1  0.20000000  0.80260000  0.63100000  1
  H  H62  1  0.29100000  0.68710000  0.74310000  1
  H  H63  1  0.20900000  0.18710000  0.24310000  1
  H  H64  1  0.35000000  0.47500000  0.93600000  1
  H  H65  1  0.15000000  0.97500000  0.43600000  1
  H  H66  1  0.82450000  0.21070000  0.11770000  1
  H  H67  1  0.67550000  0.71070000  0.61770000  1
  H  H68  1  0.29680000  0.69100000  0.63210000  1
  H  H69  1  0.20320000  0.19100000  0.13210000  1
  H  H70  1  0.78690000  0.80840000  0.50720000  1
  H  H71  1  0.71310000  0.30840000  0.00720000  1
  H  H72  1  0.83900000  0.99500000  0.31700000  1
  H  H73  1  0.66100000  0.49500000  0.81700000  1
  H  H74  1  0.33360000  0.28570000  0.99310000  1
  H  H75  1  0.16640000  0.78570000  0.49310000  1
  H  H76  1  0.80050000  0.19780000  0.00610000  1
  H  H77  1  0.69950000  0.69780000  0.50610000  1
  H  H78  1  0.35800000  0.49400000  0.70000000  1
  H  H79  1  0.14200000  0.99400000  0.20000000  1
  H  H80  1  0.76300000  0.82150000  0.36860000  1
  H  H81  1  0.73700000  0.32150000  0.86860000  1
  H  H82  1  0.31250000  0.29920000  0.88200000  1
  H  H83  1  0.18750000  0.79920000  0.38200000  1
  H  H84  1  0.25510000  0.67520000  0.49410000  1
  H  H85  1  0.24490000  0.17520000  0.99410000  1
  H  H86  1  0.83540000  0.21110000  0.86830000  1
  H  H87  1  0.66460000  0.71110000  0.36830000  1
  H  H88  1  0.84080000  0.01700000  0.06000000  1
  H  H89  1  0.65920000  0.51700000  0.56000000  1
  H  H90  1  0.77460000  0.81510000  0.25700000  1
  H  H91  1  0.72540000  0.31510000  0.75700000  1
  H  H92  1  0.27810000  0.68950000  0.38250000  1
  H  H93  1  0.22190000  0.18950000  0.88250000  1
  H  H94  1  0.32660000  0.29500000  0.74270000  1
  H  H95  1  0.17340000  0.79500000  0.24270000  1
  C  C96  1  0.28370000  0.67506000  0.31264000  1
  C  C97  1  0.21630000  0.17506000  0.81264000  1
  C  C98  1  0.25500000  0.70729000  0.27091000  1
  C  C99  1  0.24500000  0.20729000  0.77091000  1
  C  C100  1  0.80410000  0.22584000  0.72936000  1
  C  C101  1  0.69590000  0.72584000  0.22936000  1
  C  C102  1  0.38720000  0.37936000  0.56334000  1
  C  C103  1  0.11280000  0.87936000  0.06334000  1
  C  C104  1  0.75780000  0.78925000  0.14565000  1
  C  C105  1  0.74220000  0.28925000  0.64565000  1
  C  C106  1  0.34760000  0.60380000  0.31250000  1
  C  C107  1  0.15240000  0.10380000  0.81250000  1
  C  C108  1  0.82820000  0.19174000  0.68816000  1
  C  C109  1  0.67180000  0.69174000  0.18816000  1
  C  C110  1  0.30910000  0.26980000  0.60380000  1
  C  C111  1  0.19090000  0.76980000  0.10380000  1
  C  C112  1  0.32750000  0.30697000  0.56333000  1
  C  C113  1  0.17250000  0.80697000  0.06333000  1
  C  C114  1  0.79630000  0.22415000  0.64595000  1
  C  C115  1  0.70370000  0.72415000  0.14595000  1
  C  C116  1  0.85370000  0.89663000  0.93657000  1
  C  C117  1  0.64630000  0.39663000  0.43657000  1
  C  C118  1  0.88890000  0.11961000  0.68779000  1
  C  C119  1  0.61110000  0.61961000  0.18779000  1
  C  C120  1  0.25090000  0.20307000  0.60363000  1
  C  C121  1  0.24910000  0.70307000  0.10363000  1
  C  C122  1  0.28920000  0.27692000  0.52158000  1
  C  C123  1  0.21080000  0.77692000  0.02158000  1
  C  C124  1  0.75430000  0.29880000  0.47840000  1
  C  C125  1  0.74570000  0.79880000  0.97840000  1
  C  C126  1  0.78680000  0.82699000  0.93691000  1
  C  C127  1  0.71320000  0.32699000  0.43691000  1
  C  C128  1  0.28560000  0.67407000  0.06213000  1
  C  C129  1  0.21440000  0.17407000  0.56213000  1
  C  C130  1  0.26420000  0.71161000  0.02099000  1
  C  C131  1  0.23580000  0.21161000  0.52099000  1
  C  C132  1  0.80810000  0.23336000  0.47884000  1
  C  C133  1  0.69190000  0.73336000  0.97884000  1
  C  C134  1  0.38190000  0.37830000  0.31300000  1
  C  C135  1  0.11810000  0.87830000  0.81300000  1
  C  C136  1  0.77020000  0.78991000  0.89579000  1
  C  C137  1  0.72980000  0.28991000  0.39579000  1
  C  C138  1  0.35060000  0.60426000  0.06214000  1
  C  C139  1  0.14940000  0.10426000  0.56214000  1
  C  C140  1  0.82590000  0.19405000  0.43755000  1
  C  C141  1  0.67410000  0.69405000  0.93755000  1
  C  C142  1  0.30180000  0.26871000  0.35429000  1
  C  C143  1  0.19820000  0.76871000  0.85429000  1
  C  C144  1  0.78760000  0.22260000  0.39660000  1
  C  C145  1  0.71240000  0.72260000  0.89660000  1
  C  C146  1  0.32410000  0.30497000  0.31223000  1
  C  C147  1  0.17590000  0.80497000  0.81223000  1
  C  C148  1  0.85570000  0.89774000  0.68776000  1
  C  C149  1  0.64430000  0.39774000  0.18776000  1
  C  C150  1  0.88400000  0.12150000  0.43850000  1
  C  C151  1  0.61600000  0.62150000  0.93850000  1
  C  C152  1  0.25330000  0.70316000  0.85374000  1
  C  C153  1  0.24670000  0.20316000  0.35374000  1
  C  C154  1  0.29270000  0.27420000  0.27060000  1
  C  C155  1  0.20730000  0.77420000  0.77060000  1
  C  C156  1  0.76630000  0.79261000  0.72909000  1
  C  C157  1  0.73370000  0.29261000  0.22909000  1
  C  C158  1  0.78760000  0.82803000  0.68807000  1
  C  C159  1  0.71240000  0.32803000  0.18807000  1
  C  C160  1  0.28760000  0.67197000  0.81193000  1
  C  C161  1  0.21240000  0.17197000  0.31193000  1
  C  C162  1  0.26630000  0.70739000  0.77091000  1
  C  C163  1  0.23370000  0.20739000  0.27091000  1
  C  C164  1  0.79270000  0.22580000  0.22940000  1
  C  C165  1  0.70730000  0.72580000  0.72940000  1
  C  C166  1  0.75330000  0.79684000  0.64626000  1
  C  C167  1  0.74670000  0.29684000  0.14626000  1
  C  C168  1  0.38400000  0.37850000  0.06150000  1
  C  C169  1  0.11600000  0.87850000  0.56150000  1
  C  C170  1  0.35570000  0.60226000  0.81224000  1
  C  C171  1  0.14430000  0.10226000  0.31224000  1
  C  C172  1  0.82410000  0.19503000  0.18777000  1
  C  C173  1  0.67590000  0.69503000  0.68777000  1
  C  C174  1  0.28760000  0.27740000  0.10340000  1
  C  C175  1  0.21240000  0.77740000  0.60340000  1
  C  C176  1  0.80180000  0.23129000  0.14571000  1
  C  C177  1  0.69820000  0.73129000  0.64571000  1
  C  C178  1  0.32590000  0.30595000  0.06245000  1
  C  C179  1  0.17410000  0.80595000  0.56245000  1
  C  C180  1  0.85060000  0.89574000  0.43786000  1
  C  C181  1  0.64940000  0.39574000  0.93786000  1
  C  C182  1  0.27020000  0.71009000  0.60421000  1
  C  C183  1  0.22980000  0.21009000  0.10421000  1
  C  C184  1  0.88190000  0.12170000  0.18700000  1
  C  C185  1  0.61810000  0.62170000  0.68700000  1
  C  C186  1  0.30810000  0.26664000  0.02116000  1
  C  C187  1  0.19190000  0.76664000  0.52116000  1
  C  C188  1  0.76420000  0.78839000  0.47901000  1
  C  C189  1  0.73580000  0.28839000  0.97901000  1
  C  C190  1  0.78560000  0.82593000  0.43787000  1
  C  C191  1  0.71440000  0.32593000  0.93787000  1
  C  C192  1  0.28680000  0.67301000  0.56309000  1
  C  C193  1  0.21320000  0.17301000  0.06309000  1
  C  C194  1  0.25430000  0.20120000  0.02160000  1
  C  C195  1  0.24570000  0.70120000  0.52160000  1
  C  C196  1  0.78920000  0.22308000  0.97842000  1
  C  C197  1  0.71080000  0.72308000  0.47842000  1
  C  C198  1  0.75090000  0.29693000  0.89637000  1
  C  C199  1  0.74910000  0.79693000  0.39637000  1
  C  C200  1  0.38890000  0.38039000  0.81221000  1
  C  C201  1  0.11110000  0.88039000  0.31221000  1
  C  C202  1  0.35370000  0.60337000  0.56343000  1
  C  C203  1  0.14630000  0.10337000  0.06343000  1
  C  C204  1  0.29630000  0.27585000  0.85405000  1
  C  C205  1  0.20370000  0.77585000  0.35405000  1
  C  C206  1  0.82750000  0.19303000  0.93667000  1
  C  C207  1  0.67250000  0.69303000  0.43667000  1
  C  C208  1  0.80910000  0.23020000  0.89620000  1
  C  C209  1  0.69090000  0.73020000  0.39620000  1
  C  C210  1  0.32820000  0.30826000  0.81184000  1
  C  C211  1  0.17180000  0.80826000  0.31184000  1
  C  C212  1  0.84760000  0.89620000  0.18750000  1
  C  C213  1  0.65240000  0.39620000  0.68750000  1
  C  C214  1  0.25780000  0.71075000  0.35435000  1
  C  C215  1  0.24220000  0.21075000  0.85435000  1
  C  C216  1  0.88720000  0.12064000  0.93666000  1
  C  C217  1  0.61280000  0.62064000  0.43666000  1
  C  C218  1  0.30410000  0.27416000  0.77064000  1
  C  C219  1  0.19590000  0.77416000  0.27064000  1
  C  C220  1  0.75500000  0.79271000  0.22909000  1
  C  C221  1  0.74500000  0.29271000  0.72909000  1
  C  C222  1  0.78370000  0.82494000  0.18736000  1
  C  C223  1  0.71630000  0.32494000  0.68736000  1
  O  O224  1  0.91200000  0.09412000  0.89728000  1
  O  O225  1  0.58800000  0.59412000  0.39728000  1
  O  O226  1  0.40660000  0.40760000  0.52460000  1
  O  O227  1  0.09340000  0.90760000  0.02460000  1
  O  O228  1  0.40990000  0.49288000  0.43832000  1
  O  O229  1  0.09010000  0.99288000  0.93832000  1
  O  O230  1  0.37100000  0.57704000  0.35136000  1
  O  O231  1  0.12900000  0.07704000  0.85136000  1
  O  O232  1  0.87710000  0.92380000  0.97560000  1
  O  O233  1  0.62290000  0.42380000  0.47560000  1
  O  O234  1  0.37130000  0.57765000  0.27385000  1
  O  O235  1  0.12870000  0.07765000  0.77385000  1
  O  O236  1  0.87990000  0.92307000  0.89773000  1
  O  O237  1  0.62010000  0.42307000  0.39773000  1
  O  O238  1  0.92110000  0.00780000  0.81230000  1
  O  O239  1  0.57890000  0.50780000  0.31230000  1
  O  O240  1  0.91210000  0.09250000  0.72680000  1
  O  O241  1  0.58790000  0.59250000  0.22680000  1
  O  O242  1  0.40470000  0.40490000  0.35150000  1
  O  O243  1  0.09530000  0.90490000  0.85150000  1
  O  O244  1  0.91020000  0.09214000  0.64946000  1
  O  O245  1  0.58980000  0.59214000  0.14946000  1
  O  O246  1  0.40060000  0.40683000  0.27417000  1
  O  O247  1  0.09940000  0.90683000  0.77417000  1
  O  O248  1  0.40590000  0.49249000  0.18711000  1
  O  O249  1  0.09410000  0.99249000  0.68711000  1
  O  O250  1  0.37370000  0.57696000  0.10094000  1
  O  O251  1  0.12630000  0.07696000  0.60094000  1
  O  O252  1  0.88260000  0.92269000  0.72681000  1
  O  O253  1  0.61740000  0.42269000  0.22681000  1
  O  O254  1  0.37470000  0.57653000  0.02317000  1
  O  O255  1  0.12530000  0.07653000  0.52317000  1
  O  O256  1  0.88140000  0.92386000  0.64924000  1
  O  O257  1  0.61860000  0.42386000  0.14924000  1
  O  O258  1  0.90980000  0.09553000  0.47707000  1
  O  O259  1  0.59020000  0.59553000  0.97707000  1
  O  O260  1  0.91610000  0.00715000  0.56325000  1
  O  O261  1  0.58390000  0.50715000  0.06325000  1
  O  O262  1  0.40210000  0.40784000  0.10036000  1
  O  O263  1  0.09790000  0.90784000  0.60036000  1
  O  O264  1  0.90210000  0.09216000  0.39964000  1
  O  O265  1  0.59790000  0.59216000  0.89964000  1
  O  O266  1  0.41610000  0.49285000  0.93675000  1
  O  O267  1  0.08390000  0.99285000  0.43675000  1
  O  O268  1  0.40980000  0.40447000  0.02293000  1
  O  O269  1  0.09020000  0.90447000  0.52293000  1
  O  O270  1  0.38140000  0.57614000  0.85076000  1
  O  O271  1  0.11860000  0.07614000  0.35076000  1
  O  O272  1  0.87470000  0.92347000  0.47683000  1
  O  O273  1  0.62530000  0.42347000  0.97683000  1
  O  O274  1  0.38260000  0.57731000  0.77319000  1
  O  O275  1  0.11740000  0.07731000  0.27319000  1
  O  O276  1  0.87370000  0.92304000  0.39906000  1
  O  O277  1  0.62630000  0.42304000  0.89906000  1
  O  O278  1  0.90590000  0.00751000  0.31289000  1
  O  O279  1  0.59410000  0.50751000  0.81289000  1
  O  O280  1  0.90060000  0.09317000  0.22583000  1
  O  O281  1  0.59940000  0.59317000  0.72583000  1
  O  O282  1  0.41020000  0.40786000  0.85054000  1
  O  O283  1  0.08980000  0.90786000  0.35054000  1
  O  O284  1  0.90470000  0.09510000  0.14850000  1
  O  O285  1  0.59530000  0.59510000  0.64850000  1
  O  O286  1  0.41210000  0.40750000  0.77320000  1
  O  O287  1  0.08790000  0.90750000  0.27320000  1
  O  O288  1  0.42110000  0.49220000  0.68770000  1
  O  O289  1  0.07890000  0.99220000  0.18770000  1
  O  O290  1  0.37990000  0.57693000  0.60227000  1
  O  O291  1  0.12010000  0.07693000  0.10227000  1
  O  O292  1  0.87130000  0.92235000  0.22615000  1
  O  O293  1  0.62870000  0.42235000  0.72615000  1
  O  O294  1  0.37710000  0.57620000  0.52440000  1
  O  O295  1  0.12290000  0.07620000  0.02440000  1
  O  O296  1  0.87100000  0.92296000  0.14864000  1
  O  O297  1  0.62900000  0.42296000  0.64864000  1
  O  O298  1  0.90990000  0.00712000  0.06168000  1
  O  O299  1  0.59010000  0.50712000  0.56168000  1
  O  O300  1  0.90660000  0.09240000  0.97540000  1
  O  O301  1  0.59340000  0.59240000  0.47540000  1
  O  O302  1  0.41200000  0.40588000  0.60272000  1
  O  O303  1  0.08800000  0.90588000  0.10272000  1
