# generated using pymatgen
data_ZnH5C11O4
_symmetry_space_group_name_H-M   'P 1'
_cell_length_a   12.20600000
_cell_length_b   15.30900000
_cell_length_c   17.83300000
_cell_angle_alpha   90.00000000
_cell_angle_beta   90.00000000
_cell_angle_gamma   111.22900000
_symmetry_Int_Tables_number   1
_chemical_formula_structural   ZnH5C11O4
_chemical_formula_sum   'Zn8 H40 C88 O32'
_cell_volume   3106.17589130
_cell_formula_units_Z   8
loop_
 _symmetry_equiv_pos_site_id
 _symmetry_equiv_pos_as_xyz
  1  'x, y, z'
loop_
 _atom_site_type_symbol
 _atom_site_label
 _atom_site_symmetry_multiplicity
 _atom_site_fract_x
 _atom_site_fract_y
 _atom_site_fract_z
 _atom_site_occupancy
  Zn  Zn0  1  0.96612000  0.29410000  0.98662000  1
  Zn  Zn1  1  0.96612000  0.79410000  0.51338000  1
  Zn  Zn2  1  0.73603000  0.27076000  0.87688000  1
  Zn  Zn3  1  0.73603000  0.77076000  0.62312000  1
  Zn  Zn4  1  0.26397000  0.22924000  0.37688000  1
  Zn  Zn5  1  0.26397000  0.72924000  0.12312000  1
  Zn  Zn6  1  0.03388000  0.20590000  0.48662000  1
  Zn  Zn7  1  0.03388000  0.70590000  0.01338000  1
  H  H8  1  0.98140000  0.39090000  0.32150000  1
  H  H9  1  0.98140000  0.89090000  0.17850000  1
  H  H10  1  0.95840000  0.02760000  0.95040000  1
  H  H11  1  0.95840000  0.52760000  0.54960000  1
  H  H12  1  0.91970000  0.86820000  0.93940000  1
  H  H13  1  0.91970000  0.36820000  0.56060000  1
  H  H14  1  0.91400000  0.97950000  0.75310000  1
  H  H15  1  0.91400000  0.47950000  0.74690000  1
  H  H16  1  0.82990000  0.95720000  0.39600000  1
  H  H17  1  0.82990000  0.45720000  0.10400000  1
  H  H18  1  0.80170000  0.29540000  0.28100000  1
  H  H19  1  0.80170000  0.79540000  0.21900000  1
  H  H20  1  0.73760000  0.76860000  0.89710000  1
  H  H21  1  0.73760000  0.26860000  0.60290000  1
  H  H22  1  0.63280000  0.98790000  0.87660000  1
  H  H23  1  0.63280000  0.48790000  0.62340000  1
  H  H24  1  0.61370000  0.30950000  0.26850000  1
  H  H25  1  0.61370000  0.80950000  0.23150000  1
  H  H26  1  0.50990000  0.69650000  0.46560000  1
  H  H27  1  0.50990000  0.19650000  0.03440000  1
  H  H28  1  0.49010000  0.80350000  0.96560000  1
  H  H29  1  0.49010000  0.30350000  0.53440000  1
  H  H30  1  0.38630000  0.19050000  0.76850000  1
  H  H31  1  0.38630000  0.69050000  0.73150000  1
  H  H32  1  0.36720000  0.51210000  0.37660000  1
  H  H33  1  0.36720000  0.01210000  0.12340000  1
  H  H34  1  0.26240000  0.73140000  0.39710000  1
  H  H35  1  0.26240000  0.23140000  0.10290000  1
  H  H36  1  0.19830000  0.20460000  0.78100000  1
  H  H37  1  0.19830000  0.70460000  0.71900000  1
  H  H38  1  0.17010000  0.54280000  0.89600000  1
  H  H39  1  0.17010000  0.04280000  0.60400000  1
  H  H40  1  0.08600000  0.52050000  0.25310000  1
  H  H41  1  0.08600000  0.02050000  0.24690000  1
  H  H42  1  0.08030000  0.63180000  0.43940000  1
  H  H43  1  0.08030000  0.13180000  0.06060000  1
  H  H44  1  0.04160000  0.47240000  0.45040000  1
  H  H45  1  0.04160000  0.97240000  0.04960000  1
  H  H46  1  0.01860000  0.10910000  0.82150000  1
  H  H47  1  0.01860000  0.60910000  0.67850000  1
  C  C48  1  0.98760000  0.51890000  0.76340000  1
  C  C49  1  0.98760000  0.01890000  0.73660000  1
  C  C50  1  0.96840000  0.41620000  0.87030000  1
  C  C51  1  0.96840000  0.91620000  0.62970000  1
  C  C52  1  0.96810000  0.00070000  0.32760000  1
  C  C53  1  0.96810000  0.50070000  0.17240000  1
  C  C54  1  0.95050000  0.40450000  0.27730000  1
  C  C55  1  0.95050000  0.90450000  0.22270000  1
  C  C56  1  0.88537000  0.98769000  0.93340000  1
  C  C57  1  0.88537000  0.48769000  0.56660000  1
  C  C58  1  0.86220000  0.89219000  0.92680000  1
  C  C59  1  0.86220000  0.39219000  0.57320000  1
  C  C60  1  0.86020000  0.94350000  0.35160000  1
  C  C61  1  0.86020000  0.44350000  0.14840000  1
  C  C62  1  0.84380000  0.34820000  0.25320000  1
  C  C63  1  0.84380000  0.84820000  0.24680000  1
  C  C64  1  0.82390000  0.12180000  0.92050000  1
  C  C65  1  0.82390000  0.62180000  0.57950000  1
  C  C66  1  0.79940000  0.02356000  0.91460000  1
  C  C67  1  0.79940000  0.52356000  0.58540000  1
  C  C68  1  0.79610000  0.86700000  0.31130000  1
  C  C69  1  0.79610000  0.36700000  0.18870000  1
  C  C70  1  0.75310000  0.83254000  0.90150000  1
  C  C71  1  0.75310000  0.33254000  0.59850000  1
  C  C72  1  0.72770000  0.78880000  0.46670000  1
  C  C73  1  0.72770000  0.28880000  0.03330000  1
  C  C74  1  0.69030000  0.96391000  0.88922000  1
  C  C75  1  0.69030000  0.46391000  0.61078000  1
  C  C76  1  0.67680000  0.80650000  0.33220000  1
  C  C77  1  0.67680000  0.30650000  0.16780000  1
  C  C78  1  0.66710000  0.86841000  0.88265000  1
  C  C79  1  0.66710000  0.36841000  0.61735000  1
  C  C80  1  0.64520000  0.77380000  0.40340000  1
  C  C81  1  0.64520000  0.27380000  0.09660000  1
  C  C82  1  0.60480000  0.29630000  0.77030000  1
  C  C83  1  0.60480000  0.79630000  0.72970000  1
  C  C84  1  0.59340000  0.78460000  0.27930000  1
  C  C85  1  0.59340000  0.28460000  0.22070000  1
  C  C86  1  0.55110000  0.80730000  0.86350000  1
  C  C87  1  0.55110000  0.30730000  0.63650000  1
  C  C88  1  0.53120000  0.71790000  0.41700000  1
  C  C89  1  0.53120000  0.21790000  0.08300000  1
  C  C90  1  0.51830000  0.77170000  0.79220000  1
  C  C91  1  0.51830000  0.27170000  0.70780000  1
  C  C92  1  0.48170000  0.72830000  0.29220000  1
  C  C93  1  0.48170000  0.22830000  0.20780000  1
  C  C94  1  0.46880000  0.78210000  0.91700000  1
  C  C95  1  0.46880000  0.28210000  0.58300000  1
  C  C96  1  0.44890000  0.69270000  0.36350000  1
  C  C97  1  0.44890000  0.19270000  0.13650000  1
  C  C98  1  0.40660000  0.71540000  0.77930000  1
  C  C99  1  0.40660000  0.21540000  0.72070000  1
  C  C100  1  0.39520000  0.20370000  0.27030000  1
  C  C101  1  0.39520000  0.70370000  0.22970000  1
  C  C102  1  0.35480000  0.72620000  0.90340000  1
  C  C103  1  0.35480000  0.22620000  0.59660000  1
  C  C104  1  0.33290000  0.63159000  0.38265000  1
  C  C105  1  0.33290000  0.13159000  0.11735000  1
  C  C106  1  0.32320000  0.69350000  0.83220000  1
  C  C107  1  0.32320000  0.19350000  0.66780000  1
  C  C108  1  0.30970000  0.53609000  0.38922000  1
  C  C109  1  0.30970000  0.03609000  0.11078000  1
  C  C110  1  0.27230000  0.71120000  0.96670000  1
  C  C111  1  0.27230000  0.21120000  0.53330000  1
  C  C112  1  0.24690000  0.66746000  0.40150000  1
  C  C113  1  0.24690000  0.16746000  0.09850000  1
  C  C114  1  0.20390000  0.63300000  0.81130000  1
  C  C115  1  0.20390000  0.13300000  0.68870000  1
  C  C116  1  0.20060000  0.47644000  0.41460000  1
  C  C117  1  0.20060000  0.97644000  0.08540000  1
  C  C118  1  0.17610000  0.37820000  0.42050000  1
  C  C119  1  0.17610000  0.87820000  0.07950000  1
  C  C120  1  0.15620000  0.15180000  0.75320000  1
  C  C121  1  0.15620000  0.65180000  0.74680000  1
  C  C122  1  0.13980000  0.55650000  0.85160000  1
  C  C123  1  0.13980000  0.05650000  0.64840000  1
  C  C124  1  0.13780000  0.60781000  0.42680000  1
  C  C125  1  0.13780000  0.10781000  0.07320000  1
  C  C126  1  0.11463000  0.51231000  0.43340000  1
  C  C127  1  0.11463000  0.01231000  0.06660000  1
  C  C128  1  0.04950000  0.09550000  0.77730000  1
  C  C129  1  0.04950000  0.59550000  0.72270000  1
  C  C130  1  0.03190000  0.49930000  0.82760000  1
  C  C131  1  0.03190000  0.99930000  0.67240000  1
  C  C132  1  0.03160000  0.08380000  0.37030000  1
  C  C133  1  0.03160000  0.58380000  0.12970000  1
  C  C134  1  0.01240000  0.98110000  0.26340000  1
  C  C135  1  0.01240000  0.48110000  0.23660000  1
  O  O136  1  0.99560000  0.09310000  0.43290000  1
  O  O137  1  0.99560000  0.59310000  0.06710000  1
  O  O138  1  0.91590000  0.16930000  0.95110000  1
  O  O139  1  0.91590000  0.66930000  0.54890000  1
  O  O140  1  0.88070000  0.36070000  0.84222000  1
  O  O141  1  0.88070000  0.86070000  0.65778000  1
  O  O142  1  0.82170000  0.78200000  0.45594000  1
  O  O143  1  0.82170000  0.28200000  0.04406000  1
  O  O144  1  0.75110000  0.15090000  0.89480000  1
  O  O145  1  0.75110000  0.65090000  0.60520000  1
  O  O146  1  0.68800000  0.30120000  0.97163000  1
  O  O147  1  0.68800000  0.80120000  0.52837000  1
  O  O148  1  0.65000000  0.37600000  0.78890000  1
  O  O149  1  0.65000000  0.87600000  0.71110000  1
  O  O150  1  0.62280000  0.23280000  0.80090000  1
  O  O151  1  0.62280000  0.73280000  0.69910000  1
  O  O152  1  0.37720000  0.26720000  0.30090000  1
  O  O153  1  0.37720000  0.76720000  0.19910000  1
  O  O154  1  0.35000000  0.12400000  0.28890000  1
  O  O155  1  0.35000000  0.62400000  0.21110000  1
  O  O156  1  0.31200000  0.19880000  0.47163000  1
  O  O157  1  0.31200000  0.69880000  0.02837000  1
  O  O158  1  0.24890000  0.34910000  0.39480000  1
  O  O159  1  0.24890000  0.84910000  0.10520000  1
  O  O160  1  0.17830000  0.71800000  0.95594000  1
  O  O161  1  0.17830000  0.21800000  0.54406000  1
  O  O162  1  0.11930000  0.13930000  0.34222000  1
  O  O163  1  0.11930000  0.63930000  0.15778000  1
  O  O164  1  0.08410000  0.33070000  0.45110000  1
  O  O165  1  0.08410000  0.83070000  0.04890000  1
  O  O166  1  0.00440000  0.40690000  0.93290000  1
  O  O167  1  0.00440000  0.90690000  0.56710000  1
