# generated using pymatgen
data_NdH3C12(NO5)2
_symmetry_space_group_name_H-M   'P 1'
_cell_length_a   6.90700000
_cell_length_b   21.89700000
_cell_length_c   23.15100000
_cell_angle_alpha   90.00000000
_cell_angle_beta   90.00000000
_cell_angle_gamma   90.00000000
_symmetry_Int_Tables_number   1
_chemical_formula_structural   NdH3C12(NO5)2
_chemical_formula_sum   'Nd8 H24 C96 N16 O80'
_cell_volume   3501.41694643
_cell_formula_units_Z   8
loop_
 _symmetry_equiv_pos_site_id
 _symmetry_equiv_pos_as_xyz
  1  'x, y, z'
loop_
 _atom_site_type_symbol
 _atom_site_label
 _atom_site_symmetry_multiplicity
 _atom_site_fract_x
 _atom_site_fract_y
 _atom_site_fract_z
 _atom_site_occupancy
  Nd  Nd0  1  0.07830000  0.23157000  0.55064000  1
  Nd  Nd1  1  0.07830000  0.26843000  0.05064000  1
  Nd  Nd2  1  0.42170000  0.73157000  0.55064000  1
  Nd  Nd3  1  0.42170000  0.76843000  0.05064000  1
  Nd  Nd4  1  0.57830000  0.23157000  0.94936000  1
  Nd  Nd5  1  0.57830000  0.26843000  0.44936000  1
  Nd  Nd6  1  0.92170000  0.73157000  0.94936000  1
  Nd  Nd7  1  0.92170000  0.76843000  0.44936000  1
  H  H8  1  0.06460000  0.15760000  0.23640000  1
  H  H9  1  0.06460000  0.34240000  0.73640000  1
  H  H10  1  0.09010000  0.17290000  0.85640000  1
  H  H11  1  0.09010000  0.32710000  0.35640000  1
  H  H12  1  0.09280000  0.16080000  0.75710000  1
  H  H13  1  0.09280000  0.33920000  0.25710000  1
  H  H14  1  0.40720000  0.66080000  0.75710000  1
  H  H15  1  0.40720000  0.83920000  0.25710000  1
  H  H16  1  0.40990000  0.67290000  0.85640000  1
  H  H17  1  0.40990000  0.82710000  0.35640000  1
  H  H18  1  0.43540000  0.65760000  0.23640000  1
  H  H19  1  0.43540000  0.84240000  0.73640000  1
  H  H20  1  0.56460000  0.15760000  0.26360000  1
  H  H21  1  0.56460000  0.34240000  0.76360000  1
  H  H22  1  0.59010000  0.17290000  0.64360000  1
  H  H23  1  0.59010000  0.32710000  0.14360000  1
  H  H24  1  0.59280000  0.16080000  0.74290000  1
  H  H25  1  0.59280000  0.33920000  0.24290000  1
  H  H26  1  0.90720000  0.66080000  0.74290000  1
  H  H27  1  0.90720000  0.83920000  0.24290000  1
  H  H28  1  0.90990000  0.67290000  0.64360000  1
  H  H29  1  0.90990000  0.82710000  0.14360000  1
  H  H30  1  0.93540000  0.65760000  0.26360000  1
  H  H31  1  0.93540000  0.84240000  0.76360000  1
  C  C32  1  0.03590000  0.56260000  0.50200000  1
  C  C33  1  0.03590000  0.93740000  0.00200000  1
  C  C34  1  0.06280000  0.03730000  0.04410000  1
  C  C35  1  0.06280000  0.46270000  0.54410000  1
  C  C36  1  0.06870000  0.63030000  0.50680000  1
  C  C37  1  0.06870000  0.86970000  0.00680000  1
  C  C38  1  0.07070000  0.19180000  0.26020000  1
  C  C39  1  0.07070000  0.30820000  0.76020000  1
  C  C40  1  0.07100000  0.18540000  0.31960000  1
  C  C41  1  0.07100000  0.31460000  0.81960000  1
  C  C42  1  0.07300000  0.23150000  0.42150000  1
  C  C43  1  0.07300000  0.26850000  0.92150000  1
  C  C44  1  0.07650000  0.23470000  0.35620000  1
  C  C45  1  0.07650000  0.26530000  0.85620000  1
  C  C46  1  0.07950000  0.24970000  0.23660000  1
  C  C47  1  0.07950000  0.25030000  0.73660000  1
  C  C48  1  0.08240000  0.24230000  0.67260000  1
  C  C49  1  0.08240000  0.25770000  0.17260000  1
  C  C50  1  0.08530000  0.20690000  0.83250000  1
  C  C51  1  0.08530000  0.29310000  0.33250000  1
  C  C52  1  0.08680000  0.19980000  0.77290000  1
  C  C53  1  0.08680000  0.30020000  0.27290000  1
  C  C54  1  0.10200000  0.52500000  0.54660000  1
  C  C55  1  0.10200000  0.97500000  0.04660000  1
  C  C56  1  0.39800000  0.02500000  0.54660000  1
  C  C57  1  0.39800000  0.47500000  0.04660000  1
  C  C58  1  0.41320000  0.69980000  0.77290000  1
  C  C59  1  0.41320000  0.80020000  0.27290000  1
  C  C60  1  0.41470000  0.70690000  0.83250000  1
  C  C61  1  0.41470000  0.79310000  0.33250000  1
  C  C62  1  0.41760000  0.74230000  0.67260000  1
  C  C63  1  0.41760000  0.75770000  0.17260000  1
  C  C64  1  0.42050000  0.74970000  0.23660000  1
  C  C65  1  0.42050000  0.75030000  0.73660000  1
  C  C66  1  0.42350000  0.73470000  0.35620000  1
  C  C67  1  0.42350000  0.76530000  0.85620000  1
  C  C68  1  0.42700000  0.73150000  0.42150000  1
  C  C69  1  0.42700000  0.76850000  0.92150000  1
  C  C70  1  0.42900000  0.68540000  0.31960000  1
  C  C71  1  0.42900000  0.81460000  0.81960000  1
  C  C72  1  0.42930000  0.69180000  0.26020000  1
  C  C73  1  0.42930000  0.80820000  0.76020000  1
  C  C74  1  0.43130000  0.13030000  0.50680000  1
  C  C75  1  0.43130000  0.36970000  0.00680000  1
  C  C76  1  0.43720000  0.53730000  0.04410000  1
  C  C77  1  0.43720000  0.96270000  0.54410000  1
  C  C78  1  0.46410000  0.06260000  0.50200000  1
  C  C79  1  0.46410000  0.43740000  0.00200000  1
  C  C80  1  0.53590000  0.56260000  0.99800000  1
  C  C81  1  0.53590000  0.93740000  0.49800000  1
  C  C82  1  0.56280000  0.03730000  0.45590000  1
  C  C83  1  0.56280000  0.46270000  0.95590000  1
  C  C84  1  0.56870000  0.63030000  0.99320000  1
  C  C85  1  0.56870000  0.86970000  0.49320000  1
  C  C86  1  0.57070000  0.19180000  0.23980000  1
  C  C87  1  0.57070000  0.30820000  0.73980000  1
  C  C88  1  0.57100000  0.18540000  0.18040000  1
  C  C89  1  0.57100000  0.31460000  0.68040000  1
  C  C90  1  0.57300000  0.23150000  0.07850000  1
  C  C91  1  0.57300000  0.26850000  0.57850000  1
  C  C92  1  0.57650000  0.23470000  0.14380000  1
  C  C93  1  0.57650000  0.26530000  0.64380000  1
  C  C94  1  0.57950000  0.24970000  0.26340000  1
  C  C95  1  0.57950000  0.25030000  0.76340000  1
  C  C96  1  0.58240000  0.24230000  0.82740000  1
  C  C97  1  0.58240000  0.25770000  0.32740000  1
  C  C98  1  0.58530000  0.20690000  0.66750000  1
  C  C99  1  0.58530000  0.29310000  0.16750000  1
  C  C100  1  0.58680000  0.19980000  0.72710000  1
  C  C101  1  0.58680000  0.30020000  0.22710000  1
  C  C102  1  0.60200000  0.52500000  0.95340000  1
  C  C103  1  0.60200000  0.97500000  0.45340000  1
  C  C104  1  0.89800000  0.02500000  0.95340000  1
  C  C105  1  0.89800000  0.47500000  0.45340000  1
  C  C106  1  0.91320000  0.69980000  0.72710000  1
  C  C107  1  0.91320000  0.80020000  0.22710000  1
  C  C108  1  0.91470000  0.70690000  0.66750000  1
  C  C109  1  0.91470000  0.79310000  0.16750000  1
  C  C110  1  0.91760000  0.74230000  0.82740000  1
  C  C111  1  0.91760000  0.75770000  0.32740000  1
  C  C112  1  0.92050000  0.74970000  0.26340000  1
  C  C113  1  0.92050000  0.75030000  0.76340000  1
  C  C114  1  0.92350000  0.73470000  0.14380000  1
  C  C115  1  0.92350000  0.76530000  0.64380000  1
  C  C116  1  0.92700000  0.73150000  0.07850000  1
  C  C117  1  0.92700000  0.76850000  0.57850000  1
  C  C118  1  0.92900000  0.68540000  0.18040000  1
  C  C119  1  0.92900000  0.81460000  0.68040000  1
  C  C120  1  0.92930000  0.69180000  0.23980000  1
  C  C121  1  0.92930000  0.80820000  0.73980000  1
  C  C122  1  0.93130000  0.13030000  0.99320000  1
  C  C123  1  0.93130000  0.36970000  0.49320000  1
  C  C124  1  0.93720000  0.53730000  0.45590000  1
  C  C125  1  0.93720000  0.96270000  0.95590000  1
  C  C126  1  0.96410000  0.06260000  0.99800000  1
  C  C127  1  0.96410000  0.43740000  0.49800000  1
  N  N128  1  0.06830000  0.12390000  0.34380000  1
  N  N129  1  0.06830000  0.37610000  0.84380000  1
  N  N130  1  0.09760000  0.06920000  0.09950000  1
  N  N131  1  0.09760000  0.43080000  0.59950000  1
  N  N132  1  0.40240000  0.56920000  0.09950000  1
  N  N133  1  0.40240000  0.93080000  0.59950000  1
  N  N134  1  0.43170000  0.62390000  0.34380000  1
  N  N135  1  0.43170000  0.87610000  0.84380000  1
  N  N136  1  0.56830000  0.12390000  0.15620000  1
  N  N137  1  0.56830000  0.37610000  0.65620000  1
  N  N138  1  0.59760000  0.06920000  0.40050000  1
  N  N139  1  0.59760000  0.43080000  0.90050000  1
  N  N140  1  0.90240000  0.56920000  0.40050000  1
  N  N141  1  0.90240000  0.93080000  0.90050000  1
  N  N142  1  0.93170000  0.62390000  0.15620000  1
  N  N143  1  0.93170000  0.87610000  0.65620000  1
  O  O144  1  0.03500000  0.08260000  0.31130000  1
  O  O145  1  0.03500000  0.41740000  0.81130000  1
  O  O146  1  0.03900000  0.58630000  0.37030000  1
  O  O147  1  0.03900000  0.91370000  0.87030000  1
  O  O148  1  0.04940000  0.16375000  0.02031000  1
  O  O149  1  0.04940000  0.33625000  0.52031000  1
  O  O150  1  0.06640000  0.21088000  0.14127000  1
  O  O151  1  0.06640000  0.28912000  0.64127000  1
  O  O152  1  0.08500000  0.72452000  0.05241000  1
  O  O153  1  0.08500000  0.77548000  0.55241000  1
  O  O154  1  0.10060000  0.18974000  0.65050000  1
  O  O155  1  0.10060000  0.31026000  0.15050000  1
  O  O156  1  0.10210000  0.11700000  0.39500000  1
  O  O157  1  0.10210000  0.38300000  0.89500000  1
  O  O158  1  0.20180000  0.64858000  0.53925000  1
  O  O159  1  0.20180000  0.85142000  0.03925000  1
  O  O160  1  0.22840000  0.23946000  0.44851000  1
  O  O161  1  0.22840000  0.26054000  0.94851000  1
  O  O162  1  0.23700000  0.57550000  0.11070000  1
  O  O163  1  0.23700000  0.92450000  0.61070000  1
  O  O164  1  0.26300000  0.07550000  0.11070000  1
  O  O165  1  0.26300000  0.42450000  0.61070000  1
  O  O166  1  0.27160000  0.73946000  0.44851000  1
  O  O167  1  0.27160000  0.76054000  0.94851000  1
  O  O168  1  0.29820000  0.14858000  0.53925000  1
  O  O169  1  0.29820000  0.35142000  0.03925000  1
  O  O170  1  0.39790000  0.61700000  0.39500000  1
  O  O171  1  0.39790000  0.88300000  0.89500000  1
  O  O172  1  0.39940000  0.68974000  0.65050000  1
  O  O173  1  0.39940000  0.81026000  0.15050000  1
  O  O174  1  0.41500000  0.22452000  0.05241000  1
  O  O175  1  0.41500000  0.27548000  0.55241000  1
  O  O176  1  0.43360000  0.71088000  0.14127000  1
  O  O177  1  0.43360000  0.78912000  0.64127000  1
  O  O178  1  0.45060000  0.66375000  0.02031000  1
  O  O179  1  0.45060000  0.83625000  0.52031000  1
  O  O180  1  0.46100000  0.08630000  0.37030000  1
  O  O181  1  0.46100000  0.41370000  0.87030000  1
  O  O182  1  0.46500000  0.58260000  0.31130000  1
  O  O183  1  0.46500000  0.91740000  0.81130000  1
  O  O184  1  0.53500000  0.08260000  0.18870000  1
  O  O185  1  0.53500000  0.41740000  0.68870000  1
  O  O186  1  0.53900000  0.58630000  0.12970000  1
  O  O187  1  0.53900000  0.91370000  0.62970000  1
  O  O188  1  0.54940000  0.16375000  0.47969000  1
  O  O189  1  0.54940000  0.33625000  0.97969000  1
  O  O190  1  0.56640000  0.21088000  0.35873000  1
  O  O191  1  0.56640000  0.28912000  0.85873000  1
  O  O192  1  0.58500000  0.72452000  0.44759000  1
  O  O193  1  0.58500000  0.77548000  0.94759000  1
  O  O194  1  0.60060000  0.18974000  0.84950000  1
  O  O195  1  0.60060000  0.31026000  0.34950000  1
  O  O196  1  0.60210000  0.11700000  0.10500000  1
  O  O197  1  0.60210000  0.38300000  0.60500000  1
  O  O198  1  0.70180000  0.64858000  0.96075000  1
  O  O199  1  0.70180000  0.85142000  0.46075000  1
  O  O200  1  0.72840000  0.23946000  0.05149000  1
  O  O201  1  0.72840000  0.26054000  0.55149000  1
  O  O202  1  0.73700000  0.57550000  0.38930000  1
  O  O203  1  0.73700000  0.92450000  0.88930000  1
  O  O204  1  0.76300000  0.07550000  0.38930000  1
  O  O205  1  0.76300000  0.42450000  0.88930000  1
  O  O206  1  0.77160000  0.73946000  0.05149000  1
  O  O207  1  0.77160000  0.76054000  0.55149000  1
  O  O208  1  0.79820000  0.14858000  0.96075000  1
  O  O209  1  0.79820000  0.35142000  0.46075000  1
  O  O210  1  0.89790000  0.61700000  0.10500000  1
  O  O211  1  0.89790000  0.88300000  0.60500000  1
  O  O212  1  0.89940000  0.68974000  0.84950000  1
  O  O213  1  0.89940000  0.81026000  0.34950000  1
  O  O214  1  0.91500000  0.22452000  0.44759000  1
  O  O215  1  0.91500000  0.27548000  0.94759000  1
  O  O216  1  0.93360000  0.71088000  0.35873000  1
  O  O217  1  0.93360000  0.78912000  0.85873000  1
  O  O218  1  0.95060000  0.66375000  0.47969000  1
  O  O219  1  0.95060000  0.83625000  0.97969000  1
  O  O220  1  0.96100000  0.08630000  0.12970000  1
  O  O221  1  0.96100000  0.41370000  0.62970000  1
  O  O222  1  0.96500000  0.58260000  0.18870000  1
  O  O223  1  0.96500000  0.91740000  0.68870000  1
