# generated using pymatgen
data_CoH8C13NO5
_symmetry_space_group_name_H-M   'P 1'
_cell_length_a   11.34070000
_cell_length_b   11.38470000
_cell_length_c   13.19080000
_cell_angle_alpha   88.86800000
_cell_angle_beta   69.33900000
_cell_angle_gamma   85.72600000
_symmetry_Int_Tables_number   1
_chemical_formula_structural   CoH8C13NO5
_chemical_formula_sum   'Co4 H32 C52 N4 O20'
_cell_volume   1589.06582003
_cell_formula_units_Z   4
loop_
 _symmetry_equiv_pos_site_id
 _symmetry_equiv_pos_as_xyz
  1  'x, y, z'
loop_
 _atom_site_type_symbol
 _atom_site_label
 _atom_site_symmetry_multiplicity
 _atom_site_fract_x
 _atom_site_fract_y
 _atom_site_fract_z
 _atom_site_occupancy
  Co  Co0  1  0.00000000  0.00000000  0.00000000  1
  Co  Co1  1  0.00000000  0.00000000  0.50000000  1
  Co  Co2  1  0.00938000  0.88342000  0.74825000  1
  Co  Co3  1  0.99062000  0.11658000  0.25175000  1
  H  H4  1  0.09900000  0.34200000  0.64730000  1
  H  H5  1  0.11160000  0.34400000  0.88850000  1
  H  H6  1  0.12040000  0.64850000  0.14920000  1
  H  H7  1  0.13570000  0.63410000  0.39270000  1
  H  H8  1  0.14160000  0.44200000  0.32840000  1
  H  H9  1  0.14340000  0.53720000  0.82720000  1
  H  H10  1  0.27730000  0.03720000  0.79360000  1
  H  H11  1  0.28030000  0.94690000  0.29020000  1
  H  H12  1  0.31570000  0.33760000  0.62250000  1
  H  H13  1  0.33750000  0.64420000  0.11910000  1
  H  H14  1  0.38350000  0.09790000  0.40400000  1
  H  H15  1  0.38390000  0.13280000  0.13890000  1
  H  H16  1  0.40120000  0.90510000  0.89950000  1
  H  H17  1  0.40470000  0.18210000  0.69340000  1
  H  H18  1  0.40770000  0.85750000  0.62700000  1
  H  H19  1  0.41400000  0.79160000  0.18790000  1
  H  H20  1  0.58600000  0.20840000  0.81210000  1
  H  H21  1  0.59230000  0.14250000  0.37300000  1
  H  H22  1  0.59530000  0.81790000  0.30660000  1
  H  H23  1  0.59880000  0.09490000  0.10050000  1
  H  H24  1  0.61610000  0.86720000  0.86110000  1
  H  H25  1  0.61650000  0.90210000  0.59600000  1
  H  H26  1  0.66250000  0.35580000  0.88090000  1
  H  H27  1  0.68430000  0.66240000  0.37750000  1
  H  H28  1  0.71970000  0.05310000  0.70980000  1
  H  H29  1  0.72270000  0.96280000  0.20640000  1
  H  H30  1  0.85660000  0.46280000  0.17280000  1
  H  H31  1  0.85840000  0.55800000  0.67160000  1
  H  H32  1  0.86430000  0.36590000  0.60730000  1
  H  H33  1  0.87960000  0.35150000  0.85080000  1
  H  H34  1  0.88840000  0.65600000  0.11150000  1
  H  H35  1  0.90100000  0.65800000  0.35270000  1
  C  C36  1  0.00650000  0.38540000  0.46390000  1
  C  C37  1  0.01390000  0.25940000  0.42810000  1
  C  C38  1  0.01780000  0.61550000  0.96430000  1
  C  C39  1  0.03330000  0.74120000  0.92800000  1
  C  C40  1  0.06580000  0.40770000  0.93440000  1
  C  C41  1  0.06810000  0.19350000  0.73590000  1
  C  C42  1  0.07160000  0.80180000  0.23660000  1
  C  C43  1  0.07970000  0.57980000  0.43610000  1
  C  C44  1  0.08470000  0.46500000  0.39850000  1
  C  C45  1  0.08490000  0.52260000  0.89750000  1
  C  C46  1  0.13730000  0.28030000  0.67730000  1
  C  C47  1  0.15290000  0.70950000  0.17740000  1
  C  C48  1  0.22870000  0.04220000  0.05070000  1
  C  C49  1  0.24120000  0.94940000  0.54590000  1
  C  C50  1  0.24160000  0.10010000  0.76280000  1
  C  C51  1  0.24780000  0.88650000  0.26120000  1
  C  C52  1  0.26540000  0.27720000  0.66190000  1
  C  C53  1  0.28170000  0.70670000  0.15970000  1
  C  C54  1  0.31710000  0.18660000  0.70400000  1
  C  C55  1  0.32600000  0.79370000  0.20070000  1
  C  C56  1  0.36940000  0.02300000  0.02270000  1
  C  C57  1  0.37690000  0.97270000  0.51970000  1
  C  C58  1  0.43070000  0.05830000  0.44300000  1
  C  C59  1  0.43100000  0.07900000  0.08250000  1
  C  C60  1  0.44130000  0.94380000  0.94030000  1
  C  C61  1  0.44510000  0.91560000  0.57540000  1
  C  C62  1  0.55490000  0.08440000  0.42460000  1
  C  C63  1  0.55870000  0.05620000  0.05970000  1
  C  C64  1  0.56900000  0.92100000  0.91750000  1
  C  C65  1  0.56930000  0.94170000  0.55700000  1
  C  C66  1  0.62310000  0.02730000  0.48030000  1
  C  C67  1  0.63060000  0.97700000  0.97730000  1
  C  C68  1  0.67400000  0.20630000  0.79930000  1
  C  C69  1  0.68290000  0.81340000  0.29600000  1
  C  C70  1  0.71830000  0.29330000  0.84030000  1
  C  C71  1  0.73460000  0.72280000  0.33810000  1
  C  C72  1  0.75220000  0.11350000  0.73880000  1
  C  C73  1  0.75840000  0.89990000  0.23720000  1
  C  C74  1  0.75880000  0.05060000  0.45410000  1
  C  C75  1  0.77130000  0.95780000  0.94930000  1
  C  C76  1  0.84710000  0.29050000  0.82260000  1
  C  C77  1  0.86270000  0.71970000  0.32270000  1
  C  C78  1  0.91510000  0.47740000  0.10250000  1
  C  C79  1  0.91530000  0.53500000  0.60150000  1
  C  C80  1  0.92030000  0.42020000  0.56390000  1
  C  C81  1  0.92840000  0.19820000  0.76340000  1
  C  C82  1  0.93190000  0.80650000  0.26410000  1
  C  C83  1  0.93420000  0.59230000  0.06560000  1
  C  C84  1  0.96670000  0.25880000  0.07200000  1
  C  C85  1  0.98220000  0.38450000  0.03570000  1
  C  C86  1  0.98610000  0.74060000  0.57190000  1
  C  C87  1  0.99350000  0.61460000  0.53610000  1
  N  N88  1  0.12160000  0.10490000  0.77580000  1
  N  N89  1  0.12310000  0.88690000  0.27700000  1
  N  N90  1  0.87690000  0.11310000  0.72300000  1
  N  N91  1  0.87840000  0.89510000  0.22420000  1
  O  O92  1  0.00130000  0.18220000  0.99890000  1
  O  O93  1  0.01510000  0.81690000  0.50050000  1
  O  O94  1  0.04550000  0.97680000  0.33300000  1
  O  O95  1  0.05100000  0.24130000  0.32550000  1
  O  O96  1  0.05150000  0.02000000  0.83220000  1
  O  O97  1  0.08460000  0.75930000  0.82770000  1
  O  O98  1  0.17140000  0.10660000  0.13160000  1
  O  O99  1  0.18350000  0.99300000  0.99040000  1
  O  O100  1  0.18590000  0.99670000  0.48490000  1
  O  O101  1  0.18790000  0.88900000  0.62950000  1
  O  O102  1  0.81210000  0.11100000  0.37050000  1
  O  O103  1  0.81410000  0.00330000  0.51510000  1
  O  O104  1  0.81650000  0.00700000  0.00960000  1
  O  O105  1  0.82860000  0.89340000  0.86840000  1
  O  O106  1  0.91540000  0.24070000  0.17230000  1
  O  O107  1  0.94850000  0.98000000  0.16780000  1
  O  O108  1  0.94900000  0.75870000  0.67450000  1
  O  O109  1  0.95450000  0.02320000  0.66700000  1
  O  O110  1  0.98490000  0.18310000  0.49950000  1
  O  O111  1  0.99870000  0.81780000  0.00110000  1
