# generated using pymatgen
data_Dy2H42(C23O6)3
_symmetry_space_group_name_H-M   'P 1'
_cell_length_a   14.46030000
_cell_length_b   19.12370000
_cell_length_c   30.62470000
_cell_angle_alpha   90.00000000
_cell_angle_beta   90.00000000
_cell_angle_gamma   90.00000000
_symmetry_Int_Tables_number   1
_chemical_formula_structural   Dy2H42(C23O6)3
_chemical_formula_sum   'Dy8 H168 C276 O72'
_cell_volume   8468.78423741
_cell_formula_units_Z   4
loop_
 _symmetry_equiv_pos_site_id
 _symmetry_equiv_pos_as_xyz
  1  'x, y, z'
loop_
 _atom_site_type_symbol
 _atom_site_label
 _atom_site_symmetry_multiplicity
 _atom_site_fract_x
 _atom_site_fract_y
 _atom_site_fract_z
 _atom_site_occupancy
  Dy  Dy0  1  0.96287000  0.85892000  0.96339000  1
  Dy  Dy1  1  0.02532000  0.81381000  0.08764000  1
  Dy  Dy2  1  0.52532000  0.68619000  0.58764000  1
  Dy  Dy3  1  0.46287000  0.64108000  0.46339000  1
  Dy  Dy4  1  0.53713000  0.35892000  0.96339000  1
  Dy  Dy5  1  0.47468000  0.31381000  0.08764000  1
  Dy  Dy6  1  0.97468000  0.18619000  0.58764000  1
  Dy  Dy7  1  0.03713000  0.14108000  0.46339000  1
  H  H8  1  0.00560000  0.98920000  0.11330000  1
  H  H9  1  0.71720000  0.98520000  0.30620000  1
  H  H10  1  0.62180000  0.98400000  0.24680000  1
  H  H11  1  0.01170000  0.95770000  0.68410000  1
  H  H12  1  0.17080000  0.95650000  0.85330000  1
  H  H13  1  0.52850000  0.95280000  0.32560000  1
  H  H14  1  0.42960000  0.93840000  0.02790000  1
  H  H15  1  0.39990000  0.93700000  0.09210000  1
  H  H16  1  0.46540000  0.93610000  0.85540000  1
  H  H17  1  0.98710000  0.92830000  0.47990000  1
  H  H18  1  0.98200000  0.92450000  0.35090000  1
  H  H19  1  0.37060000  0.92270000  0.16460000  1
  H  H20  1  0.39110000  0.91790000  0.70360000  1
  H  H21  1  0.48070000  0.91730000  0.92730000  1
  H  H22  1  0.88520000  0.91580000  0.41040000  1
  H  H23  1  0.49210000  0.90520000  0.99180000  1
  H  H24  1  0.01240000  0.90180000  0.27240000  1
  H  H25  1  0.49000000  0.90170000  0.21420000  1
  H  H26  1  0.72290000  0.90080000  0.98740000  1
  H  H27  1  0.48830000  0.89840000  0.57410000  1
  H  H28  1  0.63690000  0.88370000  0.18950000  1
  H  H29  1  0.74450000  0.87070000  0.12850000  1
  H  H30  1  0.74290000  0.86580000  0.40230000  1
  H  H31  1  0.02430000  0.86100000  0.72820000  1
  H  H32  1  0.50460000  0.85960000  0.36970000  1
  H  H33  1  0.69230000  0.82040000  0.33780000  1
  H  H34  1  0.30430000  0.82030000  0.71770000  1
  H  H35  1  0.24180000  0.81040000  0.92540000  1
  H  H36  1  0.48720000  0.81010000  0.44260000  1
  H  H37  1  0.34870000  0.80500000  0.86460000  1
  H  H38  1  0.64320000  0.80250000  0.26520000  1
  H  H39  1  0.85830000  0.79570000  0.16960000  1
  H  H40  1  0.49400000  0.78760000  0.83790000  1
  H  H41  1  0.50300000  0.77190000  0.05780000  1
  H  H42  1  0.06210000  0.76400000  0.52150000  1
  H  H43  1  0.49370000  0.76320000  0.12340000  1
  H  H44  1  0.61520000  0.76110000  0.88590000  1
  H  H45  1  0.68610000  0.76060000  0.22630000  1
  H  H46  1  0.08820000  0.75910000  0.45610000  1
  H  H47  1  0.77400000  0.75770000  0.56470000  1
  H  H48  1  0.01720000  0.75030000  0.69630000  1
  H  H49  1  0.54310000  0.75000000  0.34950000  1
  H  H50  1  0.04310000  0.75000000  0.84950000  1
  H  H51  1  0.51720000  0.74970000  0.19630000  1
  H  H52  1  0.27400000  0.74230000  0.06470000  1
  H  H53  1  0.58820000  0.74090000  0.95610000  1
  H  H54  1  0.18610000  0.73940000  0.72630000  1
  H  H55  1  0.11520000  0.73890000  0.38590000  1
  H  H56  1  0.99370000  0.73680000  0.62340000  1
  H  H57  1  0.56210000  0.73600000  0.02150000  1
  H  H58  1  0.00300000  0.72810000  0.55780000  1
  H  H59  1  0.99400000  0.71240000  0.33790000  1
  H  H60  1  0.35830000  0.70430000  0.66960000  1
  H  H61  1  0.14320000  0.69750000  0.76520000  1
  H  H62  1  0.84870000  0.69500000  0.36460000  1
  H  H63  1  0.98720000  0.68990000  0.94260000  1
  H  H64  1  0.74180000  0.68960000  0.42540000  1
  H  H65  1  0.80430000  0.67970000  0.21770000  1
  H  H66  1  0.19230000  0.67960000  0.83780000  1
  H  H67  1  0.00460000  0.64040000  0.86970000  1
  H  H68  1  0.52430000  0.63900000  0.22820000  1
  H  H69  1  0.24290000  0.63420000  0.90230000  1
  H  H70  1  0.24450000  0.62930000  0.62850000  1
  H  H71  1  0.13690000  0.61630000  0.68950000  1
  H  H72  1  0.98830000  0.60160000  0.07410000  1
  H  H73  1  0.22290000  0.59920000  0.48740000  1
  H  H74  1  0.99000000  0.59830000  0.71420000  1
  H  H75  1  0.51240000  0.59820000  0.77240000  1
  H  H76  1  0.99210000  0.59480000  0.49180000  1
  H  H77  1  0.38520000  0.58420000  0.91040000  1
  H  H78  1  0.98070000  0.58270000  0.42730000  1
  H  H79  1  0.89110000  0.58210000  0.20360000  1
  H  H80  1  0.87060000  0.57730000  0.66460000  1
  H  H81  1  0.48200000  0.57550000  0.85090000  1
  H  H82  1  0.48710000  0.57170000  0.97990000  1
  H  H83  1  0.96540000  0.56390000  0.35540000  1
  H  H84  1  0.89990000  0.56300000  0.59210000  1
  H  H85  1  0.92960000  0.56160000  0.52790000  1
  H  H86  1  0.02850000  0.54720000  0.82560000  1
  H  H87  1  0.67080000  0.54350000  0.35330000  1
  H  H88  1  0.51170000  0.54230000  0.18410000  1
  H  H89  1  0.12180000  0.51600000  0.74680000  1
  H  H90  1  0.21720000  0.51480000  0.80620000  1
  H  H91  1  0.50560000  0.51080000  0.61330000  1
  H  H92  1  0.49440000  0.48920000  0.11330000  1
  H  H93  1  0.78280000  0.48520000  0.30620000  1
  H  H94  1  0.87820000  0.48400000  0.24680000  1
  H  H95  1  0.48830000  0.45770000  0.68410000  1
  H  H96  1  0.32920000  0.45650000  0.85330000  1
  H  H97  1  0.97150000  0.45280000  0.32560000  1
  H  H98  1  0.07040000  0.43840000  0.02790000  1
  H  H99  1  0.10010000  0.43700000  0.09210000  1
  H  H100  1  0.03460000  0.43610000  0.85540000  1
  H  H101  1  0.51290000  0.42830000  0.47990000  1
  H  H102  1  0.51800000  0.42450000  0.35090000  1
  H  H103  1  0.12940000  0.42270000  0.16460000  1
  H  H104  1  0.10890000  0.41790000  0.70360000  1
  H  H105  1  0.01930000  0.41730000  0.92730000  1
  H  H106  1  0.61480000  0.41580000  0.41040000  1
  H  H107  1  0.00790000  0.40520000  0.99180000  1
  H  H108  1  0.48760000  0.40180000  0.27240000  1
  H  H109  1  0.01000000  0.40170000  0.21420000  1
  H  H110  1  0.77710000  0.40080000  0.98740000  1
  H  H111  1  0.01170000  0.39840000  0.57410000  1
  H  H112  1  0.86310000  0.38370000  0.18950000  1
  H  H113  1  0.75550000  0.37070000  0.12850000  1
  H  H114  1  0.75710000  0.36580000  0.40230000  1
  H  H115  1  0.47570000  0.36100000  0.72820000  1
  H  H116  1  0.99540000  0.35960000  0.36970000  1
  H  H117  1  0.80770000  0.32040000  0.33780000  1
  H  H118  1  0.19570000  0.32030000  0.71770000  1
  H  H119  1  0.25820000  0.31040000  0.92540000  1
  H  H120  1  0.01280000  0.31010000  0.44260000  1
  H  H121  1  0.15130000  0.30500000  0.86460000  1
  H  H122  1  0.85680000  0.30250000  0.26520000  1
  H  H123  1  0.64170000  0.29570000  0.16960000  1
  H  H124  1  0.00600000  0.28760000  0.83790000  1
  H  H125  1  0.99700000  0.27190000  0.05780000  1
  H  H126  1  0.43790000  0.26400000  0.52150000  1
  H  H127  1  0.00630000  0.26320000  0.12340000  1
  H  H128  1  0.88480000  0.26110000  0.88590000  1
  H  H129  1  0.81390000  0.26060000  0.22630000  1
  H  H130  1  0.41180000  0.25910000  0.45610000  1
  H  H131  1  0.72600000  0.25770000  0.56470000  1
  H  H132  1  0.48280000  0.25030000  0.69630000  1
  H  H133  1  0.95690000  0.25000000  0.34950000  1
  H  H134  1  0.45690000  0.25000000  0.84950000  1
  H  H135  1  0.98280000  0.24970000  0.19630000  1
  H  H136  1  0.22600000  0.24230000  0.06470000  1
  H  H137  1  0.91180000  0.24090000  0.95610000  1
  H  H138  1  0.31390000  0.23940000  0.72630000  1
  H  H139  1  0.38480000  0.23890000  0.38590000  1
  H  H140  1  0.50630000  0.23680000  0.62340000  1
  H  H141  1  0.93790000  0.23600000  0.02150000  1
  H  H142  1  0.49700000  0.22810000  0.55780000  1
  H  H143  1  0.50600000  0.21240000  0.33790000  1
  H  H144  1  0.14170000  0.20430000  0.66960000  1
  H  H145  1  0.35680000  0.19750000  0.76520000  1
  H  H146  1  0.65130000  0.19500000  0.36460000  1
  H  H147  1  0.51280000  0.18990000  0.94260000  1
  H  H148  1  0.75820000  0.18960000  0.42540000  1
  H  H149  1  0.69570000  0.17970000  0.21770000  1
  H  H150  1  0.30770000  0.17960000  0.83780000  1
  H  H151  1  0.49540000  0.14040000  0.86970000  1
  H  H152  1  0.97570000  0.13900000  0.22820000  1
  H  H153  1  0.25710000  0.13420000  0.90230000  1
  H  H154  1  0.25550000  0.12930000  0.62850000  1
  H  H155  1  0.36310000  0.11630000  0.68950000  1
  H  H156  1  0.51170000  0.10160000  0.07410000  1
  H  H157  1  0.27710000  0.09920000  0.48740000  1
  H  H158  1  0.51000000  0.09830000  0.71420000  1
  H  H159  1  0.98760000  0.09820000  0.77240000  1
  H  H160  1  0.50790000  0.09480000  0.49180000  1
  H  H161  1  0.11480000  0.08420000  0.91040000  1
  H  H162  1  0.51930000  0.08270000  0.42730000  1
  H  H163  1  0.60890000  0.08210000  0.20360000  1
  H  H164  1  0.62940000  0.07730000  0.66460000  1
  H  H165  1  0.01800000  0.07550000  0.85090000  1
  H  H166  1  0.01290000  0.07170000  0.97990000  1
  H  H167  1  0.53460000  0.06390000  0.35540000  1
  H  H168  1  0.60010000  0.06300000  0.59210000  1
  H  H169  1  0.57040000  0.06160000  0.52790000  1
  H  H170  1  0.47150000  0.04720000  0.82560000  1
  H  H171  1  0.82920000  0.04350000  0.35330000  1
  H  H172  1  0.98830000  0.04230000  0.18410000  1
  H  H173  1  0.37820000  0.01600000  0.74680000  1
  H  H174  1  0.28280000  0.01480000  0.80620000  1
  H  H175  1  0.99440000  0.01080000  0.61330000  1
  C  C176  1  0.49890000  0.98900000  0.49331000  1
  C  C177  1  0.50650000  0.98010000  0.44669000  1
  C  C178  1  0.34420000  0.97610000  0.75340000  1
  C  C179  1  0.28720000  0.97520000  0.78870000  1
  C  C180  1  0.47410000  0.97420000  0.87390000  1
  C  C181  1  0.00960000  0.97160000  0.02876000  1
  C  C182  1  0.99530000  0.96700000  0.59999000  1
  C  C183  1  0.99080000  0.96310000  0.55534000  1
  C  C184  1  0.48230000  0.96280000  0.91673000  1
  C  C185  1  0.52210000  0.95900000  0.35560000  1
  C  C186  1  0.49040000  0.94050000  0.01453000  1
  C  C187  1  0.49290000  0.92910000  0.51850000  1
  C  C188  1  0.44790000  0.92530000  0.11094000  1
  C  C189  1  0.56190000  0.92117000  0.04901000  1
  C  C190  1  0.43090000  0.91810000  0.15440000  1
  C  C191  1  0.35120000  0.91760000  0.72744000  1
  C  C192  1  0.17340000  0.91730000  0.83541000  1
  C  C193  1  0.23520000  0.91620000  0.79938000  1
  C  C194  1  0.53970000  0.91493000  0.09397000  1
  C  C195  1  0.01020000  0.91340000  0.67160000  1
  C  C196  1  0.50180000  0.91170000  0.42820000  1
  C  C197  1  0.00120000  0.90770000  0.62605000  1
  C  C198  1  0.65100000  0.90530000  0.03581000  1
  C  C199  1  0.50910000  0.90400000  0.38189000  1
  C  C200  1  0.50260000  0.90390000  0.18445000  1
  C  C201  1  0.92480000  0.90270000  0.34793000  1
  C  C202  1  0.86710000  0.89830000  0.38338000  1
  C  C203  1  0.60970000  0.89750000  0.12427000  1
  C  C204  1  0.99260000  0.89700000  0.53538000  1
  C  C205  1  0.58970000  0.89350000  0.16980000  1
  C  C206  1  0.71990000  0.88460000  0.06588000  1
  C  C207  1  0.69850000  0.88250000  0.10863000  1
  C  C208  1  0.95520000  0.87990000  0.26986000  1
  C  C209  1  0.89880000  0.87480000  0.30695000  1
  C  C210  1  0.78200000  0.86760000  0.37819000  1
  C  C211  1  0.81630000  0.86580000  0.05102000  1
  C  C212  1  0.99520000  0.86490000  0.19253000  1
  C  C213  1  0.05700000  0.86370000  0.88332000  1
  C  C214  1  0.11760000  0.86110000  0.84406000  1
  C  C215  1  0.48440000  0.86080000  0.49978000  1
  C  C216  1  0.29990000  0.85860000  0.73625000  1
  C  C217  1  0.01690000  0.85610000  0.69820000  1
  C  C218  1  0.24080000  0.85520000  0.77292000  1
  C  C219  1  0.49060000  0.85440000  0.45504000  1
  C  C220  1  0.93000000  0.85420000  0.23055000  1
  C  C221  1  0.99680000  0.84070000  0.60575000  1
  C  C222  1  0.81200000  0.84030000  0.30241000  1
  C  C223  1  0.75130000  0.83960000  0.33980000  1
  C  C224  1  0.99330000  0.83430000  0.55945000  1
  C  C225  1  0.84280000  0.81970000  0.22683000  1
  C  C226  1  0.78390000  0.81170000  0.26245000  1
  C  C227  1  0.17230000  0.80590000  0.00273000  1
  C  C228  1  0.12140000  0.80090000  0.81654000  1
  C  C229  1  0.47670000  0.79760000  0.52722000  1
  C  C230  1  0.28860000  0.79670000  0.94438000  1
  C  C231  1  0.18450000  0.79550000  0.78308000  1
  C  C232  1  0.39640000  0.79250000  0.88341000  1
  C  C233  1  0.01210000  0.78980000  0.67880000  1
  C  C234  1  0.26910000  0.78950000  0.98728000  1
  C  C235  1  0.37850000  0.78390000  0.92745000  1
  C  C236  1  0.48240000  0.78270000  0.86770000  1
  C  C237  1  0.00000000  0.78160000  0.63480000  1
  C  C238  1  0.69370000  0.77170000  0.25702000  1
  C  C239  1  0.34130000  0.76750000  0.01745000  1
  C  C240  1  0.55520000  0.76510000  0.89660000  1
  C  C241  1  0.00240000  0.76480000  0.53594000  1
  C  C242  1  0.44930000  0.76290000  0.95729000  1
  C  C243  1  0.53940000  0.75450000  0.93830000  1
  C  C244  1  0.42970000  0.75360000  0.00248000  1
  C  C245  1  0.92970000  0.74640000  0.50248000  1
  C  C246  1  0.03940000  0.74550000  0.43830000  1
  C  C247  1  0.94930000  0.73710000  0.45729000  1
  C  C248  1  0.50240000  0.73520000  0.03594000  1
  C  C249  1  0.05520000  0.73490000  0.39660000  1
  C  C250  1  0.84130000  0.73250000  0.51745000  1
  C  C251  1  0.19370000  0.72830000  0.75702000  1
  C  C252  1  0.50000000  0.71840000  0.13480000  1
  C  C253  1  0.98240000  0.71730000  0.36770000  1
  C  C254  1  0.87850000  0.71610000  0.42745000  1
  C  C255  1  0.76910000  0.71050000  0.48728000  1
  C  C256  1  0.51210000  0.71020000  0.17880000  1
  C  C257  1  0.89640000  0.70750000  0.38341000  1
  C  C258  1  0.68450000  0.70450000  0.28308000  1
  C  C259  1  0.78860000  0.70330000  0.44438000  1
  C  C260  1  0.97670000  0.70240000  0.02722000  1
  C  C261  1  0.62140000  0.69910000  0.31654000  1
  C  C262  1  0.67230000  0.69410000  0.50273000  1
  C  C263  1  0.28390000  0.68830000  0.76245000  1
  C  C264  1  0.34280000  0.68030000  0.72683000  1
  C  C265  1  0.49330000  0.66570000  0.05945000  1
  C  C266  1  0.25130000  0.66040000  0.83980000  1
  C  C267  1  0.31200000  0.65970000  0.80241000  1
  C  C268  1  0.49680000  0.65930000  0.10575000  1
  C  C269  1  0.43000000  0.64580000  0.73055000  1
  C  C270  1  0.99060000  0.64560000  0.95504000  1
  C  C271  1  0.74080000  0.64480000  0.27292000  1
  C  C272  1  0.51690000  0.64390000  0.19820000  1
  C  C273  1  0.79990000  0.64140000  0.23625000  1
  C  C274  1  0.98440000  0.63920000  0.99978000  1
  C  C275  1  0.61760000  0.63890000  0.34406000  1
  C  C276  1  0.55700000  0.63630000  0.38332000  1
  C  C277  1  0.49520000  0.63510000  0.69253000  1
  C  C278  1  0.31630000  0.63420000  0.55102000  1
  C  C279  1  0.28200000  0.63240000  0.87819000  1
  C  C280  1  0.39880000  0.62520000  0.80695000  1
  C  C281  1  0.45520000  0.62010000  0.76986000  1
  C  C282  1  0.19850000  0.61750000  0.60863000  1
  C  C283  1  0.21990000  0.61540000  0.56588000  1
  C  C284  1  0.08970000  0.60650000  0.66980000  1
  C  C285  1  0.49260000  0.60300000  0.03538000  1
  C  C286  1  0.10970000  0.60250000  0.62427000  1
  C  C287  1  0.36710000  0.60170000  0.88338000  1
  C  C288  1  0.42480000  0.59730000  0.84793000  1
  C  C289  1  0.00260000  0.59610000  0.68445000  1
  C  C290  1  0.00910000  0.59600000  0.88189000  1
  C  C291  1  0.15100000  0.59470000  0.53581000  1
  C  C292  1  0.50120000  0.59230000  0.12605000  1
  C  C293  1  0.00180000  0.58830000  0.92820000  1
  C  C294  1  0.51020000  0.58660000  0.17160000  1
  C  C295  1  0.03970000  0.58507000  0.59397000  1
  C  C296  1  0.73520000  0.58380000  0.29938000  1
  C  C297  1  0.67340000  0.58270000  0.33541000  1
  C  C298  1  0.85120000  0.58240000  0.22744000  1
  C  C299  1  0.93090000  0.58190000  0.65440000  1
  C  C300  1  0.06190000  0.57883000  0.54901000  1
  C  C301  1  0.94790000  0.57470000  0.61094000  1
  C  C302  1  0.99290000  0.57090000  0.01850000  1
  C  C303  1  0.99040000  0.55950000  0.51453000  1
  C  C304  1  0.02210000  0.54100000  0.85560000  1
  C  C305  1  0.98230000  0.53720000  0.41673000  1
  C  C306  1  0.49080000  0.53690000  0.05534000  1
  C  C307  1  0.49530000  0.53300000  0.09999000  1
  C  C308  1  0.50960000  0.52840000  0.52876000  1
  C  C309  1  0.97410000  0.52580000  0.37390000  1
  C  C310  1  0.78720000  0.52480000  0.28870000  1
  C  C311  1  0.84420000  0.52390000  0.25340000  1
  C  C312  1  0.00650000  0.51990000  0.94669000  1
  C  C313  1  0.99890000  0.51100000  0.99331000  1
  C  C314  1  0.00110000  0.48900000  0.49331000  1
  C  C315  1  0.99350000  0.48010000  0.44669000  1
  C  C316  1  0.15580000  0.47610000  0.75340000  1
  C  C317  1  0.21280000  0.47520000  0.78870000  1
  C  C318  1  0.02590000  0.47420000  0.87390000  1
  C  C319  1  0.49040000  0.47160000  0.02876000  1
  C  C320  1  0.50470000  0.46700000  0.59999000  1
  C  C321  1  0.50920000  0.46310000  0.55534000  1
  C  C322  1  0.01770000  0.46280000  0.91673000  1
  C  C323  1  0.97790000  0.45900000  0.35560000  1
  C  C324  1  0.00960000  0.44050000  0.01453000  1
  C  C325  1  0.00710000  0.42910000  0.51850000  1
  C  C326  1  0.05210000  0.42530000  0.11094000  1
  C  C327  1  0.93810000  0.42117000  0.04901000  1
  C  C328  1  0.06910000  0.41810000  0.15440000  1
  C  C329  1  0.14880000  0.41760000  0.72744000  1
  C  C330  1  0.32660000  0.41730000  0.83541000  1
  C  C331  1  0.26480000  0.41620000  0.79938000  1
  C  C332  1  0.96030000  0.41493000  0.09397000  1
  C  C333  1  0.48980000  0.41340000  0.67160000  1
  C  C334  1  0.99820000  0.41170000  0.42820000  1
  C  C335  1  0.49880000  0.40770000  0.62605000  1
  C  C336  1  0.84900000  0.40530000  0.03581000  1
  C  C337  1  0.99090000  0.40400000  0.38189000  1
  C  C338  1  0.99740000  0.40390000  0.18445000  1
  C  C339  1  0.57520000  0.40270000  0.34793000  1
  C  C340  1  0.63290000  0.39830000  0.38338000  1
  C  C341  1  0.89030000  0.39750000  0.12427000  1
  C  C342  1  0.50740000  0.39700000  0.53538000  1
  C  C343  1  0.91030000  0.39350000  0.16980000  1
  C  C344  1  0.78010000  0.38460000  0.06588000  1
  C  C345  1  0.80150000  0.38250000  0.10863000  1
  C  C346  1  0.54480000  0.37990000  0.26986000  1
  C  C347  1  0.60120000  0.37480000  0.30695000  1
  C  C348  1  0.71800000  0.36760000  0.37819000  1
  C  C349  1  0.68370000  0.36580000  0.05102000  1
  C  C350  1  0.50480000  0.36490000  0.19253000  1
  C  C351  1  0.44300000  0.36370000  0.88332000  1
  C  C352  1  0.38240000  0.36110000  0.84406000  1
  C  C353  1  0.01560000  0.36080000  0.49978000  1
  C  C354  1  0.20010000  0.35860000  0.73625000  1
  C  C355  1  0.48310000  0.35610000  0.69820000  1
  C  C356  1  0.25920000  0.35520000  0.77292000  1
  C  C357  1  0.00940000  0.35440000  0.45504000  1
  C  C358  1  0.57000000  0.35420000  0.23055000  1
  C  C359  1  0.50320000  0.34070000  0.60575000  1
  C  C360  1  0.68800000  0.34030000  0.30241000  1
  C  C361  1  0.74870000  0.33960000  0.33980000  1
  C  C362  1  0.50670000  0.33430000  0.55945000  1
  C  C363  1  0.65720000  0.31970000  0.22683000  1
  C  C364  1  0.71610000  0.31170000  0.26245000  1
  C  C365  1  0.32770000  0.30590000  0.00273000  1
  C  C366  1  0.37860000  0.30090000  0.81654000  1
  C  C367  1  0.02330000  0.29760000  0.52722000  1
  C  C368  1  0.21140000  0.29670000  0.94438000  1
  C  C369  1  0.31550000  0.29550000  0.78308000  1
  C  C370  1  0.10360000  0.29250000  0.88341000  1
  C  C371  1  0.48790000  0.28980000  0.67880000  1
  C  C372  1  0.23090000  0.28950000  0.98728000  1
  C  C373  1  0.12150000  0.28390000  0.92745000  1
  C  C374  1  0.01760000  0.28270000  0.86770000  1
  C  C375  1  0.50000000  0.28160000  0.63480000  1
  C  C376  1  0.80630000  0.27170000  0.25702000  1
  C  C377  1  0.15870000  0.26750000  0.01745000  1
  C  C378  1  0.94480000  0.26510000  0.89660000  1
  C  C379  1  0.49760000  0.26480000  0.53594000  1
  C  C380  1  0.05070000  0.26290000  0.95729000  1
  C  C381  1  0.96060000  0.25450000  0.93830000  1
  C  C382  1  0.07030000  0.25360000  0.00248000  1
  C  C383  1  0.57030000  0.24640000  0.50248000  1
  C  C384  1  0.46060000  0.24550000  0.43830000  1
  C  C385  1  0.55070000  0.23710000  0.45729000  1
  C  C386  1  0.99760000  0.23520000  0.03594000  1
  C  C387  1  0.44480000  0.23490000  0.39660000  1
  C  C388  1  0.65870000  0.23250000  0.51745000  1
  C  C389  1  0.30630000  0.22830000  0.75702000  1
  C  C390  1  0.00000000  0.21840000  0.13480000  1
  C  C391  1  0.51760000  0.21730000  0.36770000  1
  C  C392  1  0.62150000  0.21610000  0.42745000  1
  C  C393  1  0.73090000  0.21050000  0.48728000  1
  C  C394  1  0.98790000  0.21020000  0.17880000  1
  C  C395  1  0.60360000  0.20750000  0.38341000  1
  C  C396  1  0.81550000  0.20450000  0.28308000  1
  C  C397  1  0.71140000  0.20330000  0.44438000  1
  C  C398  1  0.52330000  0.20240000  0.02722000  1
  C  C399  1  0.87860000  0.19910000  0.31654000  1
  C  C400  1  0.82770000  0.19410000  0.50273000  1
  C  C401  1  0.21610000  0.18830000  0.76245000  1
  C  C402  1  0.15720000  0.18030000  0.72683000  1
  C  C403  1  0.00670000  0.16570000  0.05945000  1
  C  C404  1  0.24870000  0.16040000  0.83980000  1
  C  C405  1  0.18800000  0.15970000  0.80241000  1
  C  C406  1  0.00320000  0.15930000  0.10575000  1
  C  C407  1  0.07000000  0.14580000  0.73055000  1
  C  C408  1  0.50940000  0.14560000  0.95504000  1
  C  C409  1  0.75920000  0.14480000  0.27292000  1
  C  C410  1  0.98310000  0.14390000  0.19820000  1
  C  C411  1  0.70010000  0.14140000  0.23625000  1
  C  C412  1  0.51560000  0.13920000  0.99978000  1
  C  C413  1  0.88240000  0.13890000  0.34406000  1
  C  C414  1  0.94300000  0.13630000  0.38332000  1
  C  C415  1  0.00480000  0.13510000  0.69253000  1
  C  C416  1  0.18370000  0.13420000  0.55102000  1
  C  C417  1  0.21800000  0.13240000  0.87819000  1
  C  C418  1  0.10120000  0.12520000  0.80695000  1
  C  C419  1  0.04480000  0.12010000  0.76986000  1
  C  C420  1  0.30150000  0.11750000  0.60863000  1
  C  C421  1  0.28010000  0.11540000  0.56588000  1
  C  C422  1  0.41030000  0.10650000  0.66980000  1
  C  C423  1  0.00740000  0.10300000  0.03538000  1
  C  C424  1  0.39030000  0.10250000  0.62427000  1
  C  C425  1  0.13290000  0.10170000  0.88338000  1
  C  C426  1  0.07520000  0.09730000  0.84793000  1
  C  C427  1  0.49740000  0.09610000  0.68445000  1
  C  C428  1  0.49090000  0.09600000  0.88189000  1
  C  C429  1  0.34900000  0.09470000  0.53581000  1
  C  C430  1  0.99880000  0.09230000  0.12605000  1
  C  C431  1  0.49820000  0.08830000  0.92820000  1
  C  C432  1  0.98980000  0.08660000  0.17160000  1
  C  C433  1  0.46030000  0.08507000  0.59397000  1
  C  C434  1  0.76480000  0.08380000  0.29938000  1
  C  C435  1  0.82660000  0.08270000  0.33541000  1
  C  C436  1  0.64880000  0.08240000  0.22744000  1
  C  C437  1  0.56910000  0.08190000  0.65440000  1
  C  C438  1  0.43810000  0.07883000  0.54901000  1
  C  C439  1  0.55210000  0.07470000  0.61094000  1
  C  C440  1  0.50710000  0.07090000  0.01850000  1
  C  C441  1  0.50960000  0.05950000  0.51453000  1
  C  C442  1  0.47790000  0.04100000  0.85560000  1
  C  C443  1  0.51770000  0.03720000  0.41673000  1
  C  C444  1  0.00920000  0.03690000  0.05534000  1
  C  C445  1  0.00470000  0.03300000  0.09999000  1
  C  C446  1  0.99040000  0.02840000  0.52876000  1
  C  C447  1  0.52590000  0.02580000  0.37390000  1
  C  C448  1  0.71280000  0.02480000  0.28870000  1
  C  C449  1  0.65580000  0.02390000  0.25340000  1
  C  C450  1  0.49350000  0.01990000  0.94669000  1
  C  C451  1  0.50110000  0.01100000  0.99331000  1
  O  O452  1  0.99840000  0.97505000  0.98830000  1
  O  O453  1  0.49340000  0.93686000  0.56244000  1
  O  O454  1  0.05380000  0.91694000  0.90627000  1
  O  O455  1  0.01990000  0.91296000  0.04704000  1
  O  O456  1  0.66840000  0.90975000  0.99200000  1
  O  O457  1  0.06950000  0.89260000  0.19823000  1
  O  O458  1  0.99430000  0.88995000  0.49129000  1
  O  O459  1  0.83970000  0.87956000  0.01246000  1
  O  O460  1  0.96720000  0.84020000  0.15545000  1
  O  O461  1  0.86861000  0.83700000  0.07915000  1
  O  O462  1  0.11850000  0.83201000  0.97669000  1
  O  O463  1  0.00950000  0.80943000  0.89382000  1
  O  O464  1  0.48020000  0.80304000  0.56870000  1
  O  O465  1  0.81490000  0.79410000  0.18675000  1
  O  O466  1  0.15370000  0.79265000  0.04334000  1
  O  O467  1  0.97060000  0.76260000  0.01052000  1
  O  O468  1  0.32420000  0.76127000  0.06104000  1
  O  O469  1  0.56310000  0.75302000  0.32449000  1
  O  O470  1  0.06310000  0.74698000  0.82449000  1
  O  O471  1  0.82420000  0.73873000  0.56104000  1
  O  O472  1  0.47060000  0.73740000  0.51052000  1
  O  O473  1  0.65370000  0.70735000  0.54334000  1
  O  O474  1  0.31490000  0.70590000  0.68675000  1
  O  O475  1  0.98020000  0.69696000  0.06870000  1
  O  O476  1  0.50950000  0.69057000  0.39382000  1
  O  O477  1  0.61850000  0.66799000  0.47669000  1
  O  O478  1  0.36861000  0.66300000  0.57915000  1
  O  O479  1  0.46720000  0.65980000  0.65545000  1
  O  O480  1  0.33970000  0.62044000  0.51246000  1
  O  O481  1  0.49430000  0.61005000  0.99129000  1
  O  O482  1  0.56950000  0.60740000  0.69823000  1
  O  O483  1  0.16840000  0.59025000  0.49200000  1
  O  O484  1  0.51990000  0.58704000  0.54704000  1
  O  O485  1  0.55380000  0.58306000  0.40627000  1
  O  O486  1  0.99340000  0.56314000  0.06244000  1
  O  O487  1  0.49840000  0.52495000  0.48830000  1
  O  O488  1  0.50160000  0.47505000  0.98830000  1
  O  O489  1  0.00660000  0.43686000  0.56244000  1
  O  O490  1  0.44620000  0.41694000  0.90627000  1
  O  O491  1  0.48010000  0.41296000  0.04704000  1
  O  O492  1  0.83160000  0.40975000  0.99200000  1
  O  O493  1  0.43050000  0.39260000  0.19823000  1
  O  O494  1  0.50570000  0.38995000  0.49129000  1
  O  O495  1  0.66030000  0.37956000  0.01246000  1
  O  O496  1  0.53280000  0.34020000  0.15545000  1
  O  O497  1  0.63139000  0.33700000  0.07915000  1
  O  O498  1  0.38150000  0.33201000  0.97669000  1
  O  O499  1  0.49050000  0.30943000  0.89382000  1
  O  O500  1  0.01980000  0.30304000  0.56870000  1
  O  O501  1  0.68510000  0.29410000  0.18675000  1
  O  O502  1  0.34630000  0.29265000  0.04334000  1
  O  O503  1  0.52940000  0.26260000  0.01052000  1
  O  O504  1  0.17580000  0.26127000  0.06104000  1
  O  O505  1  0.93690000  0.25302000  0.32449000  1
  O  O506  1  0.43690000  0.24698000  0.82449000  1
  O  O507  1  0.67580000  0.23873000  0.56104000  1
  O  O508  1  0.02940000  0.23740000  0.51052000  1
  O  O509  1  0.84630000  0.20735000  0.54334000  1
  O  O510  1  0.18510000  0.20590000  0.68675000  1
  O  O511  1  0.51980000  0.19696000  0.06870000  1
  O  O512  1  0.99050000  0.19057000  0.39382000  1
  O  O513  1  0.88150000  0.16799000  0.47669000  1
  O  O514  1  0.13139000  0.16300000  0.57915000  1
  O  O515  1  0.03280000  0.15980000  0.65545000  1
  O  O516  1  0.16030000  0.12044000  0.51246000  1
  O  O517  1  0.00570000  0.11005000  0.99129000  1
  O  O518  1  0.93050000  0.10740000  0.69823000  1
  O  O519  1  0.33160000  0.09025000  0.49200000  1
  O  O520  1  0.98010000  0.08704000  0.54704000  1
  O  O521  1  0.94620000  0.08306000  0.40627000  1
  O  O522  1  0.50660000  0.06314000  0.06244000  1
  O  O523  1  0.00160000  0.02495000  0.48830000  1
