# generated using pymatgen
data_TbHC22(Cl2O)6
_symmetry_space_group_name_H-M   'P 1'
_cell_length_a   28.48600000
_cell_length_b   28.48600000
_cell_length_c   30.82912615
_cell_angle_alpha   117.51612139
_cell_angle_beta   117.51612139
_cell_angle_gamma   90.00000000
_symmetry_Int_Tables_number   1
_chemical_formula_structural   TbHC22(Cl2O)6
_chemical_formula_sum   'Tb8 H8 C176 Cl96 O48'
_cell_volume   18938.48280244
_cell_formula_units_Z   8
loop_
 _symmetry_equiv_pos_site_id
 _symmetry_equiv_pos_as_xyz
  1  'x, y, z'
loop_
 _atom_site_type_symbol
 _atom_site_label
 _atom_site_symmetry_multiplicity
 _atom_site_fract_x
 _atom_site_fract_y
 _atom_site_fract_z
 _atom_site_occupancy
  C  C0  1  0.17557000  0.26227000  0.35034000  1
  C  C1  1  0.82523000  0.41193000  0.64966000  1
  C  C2  1  0.08260000  0.14640000  0.16400000  1
  C  C3  1  0.91860000  0.48240000  0.83600000  1
  C  C4  1  0.18930000  0.55610000  0.37580000  1
  C  C5  1  0.81350000  0.68030000  0.62420000  1
  C  C6  1  0.04860000  0.04760000  0.08700000  1
  C  C7  1  0.96160000  0.46060000  0.91300000  1
  C  C8  1  0.12030000  0.19040000  0.21840000  1
  C  C9  1  0.90190000  0.47200000  0.78160000  1
  C  C10  1  0.08800000  0.09440000  0.14600000  1
  C  C11  1  0.94200000  0.44840000  0.85400000  1
  C  C12  1  0.16430000  0.18360000  0.25800000  1
  C  C13  1  0.90630000  0.42560000  0.74200000  1
  C  C14  1  0.21820000  0.61820000  0.35640000  1
  C  C15  1  0.94840000  0.40340000  0.81680000  1
  C  C16  1  0.86180000  0.76180000  0.64360000  1
  C  C17  1  0.13160000  0.08660000  0.18320000  1
  C  C18  1  0.24450000  0.55520000  0.40480000  1
  C  C19  1  0.83970000  0.65040000  0.59520000  1
  C  C20  1  0.20190000  0.22920000  0.31900000  1
  C  C21  1  0.88290000  0.41020000  0.68100000  1
  C  C22  1  0.17110000  0.13150000  0.24000000  1
  C  C23  1  0.93110000  0.39150000  0.76000000  1
  C  C24  1  0.27280000  0.61770000  0.38520000  1
  C  C25  1  0.88760000  0.73250000  0.61480000  1
  C  C26  1  0.28660000  0.58550000  0.40860000  1
  C  C27  1  0.87800000  0.67690000  0.59140000  1
  C  C28  1  0.26220000  0.24770000  0.34380000  1
  C  C29  1  0.91840000  0.40390000  0.65620000  1
  C  C30  1  0.29930000  0.26030000  0.39860000  1
  C  C31  1  0.90070000  0.36170000  0.60140000  1
  C  C32  1  0.15040000  0.25550000  0.09520000  1
  C  C33  1  0.05520000  0.66030000  0.90480000  1
  C  C34  1  0.14240000  0.15210000  0.05780000  1
  C  C35  1  0.08460000  0.59430000  0.94220000  1
  C  C36  1  0.18030000  0.31070000  0.12420000  1
  C  C37  1  0.05610000  0.68650000  0.87580000  1
  C  C38  1  0.34790000  0.58460000  0.44220000  1
  C  C39  1  0.90570000  0.64240000  0.55780000  1
  C  C40  1  0.28450000  0.25450000  0.31520000  1
  C  C41  1  0.96930000  0.43930000  0.68480000  1
  C  C42  1  0.17690000  0.21340000  0.09140000  1
  C  C43  1  0.08550000  0.62200000  0.90860000  1
  C  C44  1  0.35440000  0.28030000  0.42380000  1
  C  C45  1  0.93060000  0.35650000  0.57620000  1
  C  C46  1  0.22470000  0.50070000  0.15960000  1
  C  C47  1  0.06510000  0.84110000  0.84040000  1
  C  C48  1  0.18570000  0.50330000  0.07800000  1
  C  C49  1  0.10770000  0.92530000  0.92200000  1
  C  C50  1  0.24550000  0.46930000  0.18480000  1
  C  C51  1  0.06070000  0.78450000  0.81520000  1
  C  C52  1  0.20860000  0.48010000  0.10400000  1
  C  C53  1  0.10460000  0.87610000  0.89600000  1
  C  C54  1  0.23773000  0.32523000  0.14966000  1
  C  C55  1  0.08807000  0.67557000  0.85034000  1
  C  C56  1  0.30960000  0.40190000  0.28160000  1
  C  C57  1  0.02800000  0.62030000  0.71840000  1
  C  C58  1  0.34110000  0.27530000  0.34040000  1
  C  C59  1  0.00070000  0.43490000  0.65960000  1
  C  C60  1  0.25230000  0.41840000  0.15620000  1
  C  C61  1  0.09610000  0.76220000  0.84380000  1
  C  C62  1  0.23250000  0.22720000  0.11480000  1
  C  C63  1  0.11770000  0.61240000  0.88520000  1
  C  C64  1  0.37610000  0.29140000  0.39600000  1
  C  C65  1  0.98010000  0.39540000  0.60400000  1
  C  C66  1  0.27080000  0.38290000  0.18100000  1
  C  C67  1  0.08980000  0.70190000  0.81900000  1
  C  C68  1  0.21970000  0.43060000  0.07620000  1
  C  C69  1  0.14350000  0.85440000  0.92380000  1
  C  C70  1  0.35360000  0.41860000  0.33600000  1
  C  C71  1  0.01760000  0.58260000  0.66400000  1
  C  C72  1  0.23970000  0.40070000  0.10140000  1
  C  C73  1  0.13830000  0.79930000  0.89860000  1
  C  C74  1  0.26180000  0.28180000  0.14360000  1
  C  C75  1  0.11820000  0.63820000  0.85640000  1
  C  C76  1  0.31640000  0.40630000  0.24200000  1
  C  C77  1  0.07440000  0.66430000  0.75800000  1
  C  C78  1  0.42530000  0.31430000  0.42200000  1
  C  C79  1  0.00330000  0.39230000  0.57800000  1
  C  C80  1  0.40560000  0.44200000  0.35400000  1
  C  C81  1  0.05160000  0.58800000  0.64600000  1
  C  C82  1  0.36850000  0.43110000  0.26000000  1
  C  C83  1  0.10850000  0.67110000  0.74000000  1
  C  C84  1  0.58660000  0.55160000  0.68320000  1
  C  C85  1  0.90340000  0.36840000  0.31680000  1
  C  C86  1  0.45240000  0.46160000  0.41300000  1
  C  C87  1  0.03940000  0.54860000  0.58700000  1
  C  C88  1  0.54760000  0.53840000  0.58700000  1
  C  C89  1  0.96060000  0.45140000  0.41300000  1
  C  C90  1  0.41340000  0.44840000  0.31680000  1
  C  C91  1  0.09660000  0.63160000  0.68320000  1
  C  C92  1  0.63150000  0.56890000  0.74000000  1
  C  C93  1  0.89150000  0.32890000  0.26000000  1
  C  C94  1  0.59440000  0.55800000  0.64600000  1
  C  C95  1  0.94840000  0.41200000  0.35400000  1
  C  C96  1  0.57470000  0.68570000  0.57800000  1
  C  C97  1  0.99670000  0.60770000  0.42200000  1
  C  C98  1  0.68360000  0.59370000  0.75800000  1
  C  C99  1  0.92560000  0.33570000  0.24200000  1
  C  C100  1  0.73820000  0.71820000  0.85640000  1
  C  C101  1  0.88180000  0.36180000  0.14360000  1
  C  C102  1  0.76030000  0.59930000  0.89860000  1
  C  C103  1  0.86170000  0.20070000  0.10140000  1
  C  C104  1  0.64640000  0.58140000  0.66400000  1
  C  C105  1  0.98240000  0.41740000  0.33600000  1
  C  C106  1  0.78030000  0.56940000  0.92380000  1
  C  C107  1  0.85650000  0.14560000  0.07620000  1
  C  C108  1  0.72920000  0.61710000  0.81900000  1
  C  C109  1  0.91020000  0.29810000  0.18100000  1
  C  C110  1  0.62390000  0.70860000  0.60400000  1
  C  C111  1  0.01990000  0.60460000  0.39600000  1
  C  C112  1  0.76750000  0.77280000  0.88520000  1
  C  C113  1  0.88230000  0.38760000  0.11480000  1
  C  C114  1  0.74770000  0.58160000  0.84380000  1
  C  C115  1  0.90390000  0.23780000  0.15620000  1
  C  C116  1  0.65890000  0.72470000  0.65960000  1
  C  C117  1  0.99930000  0.56510000  0.34040000  1
  C  C118  1  0.69040000  0.59810000  0.71840000  1
  C  C119  1  0.97200000  0.37970000  0.28160000  1
  C  C120  1  0.76227000  0.67477000  0.85034000  1
  C  C121  1  0.91193000  0.32443000  0.14966000  1
  C  C122  1  0.79140000  0.51990000  0.89600000  1
  C  C123  1  0.89540000  0.12390000  0.10400000  1
  C  C124  1  0.75450000  0.53070000  0.81520000  1
  C  C125  1  0.93930000  0.21550000  0.18480000  1
  C  C126  1  0.81430000  0.49670000  0.92200000  1
  C  C127  1  0.89230000  0.07470000  0.07800000  1
  C  C128  1  0.77530000  0.49930000  0.84040000  1
  C  C129  1  0.93490000  0.15890000  0.15960000  1
  C  C130  1  0.64560000  0.71970000  0.57620000  1
  C  C131  1  0.06940000  0.64350000  0.42380000  1
  C  C132  1  0.82310000  0.78660000  0.90860000  1
  C  C133  1  0.91450000  0.37800000  0.09140000  1
  C  C134  1  0.71550000  0.74550000  0.68480000  1
  C  C135  1  0.03070000  0.56070000  0.31520000  1
  C  C136  1  0.65210000  0.41540000  0.55780000  1
  C  C137  1  0.09430000  0.35760000  0.44220000  1
  C  C138  1  0.81970000  0.68930000  0.87580000  1
  C  C139  1  0.94390000  0.31350000  0.12420000  1
  C  C140  1  0.85760000  0.84790000  0.94220000  1
  C  C141  1  0.91540000  0.40570000  0.05780000  1
  C  C142  1  0.84960000  0.74450000  0.90480000  1
  C  C143  1  0.94480000  0.33970000  0.09520000  1
  C  C144  1  0.70070000  0.73970000  0.60140000  1
  C  C145  1  0.09930000  0.63830000  0.39860000  1
  C  C146  1  0.73780000  0.75230000  0.65620000  1
  C  C147  1  0.08160000  0.59610000  0.34380000  1
  C  C148  1  0.71340000  0.41450000  0.59140000  1
  C  C149  1  0.12200000  0.32310000  0.40860000  1
  C  C150  1  0.72720000  0.38230000  0.61480000  1
  C  C151  1  0.11240000  0.26750000  0.38520000  1
  C  C152  1  0.82890000  0.86850000  0.76000000  1
  C  C153  1  0.06890000  0.60850000  0.24000000  1
  C  C154  1  0.79810000  0.77080000  0.68100000  1
  C  C155  1  0.11710000  0.58980000  0.31900000  1
  C  C156  1  0.75550000  0.44480000  0.59520000  1
  C  C157  1  0.16030000  0.34960000  0.40480000  1
  C  C158  1  0.05160000  0.59660000  0.18320000  1
  C  C159  1  0.78180000  0.38180000  0.64360000  1
  C  C160  1  0.86840000  0.91340000  0.81680000  1
  C  C161  1  0.13820000  0.23820000  0.35640000  1
  C  C162  1  0.83570000  0.81640000  0.74200000  1
  C  C163  1  0.09370000  0.57440000  0.25800000  1
  C  C164  1  0.91200000  0.90560000  0.85400000  1
  C  C165  1  0.05800000  0.55160000  0.14600000  1
  C  C166  1  0.87970000  0.80960000  0.78160000  1
  C  C167  1  0.09810000  0.52800000  0.21840000  1
  C  C168  1  0.95140000  0.95240000  0.91300000  1
  C  C169  1  0.03840000  0.53940000  0.08700000  1
  C  C170  1  0.81070000  0.44390000  0.62420000  1
  C  C171  1  0.18650000  0.31970000  0.37580000  1
  C  C172  1  0.91740000  0.85360000  0.83600000  1
  C  C173  1  0.08140000  0.51760000  0.16400000  1
  C  C174  1  0.82443000  0.73773000  0.64966000  1
  C  C175  1  0.17477000  0.58807000  0.35034000  1
  Cl  Cl176  1  0.12295000  0.47939000  0.23492000  1
  Cl  Cl177  1  0.88803000  0.74447000  0.76508000  1
  Cl  Cl178  1  0.08828000  0.45906000  0.11642000  1
  Cl  Cl179  1  0.97186000  0.84264000  0.88358000  1
  Cl  Cl180  1  0.20567000  0.66150000  0.32926000  1
  Cl  Cl181  1  0.87641000  0.83224000  0.67074000  1
  Cl  Cl182  1  0.26121000  0.51530000  0.43498000  1
  Cl  Cl183  1  0.82623000  0.58032000  0.56502000  1
  Cl  Cl184  1  0.22980000  0.35560000  0.37122000  1
  Cl  Cl185  1  0.85858000  0.48438000  0.62878000  1
  Cl  Cl186  1  0.08032000  0.23879000  0.06502000  1
  Cl  Cl187  1  0.01530000  0.67377000  0.93498000  1
  Cl  Cl188  1  0.27833000  0.24991000  0.43816000  1
  Cl  Cl189  1  0.84017000  0.31175000  0.56184000  1
  Cl  Cl190  1  0.97822000  0.35795000  0.83686000  1
  Cl  Cl191  1  0.14136000  0.02109000  0.16314000  1
  Cl  Cl192  1  0.14440000  0.35858000  0.12878000  1
  Cl  Cl193  1  0.01562000  0.72980000  0.87122000  1
  Cl  Cl194  1  0.93855000  0.33120000  0.71434000  1
  Cl  Cl195  1  0.22421000  0.11686000  0.28566000  1
  Cl  Cl196  1  0.24447000  0.37705000  0.26508000  1
  Cl  Cl197  1  0.97939000  0.61197000  0.73492000  1
  Cl  Cl198  1  0.21609000  0.56331000  0.19802000  1
  Cl  Cl199  1  0.01807000  0.86529000  0.80198000  1
  Cl  Cl200  1  0.24165000  0.23955000  0.24456000  1
  Cl  Cl201  1  0.99709000  0.49499000  0.75544000  1
  Cl  Cl202  1  0.32347000  0.65480000  0.38908000  1
  Cl  Cl203  1  0.93439000  0.76572000  0.61092000  1
  Cl  Cl204  1  0.26045000  0.49709000  0.25544000  1
  Cl  Cl205  1  0.00501000  0.74165000  0.74456000  1
  Cl  Cl206  1  0.34264000  0.41172000  0.38358000  1
  Cl  Cl207  1  0.95906000  0.52814000  0.61642000  1
  Cl  Cl208  1  0.40083000  0.29584000  0.49318000  1
  Cl  Cl209  1  0.90765000  0.30266000  0.50682000  1
  Cl  Cl210  1  0.52109000  0.52178000  0.66314000  1
  Cl  Cl211  1  0.85795000  0.35864000  0.33686000  1
  Cl  Cl212  1  0.20416000  0.40765000  0.00682000  1
  Cl  Cl213  1  0.19734000  0.90083000  0.99318000  1
  Cl  Cl214  1  0.26572000  0.17653000  0.11092000  1
  Cl  Cl215  1  0.15480000  0.56561000  0.88908000  1
  Cl  Cl216  1  0.36529000  0.28391000  0.30198000  1
  Cl  Cl217  1  0.06331000  0.48193000  0.69802000  1
  Cl  Cl218  1  0.25009000  0.34017000  0.06184000  1
  Cl  Cl219  1  0.18825000  0.77833000  0.93816000  1
  Cl  Cl220  1  0.61686000  0.56145000  0.78566000  1
  Cl  Cl221  1  0.83120000  0.27579000  0.21434000  1
  Cl  Cl222  1  0.33224000  0.29433000  0.17074000  1
  Cl  Cl223  1  0.16150000  0.62359000  0.82926000  1
  Cl  Cl224  1  0.66776000  0.70567000  0.82926000  1
  Cl  Cl225  1  0.83850000  0.37641000  0.17074000  1
  Cl  Cl226  1  0.38314000  0.43855000  0.21434000  1
  Cl  Cl227  1  0.16880000  0.72421000  0.78566000  1
  Cl  Cl228  1  0.74991000  0.65983000  0.93816000  1
  Cl  Cl229  1  0.81175000  0.22167000  0.06184000  1
  Cl  Cl230  1  0.63471000  0.71609000  0.69802000  1
  Cl  Cl231  1  0.93669000  0.51807000  0.30198000  1
  Cl  Cl232  1  0.73428000  0.82347000  0.88908000  1
  Cl  Cl233  1  0.84520000  0.43439000  0.11092000  1
  Cl  Cl234  1  0.79584000  0.59235000  0.99318000  1
  Cl  Cl235  1  0.80266000  0.09917000  0.00682000  1
  Cl  Cl236  1  0.47891000  0.47822000  0.33686000  1
  Cl  Cl237  1  0.14205000  0.64136000  0.66314000  1
  Cl  Cl238  1  0.59917000  0.70416000  0.50682000  1
  Cl  Cl239  1  0.09235000  0.69734000  0.49318000  1
  Cl  Cl240  1  0.65736000  0.58828000  0.61642000  1
  Cl  Cl241  1  0.04094000  0.47186000  0.38358000  1
  Cl  Cl242  1  0.73955000  0.50291000  0.74456000  1
  Cl  Cl243  1  0.99499000  0.25835000  0.25544000  1
  Cl  Cl244  1  0.67653000  0.34520000  0.61092000  1
  Cl  Cl245  1  0.06561000  0.23428000  0.38908000  1
  Cl  Cl246  1  0.75835000  0.76045000  0.75544000  1
  Cl  Cl247  1  0.00291000  0.50501000  0.24456000  1
  Cl  Cl248  1  0.78391000  0.43669000  0.80198000  1
  Cl  Cl249  1  0.98193000  0.13471000  0.19802000  1
  Cl  Cl250  1  0.75553000  0.62295000  0.73492000  1
  Cl  Cl251  1  0.02061000  0.38803000  0.26508000  1
  Cl  Cl252  1  0.06145000  0.66880000  0.28566000  1
  Cl  Cl253  1  0.77579000  0.88314000  0.71434000  1
  Cl  Cl254  1  0.85560000  0.64142000  0.87122000  1
  Cl  Cl255  1  0.98438000  0.27020000  0.12878000  1
  Cl  Cl256  1  0.02178000  0.64205000  0.16314000  1
  Cl  Cl257  1  0.85864000  0.97891000  0.83686000  1
  Cl  Cl258  1  0.72167000  0.75009000  0.56184000  1
  Cl  Cl259  1  0.15983000  0.68825000  0.43816000  1
  Cl  Cl260  1  0.91968000  0.76121000  0.93498000  1
  Cl  Cl261  1  0.98470000  0.32623000  0.06502000  1
  Cl  Cl262  1  0.77020000  0.64440000  0.62878000  1
  Cl  Cl263  1  0.14142000  0.51562000  0.37122000  1
  Cl  Cl264  1  0.73879000  0.48470000  0.56502000  1
  Cl  Cl265  1  0.17377000  0.41968000  0.43498000  1
  Cl  Cl266  1  0.79433000  0.33850000  0.67074000  1
  Cl  Cl267  1  0.12359000  0.16776000  0.32926000  1
  Cl  Cl268  1  0.91172000  0.54094000  0.88358000  1
  Cl  Cl269  1  0.02814000  0.15736000  0.11642000  1
  Cl  Cl270  1  0.87705000  0.52061000  0.76508000  1
  Cl  Cl271  1  0.11197000  0.25553000  0.23492000  1
  H  H272  1  0.20620000  0.20480000  0.33400000  1
  H  H273  1  0.87220000  0.37080000  0.66600000  1
  H  H274  1  0.29520000  0.37220000  0.16600000  1
  H  H275  1  0.12920000  0.70620000  0.83400000  1
  H  H276  1  0.70480000  0.62780000  0.83400000  1
  H  H277  1  0.87080000  0.29380000  0.16600000  1
  H  H278  1  0.79380000  0.79520000  0.66600000  1
  H  H279  1  0.12780000  0.62920000  0.33400000  1
  O  O280  1  0.99308000  0.97498000  0.91856000  1
  O  O281  1  0.07452000  0.55642000  0.08144000  1
  O  O282  1  0.05970000  0.03330000  0.04860000  1
  O  O283  1  0.01110000  0.48470000  0.95140000  1
  O  O284  1  0.12734000  0.13904000  0.08288000  1
  O  O285  1  0.04446000  0.55616000  0.91712000  1
  O  O286  1  0.14470000  0.50230000  0.04840000  1
  O  O287  1  0.09630000  0.95390000  0.95160000  1
  O  O288  1  0.13400000  0.12130000  0.01100000  1
  O  O289  1  0.12300000  0.61030000  0.98900000  1
  O  O290  1  0.37870000  0.62300000  0.48900000  1
  O  O291  1  0.88970000  0.63400000  0.51100000  1
  O  O292  1  0.36096000  0.54446000  0.41712000  1
  O  O293  1  0.94384000  0.62734000  0.58288000  1
  O  O294  1  0.21510000  0.54550000  0.09240000  1
  O  O295  1  0.12270000  0.95310000  0.90760000  1
  O  O296  1  0.45390000  0.35530000  0.45160000  1
  O  O297  1  0.00230000  0.40370000  0.54840000  1
  O  O298  1  0.52502000  0.57452000  0.58144000  1
  O  O299  1  0.94358000  0.49308000  0.41856000  1
  O  O300  1  0.46670000  0.51110000  0.45140000  1
  O  O301  1  0.01530000  0.55970000  0.54860000  1
  O  O302  1  0.45310000  0.28490000  0.40760000  1
  O  O303  1  0.04550000  0.37730000  0.59240000  1
  O  O304  1  0.54690000  0.71510000  0.59240000  1
  O  O305  1  0.95450000  0.62270000  0.40760000  1
  O  O306  1  0.53330000  0.48890000  0.54860000  1
  O  O307  1  0.98470000  0.44030000  0.45140000  1
  O  O308  1  0.47498000  0.42548000  0.41856000  1
  O  O309  1  0.05642000  0.50692000  0.58144000  1
  O  O310  1  0.54610000  0.64470000  0.54840000  1
  O  O311  1  0.99770000  0.59630000  0.45160000  1
  O  O312  1  0.78490000  0.45450000  0.90760000  1
  O  O313  1  0.87730000  0.04690000  0.09240000  1
  O  O314  1  0.63904000  0.45554000  0.58288000  1
  O  O315  1  0.05616000  0.37266000  0.41712000  1
  O  O316  1  0.62130000  0.37700000  0.51100000  1
  O  O317  1  0.11030000  0.36600000  0.48900000  1
  O  O318  1  0.86600000  0.87870000  0.98900000  1
  O  O319  1  0.87700000  0.38970000  0.01100000  1
  O  O320  1  0.85530000  0.49770000  0.95160000  1
  O  O321  1  0.90370000  0.04610000  0.04840000  1
  O  O322  1  0.87266000  0.86096000  0.91712000  1
  O  O323  1  0.95554000  0.44384000  0.08288000  1
  O  O324  1  0.94030000  0.96670000  0.95140000  1
  O  O325  1  0.98890000  0.51530000  0.04860000  1
  O  O326  1  0.00692000  0.02502000  0.08144000  1
  O  O327  1  0.92548000  0.44358000  0.91856000  1
  Tb  Tb328  1  0.08197000  0.04131000  0.99168000  1
  Tb  Tb329  1  0.09029000  0.54963000  0.00832000  1
  Tb  Tb330  1  0.45869000  0.59029000  0.50832000  1
  Tb  Tb331  1  0.95037000  0.58197000  0.49168000  1
  Tb  Tb332  1  0.54131000  0.40971000  0.49168000  1
  Tb  Tb333  1  0.04963000  0.41803000  0.50832000  1
  Tb  Tb334  1  0.91803000  0.95869000  0.00832000  1
  Tb  Tb335  1  0.90971000  0.45037000  0.99168000  1
