# generated using pymatgen
data_Co3H38C60(NO)12
_symmetry_space_group_name_H-M   'P 1'
_cell_length_a   13.41300000
_cell_length_b   13.75911837
_cell_length_c   23.25543543
_cell_angle_alpha   76.27621607
_cell_angle_beta   73.23875523
_cell_angle_gamma   60.82870817
_symmetry_Int_Tables_number   1
_chemical_formula_structural   Co3H38C60(NO)12
_chemical_formula_sum   'Co6 H76 C120 N24 O24'
_cell_volume   3564.18712742
_cell_formula_units_Z   2
loop_
 _symmetry_equiv_pos_site_id
 _symmetry_equiv_pos_as_xyz
  1  'x, y, z'
loop_
 _atom_site_type_symbol
 _atom_site_label
 _atom_site_symmetry_multiplicity
 _atom_site_fract_x
 _atom_site_fract_y
 _atom_site_fract_z
 _atom_site_occupancy
  C  C0  1  0.92838000  0.84464000  0.14260000  1
  C  C1  1  0.08438000  0.34464000  0.64260000  1
  C  C2  1  0.80523000  0.48444000  0.49042000  1
  C  C3  1  0.21991000  0.98444000  0.99042000  1
  C  C4  1  0.01093000  0.09642000  0.87172000  1
  C  C5  1  0.02093000  0.59642000  0.37172000  1
  C  C6  1  0.53863000  0.01611000  0.92383000  1
  C  C7  1  0.52143000  0.51611000  0.42383000  1
  C  C8  1  0.62772000  0.04061000  0.89635000  1
  C  C9  1  0.43532000  0.54061000  0.39635000  1
  C  C10  1  0.86496000  0.89876000  0.99666000  1
  C  C11  1  0.23962000  0.39876000  0.49666000  1
  C  C12  1  0.03323000  0.58205000  0.27791000  1
  C  C13  1  0.10681000  0.08205000  0.77791000  1
  C  C14  1  0.98485000  0.86530000  0.98254000  1
  C  C15  1  0.16731000  0.36530000  0.48254000  1
  C  C16  1  0.87719000  0.99584000  0.84820000  1
  C  C17  1  0.27877000  0.49584000  0.34820000  1
  C  C18  1  0.82744000  0.82126000  0.99494000  1
  C  C19  1  0.35636000  0.32126000  0.49494000  1
  C  C20  1  0.98662000  0.97960000  0.81400000  1
  C  C21  1  0.21978000  0.47960000  0.31400000  1
  C  C22  1  0.84890000  0.61976000  0.16204000  1
  C  C23  1  0.36930000  0.11976000  0.66204000  1
  C  C24  1  0.83271000  0.92651000  0.84289000  1
  C  C25  1  0.39789000  0.42651000  0.34289000  1
  C  C26  1  0.68005000  0.86469000  0.89161000  1
  C  C27  1  0.56365000  0.36469000  0.39161000  1
  C  C28  1  0.72675000  0.63959000  0.09145000  1
  C  C29  1  0.54221000  0.13959000  0.59145000  1
  C  C30  1  0.06369000  0.75909000  0.96747000  1
  C  C31  1  0.20975000  0.25909000  0.46747000  1
  C  C32  1  0.88530000  0.38719000  0.32141000  1
  C  C33  1  0.40610000  0.88719000  0.82141000  1
  C  C34  1  0.90603000  0.71667000  0.97789000  1
  C  C35  1  0.39941000  0.21667000  0.47789000  1
  C  C36  1  0.82597000  0.57662000  0.11614000  1
  C  C37  1  0.48127000  0.07662000  0.61614000  1
  C  C38  1  0.69591000  0.17558000  0.51162000  1
  C  C39  1  0.61689000  0.67558000  0.01162000  1
  C  C40  1  0.05028000  0.89774000  0.77530000  1
  C  C41  1  0.27668000  0.39774000  0.27530000  1
  C  C42  1  0.89387000  0.84498000  0.80474000  1
  C  C43  1  0.45641000  0.34498000  0.30474000  1
  C  C44  1  0.71173000  0.60126000  0.04592000  1
  C  C45  1  0.64109000  0.10126000  0.54592000  1
  C  C46  1  0.02566000  0.68314000  0.96390000  1
  C  C47  1  0.32730000  0.18314000  0.46390000  1
  C  C48  1  0.94194000  0.34748000  0.26744000  1
  C  C49  1  0.44314000  0.84748000  0.76744000  1
  C  C50  1  0.00185000  0.83206000  0.77064000  1
  C  C51  1  0.39545000  0.33206000  0.27064000  1
  C  C52  1  0.90734000  0.47380000  0.09632000  1
  C  C53  1  0.52254000  0.97380000  0.59632000  1
  C  C54  1  0.88311000  0.23035000  0.32863000  1
  C  C55  1  0.55791000  0.73035000  0.82863000  1
  C  C56  1  0.79253000  0.49591000  0.02813000  1
  C  C57  1  0.68343000  0.99591000  0.52813000  1
  C  C58  1  0.10984000  0.57044000  0.94628000  1
  C  C59  1  0.37344000  0.07044000  0.44628000  1
  C  C60  1  0.89016000  0.42956000  0.05372000  1
  C  C61  1  0.62656000  0.92956000  0.55372000  1
  C  C62  1  0.20747000  0.50409000  0.97187000  1
  C  C63  1  0.31657000  0.00409000  0.47187000  1
  C  C64  1  0.11689000  0.76965000  0.67137000  1
  C  C65  1  0.44209000  0.26965000  0.17137000  1
  C  C66  1  0.09266000  0.52620000  0.90368000  1
  C  C67  1  0.47746000  0.02620000  0.40368000  1
  C  C68  1  0.99815000  0.16794000  0.22936000  1
  C  C69  1  0.60455000  0.66794000  0.72936000  1
  C  C70  1  0.05806000  0.65252000  0.73256000  1
  C  C71  1  0.55686000  0.15252000  0.23256000  1
  C  C72  1  0.97434000  0.31686000  0.03610000  1
  C  C73  1  0.67270000  0.81686000  0.53610000  1
  C  C74  1  0.28827000  0.39874000  0.95408000  1
  C  C75  1  0.35891000  0.89874000  0.45408000  1
  C  C76  1  0.10613000  0.15502000  0.19526000  1
  C  C77  1  0.54359000  0.65502000  0.69526000  1
  C  C78  1  0.94972000  0.10226000  0.22470000  1
  C  C79  1  0.72332000  0.60226000  0.72470000  1
  C  C80  1  0.30409000  0.82442000  0.48838000  1
  C  C81  1  0.38311000  0.32442000  0.98838000  1
  C  C82  1  0.17403000  0.42338000  0.88386000  1
  C  C83  1  0.51873000  0.92338000  0.38386000  1
  C  C84  1  0.09397000  0.28333000  0.02211000  1
  C  C85  1  0.60059000  0.78333000  0.52211000  1
  C  C86  1  0.11470000  0.61281000  0.67859000  1
  C  C87  1  0.59390000  0.11281000  0.17859000  1
  C  C88  1  0.93631000  0.24091000  0.03253000  1
  C  C89  1  0.79025000  0.74091000  0.53253000  1
  C  C90  1  0.27325000  0.36041000  0.90855000  1
  C  C91  1  0.45779000  0.86041000  0.40855000  1
  C  C92  1  0.31995000  0.13531000  0.10839000  1
  C  C93  1  0.43635000  0.63531000  0.60839000  1
  C  C94  1  0.16729000  0.07349000  0.15711000  1
  C  C95  1  0.60211000  0.57349000  0.65711000  1
  C  C96  1  0.15110000  0.38024000  0.83796000  1
  C  C97  1  0.63070000  0.88024000  0.33796000  1
  C  C98  1  0.01338000  0.02040000  0.18600000  1
  C  C99  1  0.78022000  0.52040000  0.68600000  1
  C  C100  1  0.17256000  0.17874000  0.00506000  1
  C  C101  1  0.64364000  0.67874000  0.50506000  1
  C  C102  1  0.12281000  0.00416000  0.15180000  1
  C  C103  1  0.72123000  0.50416000  0.65180000  1
  C  C104  1  0.01515000  0.13470000  0.01746000  1
  C  C105  1  0.83269000  0.63470000  0.51746000  1
  C  C106  1  0.96677000  0.41795000  0.72209000  1
  C  C107  1  0.89319000  0.91795000  0.22209000  1
  C  C108  1  0.13504000  0.10124000  0.00334000  1
  C  C109  1  0.76038000  0.60124000  0.50334000  1
  C  C110  1  0.37228000  0.95939000  0.10365000  1
  C  C111  1  0.56468000  0.45939000  0.60365000  1
  C  C112  1  0.46137000  0.98389000  0.07617000  1
  C  C113  1  0.47857000  0.48389000  0.57617000  1
  C  C114  1  0.98907000  0.90358000  0.12828000  1
  C  C115  1  0.97907000  0.40358000  0.62828000  1
  C  C116  1  0.19477000  0.51556000  0.50958000  1
  C  C117  1  0.78009000  0.01556000  0.00958000  1
  C  C118  1  0.07162000  0.15536000  0.85740000  1
  C  C119  1  0.91562000  0.65536000  0.35740000  1
  Co  Co120  1  0.79648000  0.75000000  0.25000000  1
  Co  Co121  1  0.20352000  0.25000000  0.75000000  1
  Co  Co122  1  0.76344000  0.31752000  0.45030000  1
  Co  Co123  1  0.46874000  0.81752000  0.95030000  1
  Co  Co124  1  0.23656000  0.68248000  0.54970000  1
  Co  Co125  1  0.53126000  0.18248000  0.04970000  1
  H  H126  1  0.62950000  0.39040000  0.60780000  1
  H  H127  1  0.37230000  0.89040000  0.10780000  1
  H  H128  1  0.96270000  0.08940000  0.90860000  1
  H  H129  1  0.03930000  0.58940000  0.40860000  1
  H  H130  1  0.53480000  0.93350000  0.05770000  1
  H  H131  1  0.47400000  0.43350000  0.55770000  1
  H  H132  1  0.83490000  0.05150000  0.87390000  1
  H  H133  1  0.23970000  0.55150000  0.37390000  1
  H  H134  1  0.92690000  0.80400000  0.11640000  1
  H  H135  1  0.15270000  0.30400000  0.61640000  1
  H  H136  1  0.01200000  0.91550000  0.98330000  1
  H  H137  1  0.08920000  0.41550000  0.48330000  1
  H  H138  1  0.74830000  0.84050000  0.00550000  1
  H  H139  1  0.40570000  0.34050000  0.50550000  1
  H  H140  1  0.67030000  0.70760000  0.10540000  1
  H  H141  1  0.51670000  0.20760000  0.60540000  1
  H  H142  1  0.06360000  0.56200000  0.23880000  1
  H  H143  1  0.13560000  0.06200000  0.73880000  1
  H  H144  1  0.87260000  0.45460000  0.33120000  1
  H  H145  1  0.34160000  0.95460000  0.83120000  1
  H  H146  1  0.14320000  0.73780000  0.95960000  1
  H  H147  1  0.15940000  0.23780000  0.45960000  1
  H  H148  1  0.72470000  0.79070000  0.88310000  1
  H  H149  1  0.60150000  0.29070000  0.38310000  1
  H  H150  1  0.87880000  0.66730000  0.97570000  1
  H  H151  1  0.47820000  0.16730000  0.47570000  1
  H  H152  1  0.12390000  0.88700000  0.75300000  1
  H  H153  1  0.23610000  0.38700000  0.25300000  1
  H  H154  1  0.97590000  0.38140000  0.23380000  1
  H  H155  1  0.40890000  0.88140000  0.73380000  1
  H  H156  1  0.86320000  0.79900000  0.80180000  1
  H  H157  1  0.53600000  0.29900000  0.30180000  1
  H  H158  1  0.97510000  0.43310000  0.11170000  1
  H  H159  1  0.48010000  0.93310000  0.61170000  1
  H  H160  1  0.21910000  0.53060000  0.00140000  1
  H  H161  1  0.24890000  0.03060000  0.50140000  1
  H  H162  1  0.87010000  0.16760000  0.34380000  1
  H  H163  1  0.61850000  0.66760000  0.84380000  1
  H  H164  1  0.12990000  0.83240000  0.65620000  1
  H  H165  1  0.38150000  0.33240000  0.15620000  1
  H  H166  1  0.78090000  0.46940000  0.99860000  1
  H  H167  1  0.75110000  0.96940000  0.49860000  1
  H  H168  1  0.02490000  0.56690000  0.88830000  1
  H  H169  1  0.51990000  0.06690000  0.38830000  1
  H  H170  1  0.13680000  0.20100000  0.19820000  1
  H  H171  1  0.46400000  0.70100000  0.69820000  1
  H  H172  1  0.02410000  0.61860000  0.76620000  1
  H  H173  1  0.59110000  0.11860000  0.26620000  1
  H  H174  1  0.87610000  0.11300000  0.24700000  1
  H  H175  1  0.76390000  0.61300000  0.74700000  1
  H  H176  1  0.12120000  0.33270000  0.02430000  1
  H  H177  1  0.52180000  0.83270000  0.52430000  1
  H  H178  1  0.27530000  0.20930000  0.11690000  1
  H  H179  1  0.39850000  0.70930000  0.61690000  1
  H  H180  1  0.85680000  0.26220000  0.04040000  1
  H  H181  1  0.84060000  0.76220000  0.54040000  1
  H  H182  1  0.12740000  0.54540000  0.66880000  1
  H  H183  1  0.65840000  0.04540000  0.16880000  1
  H  H184  1  0.93640000  0.43800000  0.76120000  1
  H  H185  1  0.86440000  0.93800000  0.26120000  1
  H  H186  1  0.32970000  0.29240000  0.89460000  1
  H  H187  1  0.48330000  0.79240000  0.39460000  1
  H  H188  1  0.25170000  0.15950000  0.99450000  1
  H  H189  1  0.59430000  0.65950000  0.49450000  1
  H  H190  1  0.98800000  0.08450000  0.01670000  1
  H  H191  1  0.91080000  0.58450000  0.51670000  1
  H  H192  1  0.07310000  0.19600000  0.88360000  1
  H  H193  1  0.84730000  0.69600000  0.38360000  1
  H  H194  1  0.16510000  0.94850000  0.12610000  1
  H  H195  1  0.76030000  0.44850000  0.62610000  1
  H  H196  1  0.46520000  0.06650000  0.94230000  1
  H  H197  1  0.52600000  0.56650000  0.44230000  1
  H  H198  1  0.03730000  0.91060000  0.09140000  1
  H  H199  1  0.96070000  0.41060000  0.59140000  1
  H  H200  1  0.37050000  0.60960000  0.39220000  1
  H  H201  1  0.62770000  0.10960000  0.89220000  1
  N  N202  1  0.92296000  0.64716000  0.29870000  1
  N  N203  1  0.13118000  0.14716000  0.79870000  1
  N  N204  1  0.03447000  0.04814000  0.82090000  1
  N  N205  1  0.09649000  0.54814000  0.32090000  1
  N  N206  1  0.60164000  0.40626000  0.42056000  1
  N  N207  1  0.57154000  0.90626000  0.92056000  1
  N  N208  1  0.71908000  0.94352000  0.87564000  1
  N  N209  1  0.46176000  0.44352000  0.37564000  1
  N  N210  1  0.84945000  0.31256000  0.35934000  1
  N  N211  1  0.47865000  0.81256000  0.85934000  1
  N  N212  1  0.93979000  0.24795000  0.27169000  1
  N  N213  1  0.54057000  0.74795000  0.77169000  1
  N  N214  1  0.06021000  0.75205000  0.72831000  1
  N  N215  1  0.45943000  0.25205000  0.22831000  1
  N  N216  1  0.15055000  0.68744000  0.64066000  1
  N  N217  1  0.52135000  0.18744000  0.14066000  1
  N  N218  1  0.28092000  0.05648000  0.12436000  1
  N  N219  1  0.53824000  0.55648000  0.62436000  1
  N  N220  1  0.39836000  0.59374000  0.57944000  1
  N  N221  1  0.42846000  0.09374000  0.07944000  1
  N  N222  1  0.96553000  0.95186000  0.17910000  1
  N  N223  1  0.90351000  0.45186000  0.67910000  1
  N  N224  1  0.07704000  0.35284000  0.70130000  1
  N  N225  1  0.86882000  0.85284000  0.20130000  1
  O  O226  1  0.74675000  0.46599000  0.46407000  1
  O  O227  1  0.32319000  0.96599000  0.96407000  1
  O  O228  1  0.89574000  0.41128000  0.50788000  1
  O  O229  1  0.18510000  0.91128000  0.00788000  1
  O  O230  1  0.76147000  0.69582000  0.19124000  1
  O  O231  1  0.35147000  0.19582000  0.69124000  1
  O  O232  1  0.68002000  0.25664000  0.53524000  1
  O  O233  1  0.52810000  0.75664000  0.03524000  1
  O  O234  1  0.94907000  0.58029000  0.17041000  1
  O  O235  1  0.30023000  0.08029000  0.67041000  1
  O  O236  1  0.75226000  0.15891000  0.45791000  1
  O  O237  1  0.63092000  0.65891000  0.95791000  1
  O  O238  1  0.24774000  0.84109000  0.54209000  1
  O  O239  1  0.36908000  0.34109000  0.04209000  1
  O  O240  1  0.05093000  0.41971000  0.82959000  1
  O  O241  1  0.69977000  0.91971000  0.32959000  1
  O  O242  1  0.31998000  0.74336000  0.46476000  1
  O  O243  1  0.47190000  0.24336000  0.96476000  1
  O  O244  1  0.23853000  0.30418000  0.80876000  1
  O  O245  1  0.64853000  0.80418000  0.30876000  1
  O  O246  1  0.10426000  0.58872000  0.49212000  1
  O  O247  1  0.81490000  0.08872000  0.99212000  1
  O  O248  1  0.25325000  0.53401000  0.53593000  1
  O  O249  1  0.67681000  0.03401000  0.03593000  1
