# generated using pymatgen
data_Co5H38(C9O4)6
_symmetry_space_group_name_H-M   'P 1'
_cell_length_a   14.37470000
_cell_length_b   18.63300000
_cell_length_c   23.95700000
_cell_angle_alpha   90.00000000
_cell_angle_beta   90.00000000
_cell_angle_gamma   90.00000000
_symmetry_Int_Tables_number   1
_chemical_formula_structural   Co5H38(C9O4)6
_chemical_formula_sum   'Co20 H152 C216 O96'
_cell_volume   6416.73355964
_cell_formula_units_Z   4
loop_
 _symmetry_equiv_pos_site_id
 _symmetry_equiv_pos_as_xyz
  1  'x, y, z'
loop_
 _atom_site_type_symbol
 _atom_site_label
 _atom_site_symmetry_multiplicity
 _atom_site_fract_x
 _atom_site_fract_y
 _atom_site_fract_z
 _atom_site_occupancy
  Co  Co0  1  0.05697000  0.71078000  0.40601000  1
  Co  Co1  1  0.07683000  0.70095000  0.06836000  1
  Co  Co2  1  0.11975000  0.26413000  0.00089000  1
  Co  Co3  1  0.18467000  0.82464000  0.57113000  1
  Co  Co4  1  0.19914000  0.81764000  0.90684000  1
  Co  Co5  1  0.30086000  0.31764000  0.40684000  1
  Co  Co6  1  0.31533000  0.32464000  0.07113000  1
  Co  Co7  1  0.38025000  0.76413000  0.50089000  1
  Co  Co8  1  0.42317000  0.20095000  0.56836000  1
  Co  Co9  1  0.44303000  0.21078000  0.90601000  1
  Co  Co10  1  0.55697000  0.71078000  0.09399000  1
  Co  Co11  1  0.57683000  0.70095000  0.43164000  1
  Co  Co12  1  0.61975000  0.26413000  0.49911000  1
  Co  Co13  1  0.68467000  0.82464000  0.92887000  1
  Co  Co14  1  0.69914000  0.81764000  0.59316000  1
  Co  Co15  1  0.80086000  0.31764000  0.09316000  1
  Co  Co16  1  0.81533000  0.32464000  0.42887000  1
  Co  Co17  1  0.88025000  0.76413000  0.99911000  1
  Co  Co18  1  0.92317000  0.20095000  0.93164000  1
  Co  Co19  1  0.94303000  0.21078000  0.59399000  1
  H  H20  1  0.00510000  0.72420000  0.67580000  1
  H  H21  1  0.01080000  0.96870000  0.98160000  1
  H  H22  1  0.01970000  0.69670000  0.29950000  1
  H  H23  1  0.02130000  0.71690000  0.84170000  1
  H  H24  1  0.03100000  0.95390000  0.53220000  1
  H  H25  1  0.03970000  0.22010000  0.76880000  1
  H  H26  1  0.04920000  0.48760000  0.81260000  1
  H  H27  1  0.05030000  0.47840000  0.66600000  1
  H  H28  1  0.05850000  0.12790000  0.43520000  1
  H  H29  1  0.08610000  0.05120000  0.31150000  1
  H  H30  1  0.09060000  0.81830000  0.27870000  1
  H  H31  1  0.09070000  0.12540000  0.08700000  1
  H  H32  1  0.10380000  0.03140000  0.20380000  1
  H  H33  1  0.11250000  0.41950000  0.81830000  1
  H  H34  1  0.11350000  0.41090000  0.65660000  1
  H  H35  1  0.11670000  0.12130000  0.34270000  1
  H  H36  1  0.11770000  0.85660000  0.22270000  1
  H  H37  1  0.12170000  0.63600000  0.77000000  1
  H  H38  1  0.12170000  0.93340000  0.37520000  1
  H  H39  1  0.12190000  0.91930000  0.13120000  1
  H  H40  1  0.12910000  0.60150000  0.86330000  1
  H  H41  1  0.13100000  0.59900000  0.62440000  1
  H  H42  1  0.13670000  0.67620000  0.71320000  1
  H  H43  1  0.13850000  0.89390000  0.28000000  1
  H  H44  1  0.14600000  0.10090000  0.17690000  1
  H  H45  1  0.15230000  0.47750000  0.68910000  1
  H  H46  1  0.15290000  0.49020000  0.79250000  1
  H  H47  1  0.16110000  0.39830000  0.91150000  1
  H  H48  1  0.16810000  0.71220000  0.76930000  1
  H  H49  1  0.17240000  0.39940000  0.56680000  1
  H  H50  1  0.18840000  0.05920000  0.33333333  1
  H  H51  1  0.20160000  0.30680000  0.23130000  1
  H  H52  1  0.20650000  0.03110000  0.18160000  1
  H  H53  1  0.21920000  0.55920000  0.01850000  1
  H  H54  1  0.23460000  0.83380000  0.79920000  1
  H  H55  1  0.24080000  0.80640000  0.34700000  1
  H  H56  1  0.24590000  0.56970000  0.47340000  1
  H  H57  1  0.24760000  0.30660000  0.67940000  1
  H  H58  1  0.25240000  0.80660000  0.17940000  1
  H  H59  1  0.25410000  0.06970000  0.97340000  1
  H  H60  1  0.25920000  0.30640000  0.84700000  1
  H  H61  1  0.26540000  0.33380000  0.29920000  1
  H  H62  1  0.28080000  0.05920000  0.51850000  1
  H  H63  1  0.29350000  0.53110000  0.68160000  1
  H  H64  1  0.29840000  0.80680000  0.73130000  1
  H  H65  1  0.31160000  0.55920000  0.83330000  1
  H  H66  1  0.32760000  0.89940000  0.06680000  1
  H  H67  1  0.33190000  0.21220000  0.26930000  1
  H  H68  1  0.33890000  0.89830000  0.41150000  1
  H  H69  1  0.34710000  0.99020000  0.29250000  1
  H  H70  1  0.34770000  0.97750000  0.18910000  1
  H  H71  1  0.35400000  0.60090000  0.67690000  1
  H  H72  1  0.36150000  0.39390000  0.78000000  1
  H  H73  1  0.36330000  0.17620000  0.21320000  1
  H  H74  1  0.36900000  0.09900000  0.12440000  1
  H  H75  1  0.37090000  0.10150000  0.36330000  1
  H  H76  1  0.37810000  0.41930000  0.63120000  1
  H  H77  1  0.37830000  0.13600000  0.27000000  1
  H  H78  1  0.37830000  0.43340000  0.87520000  1
  H  H79  1  0.38230000  0.35660000  0.72270000  1
  H  H80  1  0.38330000  0.62130000  0.84270000  1
  H  H81  1  0.38650000  0.91090000  0.15660000  1
  H  H82  1  0.38750000  0.91950000  0.31830000  1
  H  H83  1  0.39620000  0.53140000  0.70380000  1
  H  H84  1  0.40930000  0.62540000  0.58700000  1
  H  H85  1  0.40940000  0.31830000  0.77870000  1
  H  H86  1  0.41390000  0.55120000  0.81150000  1
  H  H87  1  0.44150000  0.62790000  0.93520000  1
  H  H88  1  0.44970000  0.97840000  0.16600000  1
  H  H89  1  0.45080000  0.98760000  0.31260000  1
  H  H90  1  0.46030000  0.72010000  0.26880000  1
  H  H91  1  0.46900000  0.45390000  0.03220000  1
  H  H92  1  0.47870000  0.21690000  0.34170000  1
  H  H93  1  0.48030000  0.19670000  0.79950000  1
  H  H94  1  0.48920000  0.46870000  0.48160000  1
  H  H95  1  0.49490000  0.22420000  0.17580000  1
  H  H96  1  0.50510000  0.72420000  0.82420000  1
  H  H97  1  0.51080000  0.96870000  0.51840000  1
  H  H98  1  0.51970000  0.69670000  0.20050000  1
  H  H99  1  0.52130000  0.71690000  0.65830000  1
  H  H100  1  0.53100000  0.95390000  0.96780000  1
  H  H101  1  0.53970000  0.22010000  0.73120000  1
  H  H102  1  0.54920000  0.48760000  0.68740000  1
  H  H103  1  0.55030000  0.47840000  0.83400000  1
  H  H104  1  0.55850000  0.12790000  0.06480000  1
  H  H105  1  0.58610000  0.05120000  0.18850000  1
  H  H106  1  0.59060000  0.81830000  0.22130000  1
  H  H107  1  0.59070000  0.12540000  0.41300000  1
  H  H108  1  0.60380000  0.03140000  0.29620000  1
  H  H109  1  0.61250000  0.41950000  0.68170000  1
  H  H110  1  0.61350000  0.41090000  0.84340000  1
  H  H111  1  0.61670000  0.12130000  0.15730000  1
  H  H112  1  0.61770000  0.85660000  0.27730000  1
  H  H113  1  0.62170000  0.63600000  0.73000000  1
  H  H114  1  0.62170000  0.93340000  0.12480000  1
  H  H115  1  0.62190000  0.91930000  0.36880000  1
  H  H116  1  0.62910000  0.60150000  0.63670000  1
  H  H117  1  0.63100000  0.59900000  0.87560000  1
  H  H118  1  0.63670000  0.67620000  0.78680000  1
  H  H119  1  0.63850000  0.89390000  0.22000000  1
  H  H120  1  0.64600000  0.10090000  0.32310000  1
  H  H121  1  0.65230000  0.47750000  0.81090000  1
  H  H122  1  0.65290000  0.49020000  0.70750000  1
  H  H123  1  0.66110000  0.39830000  0.58850000  1
  H  H124  1  0.66810000  0.71220000  0.73070000  1
  H  H125  1  0.67240000  0.39940000  0.93320000  1
  H  H126  1  0.68840000  0.05920000  0.16670000  1
  H  H127  1  0.70160000  0.30680000  0.26870000  1
  H  H128  1  0.70650000  0.03110000  0.31840000  1
  H  H129  1  0.71920000  0.55920000  0.48150000  1
  H  H130  1  0.73460000  0.83380000  0.70080000  1
  H  H131  1  0.74080000  0.80640000  0.15300000  1
  H  H132  1  0.74590000  0.56970000  0.02660000  1
  H  H133  1  0.74760000  0.30660000  0.82060000  1
  H  H134  1  0.75240000  0.80660000  0.32060000  1
  H  H135  1  0.75410000  0.06970000  0.52660000  1
  H  H136  1  0.75920000  0.30640000  0.65300000  1
  H  H137  1  0.76540000  0.33380000  0.20080000  1
  H  H138  1  0.78080000  0.05920000  0.98150000  1
  H  H139  1  0.79350000  0.53110000  0.81840000  1
  H  H140  1  0.79840000  0.80680000  0.76870000  1
  H  H141  1  0.81160000  0.55920000  0.66666667  1
  H  H142  1  0.82760000  0.89940000  0.43320000  1
  H  H143  1  0.83190000  0.21220000  0.23070000  1
  H  H144  1  0.83890000  0.89830000  0.08850000  1
  H  H145  1  0.84710000  0.99020000  0.20750000  1
  H  H146  1  0.84770000  0.97750000  0.31090000  1
  H  H147  1  0.85400000  0.60090000  0.82310000  1
  H  H148  1  0.86150000  0.39390000  0.72000000  1
  H  H149  1  0.86330000  0.17620000  0.28680000  1
  H  H150  1  0.86900000  0.09900000  0.37560000  1
  H  H151  1  0.87090000  0.10150000  0.13670000  1
  H  H152  1  0.87810000  0.41930000  0.86880000  1
  H  H153  1  0.87830000  0.13600000  0.23000000  1
  H  H154  1  0.87830000  0.43340000  0.62480000  1
  H  H155  1  0.88230000  0.35660000  0.77730000  1
  H  H156  1  0.88330000  0.62130000  0.65730000  1
  H  H157  1  0.88650000  0.91090000  0.34340000  1
  H  H158  1  0.88750000  0.91950000  0.18170000  1
  H  H159  1  0.89620000  0.53140000  0.79620000  1
  H  H160  1  0.90930000  0.62540000  0.91300000  1
  H  H161  1  0.90940000  0.31830000  0.72130000  1
  H  H162  1  0.91390000  0.55120000  0.68850000  1
  H  H163  1  0.94150000  0.62790000  0.56480000  1
  H  H164  1  0.94970000  0.97840000  0.33400000  1
  H  H165  1  0.95080000  0.98760000  0.18740000  1
  H  H166  1  0.96030000  0.72010000  0.23120000  1
  H  H167  1  0.96900000  0.45390000  0.46780000  1
  H  H168  1  0.97870000  0.21690000  0.15830000  1
  H  H169  1  0.98030000  0.19670000  0.70050000  1
  H  H170  1  0.98920000  0.46870000  0.01840000  1
  H  H171  1  0.99490000  0.22420000  0.32420000  1
  C  C172  1  0.00410000  0.09430000  0.53786000  1
  C  C173  1  0.01040000  0.23060000  0.19046000  1
  C  C174  1  0.01350000  0.11016000  0.98726000  1
  C  C175  1  0.02020000  0.23460000  0.28939000  1
  C  C176  1  0.02800000  0.71640000  0.75778000  1
  C  C177  1  0.03660000  0.98282000  0.01548000  1
  C  C178  1  0.03930000  0.04750000  0.49177000  1
  C  C179  1  0.04600000  0.97460000  0.49806000  1
  C  C180  1  0.04700000  0.85320000  0.04310000  1
  C  C181  1  0.04790000  0.05507000  0.02760000  1
  C  C182  1  0.06390000  0.07860000  0.44002000  1
  C  C183  1  0.06430000  0.93130000  0.05449000  1
  C  C184  1  0.07460000  0.93110000  0.45465000  1
  C  C185  1  0.07710000  0.85200000  0.46148000  1
  C  C186  1  0.08420000  0.07680000  0.07907000  1
  C  C187  1  0.08740000  0.24220000  0.66344000  1
  C  C188  1  0.09580000  0.03650000  0.39656000  1
  C  C189  1  0.09650000  0.24390000  0.76733000  1
  C  C190  1  0.09730000  0.26570000  0.18591000  1
  C  C191  1  0.09930000  0.24268000  0.87166000  1
  C  C192  1  0.10070000  0.96230000  0.40423000  1
  C  C193  1  0.10210000  0.95360000  0.10557000  1
  C  C194  1  0.10660000  0.26850000  0.28621000  1
  C  C195  1  0.11080000  0.02560000  0.11872000  1
  C  C196  1  0.11120000  0.47100000  0.81997000  1
  C  C197  1  0.11270000  0.46230000  0.65908000  1
  C  C198  1  0.12210000  0.68210000  0.75200000  1
  C  C199  1  0.12440000  0.07020000  0.34082000  1
  C  C200  1  0.13560000  0.84870000  0.26083000  1
  C  C201  1  0.13580000  0.26160000  0.71613000  1
  C  C202  1  0.13980000  0.28320000  0.13031000  1
  C  C203  1  0.14150000  0.49590000  0.87825000  1
  C  C204  1  0.14300000  0.26240000  0.81655000  1
  C  C205  1  0.14420000  0.28390000  0.23381000  1
  C  C206  1  0.14490000  0.04940000  0.17543000  1
  C  C207  1  0.14540000  0.56840000  0.89059000  1
  C  C208  1  0.14730000  0.49400000  0.60491000  1
  C  C209  1  0.15380000  0.56820000  0.59710000  1
  C  C210  1  0.15800000  0.28880000  0.33790000  1
  C  C211  1  0.16490000  0.44720000  0.91916000  1
  C  C212  1  0.17340000  0.59308000  0.94317000  1
  C  C213  1  0.17640000  0.44880000  0.56229000  1
  C  C214  1  0.17830000  0.67240000  0.95590000  1
  C  C215  1  0.19350000  0.59640000  0.54951000  1
  C  C216  1  0.19440000  0.46997000  0.97246000  1
  C  C217  1  0.19900000  0.54342000  0.98372000  1
  C  C218  1  0.21170000  0.47710000  0.51263000  1
  C  C219  1  0.21170000  0.67540000  0.54343000  1
  C  C220  1  0.22130000  0.55080000  0.50612000  1
  C  C221  1  0.22160000  0.29540000  0.71390000  1
  C  C222  1  0.22800000  0.41720000  0.01350000  1
  C  C223  1  0.22810000  0.29540000  0.81401000  1
  C  C224  1  0.23060000  0.81290000  0.26250000  1
  C  C225  1  0.24360000  0.43000000  0.46566000  1
  C  C226  1  0.25640000  0.93000000  0.96566000  1
  C  C227  1  0.26940000  0.31290000  0.76250000  1
  C  C228  1  0.27190000  0.79540000  0.31401000  1
  C  C229  1  0.27200000  0.91720000  0.51350000  1
  C  C230  1  0.27840000  0.79540000  0.21390000  1
  C  C231  1  0.27870000  0.05080000  0.00612000  1
  C  C232  1  0.28830000  0.17540000  0.04343000  1
  C  C233  1  0.28830000  0.97710000  0.01263000  1
  C  C234  1  0.30100000  0.04342000  0.48372000  1
  C  C235  1  0.30560000  0.96997000  0.47246000  1
  C  C236  1  0.30650000  0.09640000  0.04951000  1
  C  C237  1  0.32170000  0.17240000  0.45590000  1
  C  C238  1  0.32360000  0.94880000  0.06229000  1
  C  C239  1  0.32660000  0.09308000  0.44317000  1
  C  C240  1  0.33510000  0.94720000  0.41916000  1
  C  C241  1  0.34200000  0.78880000  0.83790000  1
  C  C242  1  0.34620000  0.06820000  0.09710000  1
  C  C243  1  0.35270000  0.99400000  0.10491000  1
  C  C244  1  0.35460000  0.06840000  0.39059000  1
  C  C245  1  0.35510000  0.54940000  0.67543000  1
  C  C246  1  0.35580000  0.78390000  0.73381000  1
  C  C247  1  0.35700000  0.76240000  0.31655000  1
  C  C248  1  0.35850000  0.99590000  0.37825000  1
  C  C249  1  0.36020000  0.78320000  0.63031000  1
  C  C250  1  0.36420000  0.76160000  0.21613000  1
  C  C251  1  0.36440000  0.34870000  0.76083000  1
  C  C252  1  0.37560000  0.57020000  0.84082000  1
  C  C253  1  0.37790000  0.18210000  0.25200000  1
  C  C254  1  0.38730000  0.96230000  0.15908000  1
  C  C255  1  0.38880000  0.97100000  0.31997000  1
  C  C256  1  0.38920000  0.52560000  0.61872000  1
  C  C257  1  0.39340000  0.76850000  0.78621000  1
  C  C258  1  0.39790000  0.45360000  0.60557000  1
  C  C259  1  0.39930000  0.46230000  0.90423000  1
  C  C260  1  0.40070000  0.74268000  0.37166000  1
  C  C261  1  0.40270000  0.76570000  0.68591000  1
  C  C262  1  0.40350000  0.74390000  0.26733000  1
  C  C263  1  0.40420000  0.53650000  0.89656000  1
  C  C264  1  0.41260000  0.74220000  0.16344000  1
  C  C265  1  0.41580000  0.57680000  0.57907000  1
  C  C266  1  0.42290000  0.35200000  0.96148000  1
  C  C267  1  0.42540000  0.43110000  0.95465000  1
  C  C268  1  0.43570000  0.43130000  0.55449000  1
  C  C269  1  0.43610000  0.57860000  0.94002000  1
  C  C270  1  0.45210000  0.55507000  0.52760000  1
  C  C271  1  0.45300000  0.35320000  0.54310000  1
  C  C272  1  0.45400000  0.47460000  0.99806000  1
  C  C273  1  0.46070000  0.54750000  0.99177000  1
  C  C274  1  0.46340000  0.48282000  0.51548000  1
  C  C275  1  0.47200000  0.21640000  0.25778000  1
  C  C276  1  0.47980000  0.73460000  0.78939000  1
  C  C277  1  0.48650000  0.61016000  0.48726000  1
  C  C278  1  0.48960000  0.73060000  0.69046000  1
  C  C279  1  0.49590000  0.59430000  0.03786000  1
  C  C280  1  0.50410000  0.09430000  0.96214000  1
  C  C281  1  0.51040000  0.23060000  0.30954000  1
  C  C282  1  0.51350000  0.11016000  0.51274000  1
  C  C283  1  0.52020000  0.23460000  0.21061000  1
  C  C284  1  0.52800000  0.71640000  0.74222000  1
  C  C285  1  0.53660000  0.98282000  0.48452000  1
  C  C286  1  0.53930000  0.04750000  0.00823000  1
  C  C287  1  0.54600000  0.97460000  0.00194000  1
  C  C288  1  0.54700000  0.85320000  0.45690000  1
  C  C289  1  0.54790000  0.05507000  0.47240000  1
  C  C290  1  0.56390000  0.07860000  0.05998000  1
  C  C291  1  0.56430000  0.93130000  0.44551000  1
  C  C292  1  0.57460000  0.93110000  0.04535000  1
  C  C293  1  0.57710000  0.85200000  0.03852000  1
  C  C294  1  0.58420000  0.07680000  0.42093000  1
  C  C295  1  0.58740000  0.24220000  0.83656000  1
  C  C296  1  0.59580000  0.03650000  0.10344000  1
  C  C297  1  0.59650000  0.24390000  0.73267000  1
  C  C298  1  0.59730000  0.26570000  0.31409000  1
  C  C299  1  0.59930000  0.24268000  0.62834000  1
  C  C300  1  0.60070000  0.96230000  0.09577000  1
  C  C301  1  0.60210000  0.95360000  0.39443000  1
  C  C302  1  0.60660000  0.26850000  0.21379000  1
  C  C303  1  0.61080000  0.02560000  0.38128000  1
  C  C304  1  0.61120000  0.47100000  0.68003000  1
  C  C305  1  0.61270000  0.46230000  0.84092000  1
  C  C306  1  0.62210000  0.68210000  0.74800000  1
  C  C307  1  0.62440000  0.07020000  0.15918000  1
  C  C308  1  0.63560000  0.84870000  0.23917000  1
  C  C309  1  0.63580000  0.26160000  0.78387000  1
  C  C310  1  0.63980000  0.28320000  0.36969000  1
  C  C311  1  0.64150000  0.49590000  0.62175000  1
  C  C312  1  0.64300000  0.26240000  0.68345000  1
  C  C313  1  0.64420000  0.28390000  0.26619000  1
  C  C314  1  0.64490000  0.04940000  0.32457000  1
  C  C315  1  0.64540000  0.56840000  0.60941000  1
  C  C316  1  0.64730000  0.49400000  0.89509000  1
  C  C317  1  0.65380000  0.56820000  0.90290000  1
  C  C318  1  0.65800000  0.28880000  0.16210000  1
  C  C319  1  0.66490000  0.44720000  0.58084000  1
  C  C320  1  0.67340000  0.59308000  0.55683000  1
  C  C321  1  0.67640000  0.44880000  0.93771000  1
  C  C322  1  0.67830000  0.67240000  0.54410000  1
  C  C323  1  0.69350000  0.59640000  0.95049000  1
  C  C324  1  0.69440000  0.46997000  0.52754000  1
  C  C325  1  0.69900000  0.54342000  0.51628000  1
  C  C326  1  0.71170000  0.47710000  0.98737000  1
  C  C327  1  0.71170000  0.67540000  0.95657000  1
  C  C328  1  0.72130000  0.55080000  0.99388000  1
  C  C329  1  0.72160000  0.29540000  0.78610000  1
  C  C330  1  0.72800000  0.41720000  0.48650000  1
  C  C331  1  0.72810000  0.29540000  0.68599000  1
  C  C332  1  0.73060000  0.81290000  0.23750000  1
  C  C333  1  0.74360000  0.43000000  0.03434000  1
  C  C334  1  0.75640000  0.93000000  0.53434000  1
  C  C335  1  0.76940000  0.31290000  0.73750000  1
  C  C336  1  0.77190000  0.79540000  0.18599000  1
  C  C337  1  0.77200000  0.91720000  0.98650000  1
  C  C338  1  0.77840000  0.79540000  0.28610000  1
  C  C339  1  0.77870000  0.05080000  0.49388000  1
  C  C340  1  0.78830000  0.17540000  0.45657000  1
  C  C341  1  0.78830000  0.97710000  0.48737000  1
  C  C342  1  0.80100000  0.04342000  0.01628000  1
  C  C343  1  0.80560000  0.96997000  0.02754000  1
  C  C344  1  0.80650000  0.09640000  0.45049000  1
  C  C345  1  0.82170000  0.17240000  0.04410000  1
  C  C346  1  0.82360000  0.94880000  0.43771000  1
  C  C347  1  0.82660000  0.09308000  0.05683000  1
  C  C348  1  0.83510000  0.94720000  0.08084000  1
  C  C349  1  0.84200000  0.78880000  0.66210000  1
  C  C350  1  0.84620000  0.06820000  0.40290000  1
  C  C351  1  0.85270000  0.99400000  0.39509000  1
  C  C352  1  0.85460000  0.06840000  0.10941000  1
  C  C353  1  0.85510000  0.54940000  0.82457000  1
  C  C354  1  0.85580000  0.78390000  0.76619000  1
  C  C355  1  0.85700000  0.76240000  0.18345000  1
  C  C356  1  0.85850000  0.99590000  0.12175000  1
  C  C357  1  0.86020000  0.78320000  0.86969000  1
  C  C358  1  0.86420000  0.76160000  0.28387000  1
  C  C359  1  0.86440000  0.34870000  0.73917000  1
  C  C360  1  0.87560000  0.57020000  0.65918000  1
  C  C361  1  0.87790000  0.18210000  0.24800000  1
  C  C362  1  0.88730000  0.96230000  0.34092000  1
  C  C363  1  0.88880000  0.97100000  0.18003000  1
  C  C364  1  0.88920000  0.52560000  0.88128000  1
  C  C365  1  0.89340000  0.76850000  0.71379000  1
  C  C366  1  0.89790000  0.45360000  0.89443000  1
  C  C367  1  0.89930000  0.46230000  0.59577000  1
  C  C368  1  0.90070000  0.74268000  0.12834000  1
  C  C369  1  0.90270000  0.76570000  0.81409000  1
  C  C370  1  0.90350000  0.74390000  0.23267000  1
  C  C371  1  0.90420000  0.53650000  0.60344000  1
  C  C372  1  0.91260000  0.74220000  0.33656000  1
  C  C373  1  0.91580000  0.57680000  0.92093000  1
  C  C374  1  0.92290000  0.35200000  0.53852000  1
  C  C375  1  0.92540000  0.43110000  0.54535000  1
  C  C376  1  0.93570000  0.43130000  0.94551000  1
  C  C377  1  0.93610000  0.57860000  0.55998000  1
  C  C378  1  0.95210000  0.55507000  0.97240000  1
  C  C379  1  0.95300000  0.35320000  0.95690000  1
  C  C380  1  0.95400000  0.47460000  0.50194000  1
  C  C381  1  0.96070000  0.54750000  0.50823000  1
  C  C382  1  0.96340000  0.48282000  0.98452000  1
  C  C383  1  0.97200000  0.21640000  0.24222000  1
  C  C384  1  0.97980000  0.73460000  0.71061000  1
  C  C385  1  0.98650000  0.61016000  0.01274000  1
  C  C386  1  0.98960000  0.73060000  0.80954000  1
  C  C387  1  0.99590000  0.59430000  0.46214000  1
  O  O388  1  0.00610000  0.21367000  0.66744000  1
  O  O389  1  0.00830000  0.66065000  0.47258000  1
  O  O390  1  0.00974000  0.33743000  0.99469000  1
  O  O391  1  0.01120000  0.56850000  0.41538000  1
  O  O392  1  0.02156000  0.17662000  0.99842000  1
  O  O393  1  0.02418000  0.20742000  0.86945000  1
  O  O394  1  0.03038000  0.59085000  0.05561000  1
  O  O395  1  0.07490000  0.81495000  0.41743000  1
  O  O396  1  0.07523000  0.82456000  0.50961000  1
  O  O397  1  0.08850000  0.80873000  0.07376000  1
  O  O398  1  0.09951000  0.26170000  0.08730000  1
  O  O399  1  0.12530000  0.25310000  0.61748000  1
  O  O400  1  0.12580000  0.27630000  0.38418000  1
  O  O401  1  0.13910000  0.26485000  0.91511000  1
  O  O402  1  0.17360000  0.71686000  0.57701000  1
  O  O403  1  0.17630000  0.71316000  0.91408000  1
  O  O404  1  0.18547000  0.69263000  0.00512000  1
  O  O405  1  0.21270000  0.32133000  0.13156000  1
  O  O406  1  0.22061000  0.34993000  0.00398000  1
  O  O407  1  0.23120000  0.93719000  0.55689000  1
  O  O408  1  0.23270000  0.19467000  0.00561000  1
  O  O409  1  0.23850000  0.95555000  0.91884000  1
  O  O410  1  0.23960000  0.31691000  0.33228000  1
  O  O411  1  0.24780000  0.86285000  0.97579000  1
  O  O412  1  0.25220000  0.36285000  0.47579000  1
  O  O413  1  0.26040000  0.81691000  0.83228000  1
  O  O414  1  0.26150000  0.45555000  0.41884000  1
  O  O415  1  0.26730000  0.69467000  0.50561000  1
  O  O416  1  0.26880000  0.43719000  0.05689000  1
  O  O417  1  0.27939000  0.84993000  0.50398000  1
  O  O418  1  0.28730000  0.82133000  0.63156000  1
  O  O419  1  0.31453000  0.19263000  0.50512000  1
  O  O420  1  0.32370000  0.21316000  0.41408000  1
  O  O421  1  0.32640000  0.21686000  0.07701000  1
  O  O422  1  0.36090000  0.76485000  0.41511000  1
  O  O423  1  0.37420000  0.77630000  0.88418000  1
  O  O424  1  0.37470000  0.75310000  0.11748000  1
  O  O425  1  0.40049000  0.76170000  0.58730000  1
  O  O426  1  0.41150000  0.30873000  0.57376000  1
  O  O427  1  0.42477000  0.32456000  0.00961000  1
  O  O428  1  0.42510000  0.31495000  0.91743000  1
  O  O429  1  0.46962000  0.09085000  0.55561000  1
  O  O430  1  0.47582000  0.70742000  0.36945000  1
  O  O431  1  0.47844000  0.67662000  0.49842000  1
  O  O432  1  0.48880000  0.06850000  0.91538000  1
  O  O433  1  0.49026000  0.83743000  0.49469000  1
  O  O434  1  0.49170000  0.16065000  0.97258000  1
  O  O435  1  0.49390000  0.71367000  0.16744000  1
  O  O436  1  0.50610000  0.21367000  0.83256000  1
  O  O437  1  0.50830000  0.66065000  0.02742000  1
  O  O438  1  0.50974000  0.33743000  0.50531000  1
  O  O439  1  0.51120000  0.56850000  0.08462000  1
  O  O440  1  0.52156000  0.17662000  0.50158000  1
  O  O441  1  0.52418000  0.20742000  0.63055000  1
  O  O442  1  0.53038000  0.59085000  0.44439000  1
  O  O443  1  0.57490000  0.81495000  0.08257000  1
  O  O444  1  0.57523000  0.82456000  0.99039000  1
  O  O445  1  0.58850000  0.80873000  0.42624000  1
  O  O446  1  0.59951000  0.26170000  0.41270000  1
  O  O447  1  0.62530000  0.25310000  0.88252000  1
  O  O448  1  0.62580000  0.27630000  0.11582000  1
  O  O449  1  0.63910000  0.26485000  0.58489000  1
  O  O450  1  0.67360000  0.71686000  0.92299000  1
  O  O451  1  0.67630000  0.71316000  0.58592000  1
  O  O452  1  0.68547000  0.69263000  0.49488000  1
  O  O453  1  0.71270000  0.32133000  0.36844000  1
  O  O454  1  0.72061000  0.34993000  0.49602000  1
  O  O455  1  0.73120000  0.93719000  0.94311000  1
  O  O456  1  0.73270000  0.19467000  0.49439000  1
  O  O457  1  0.73850000  0.95555000  0.58116000  1
  O  O458  1  0.73960000  0.31691000  0.16772000  1
  O  O459  1  0.74780000  0.86285000  0.52421000  1
  O  O460  1  0.75220000  0.36285000  0.02421000  1
  O  O461  1  0.76040000  0.81691000  0.66772000  1
  O  O462  1  0.76150000  0.45555000  0.08116000  1
  O  O463  1  0.76730000  0.69467000  0.99439000  1
  O  O464  1  0.76880000  0.43719000  0.44311000  1
  O  O465  1  0.77939000  0.84993000  0.99602000  1
  O  O466  1  0.78730000  0.82133000  0.86844000  1
  O  O467  1  0.81453000  0.19263000  0.99488000  1
  O  O468  1  0.82370000  0.21316000  0.08592000  1
  O  O469  1  0.82640000  0.21686000  0.42299000  1
  O  O470  1  0.86090000  0.76485000  0.08489000  1
  O  O471  1  0.87420000  0.77630000  0.61582000  1
  O  O472  1  0.87470000  0.75310000  0.38252000  1
  O  O473  1  0.90049000  0.76170000  0.91270000  1
  O  O474  1  0.91150000  0.30873000  0.92624000  1
  O  O475  1  0.92477000  0.32456000  0.49039000  1
  O  O476  1  0.92510000  0.31495000  0.58257000  1
  O  O477  1  0.96962000  0.09085000  0.94439000  1
  O  O478  1  0.97582000  0.70742000  0.13055000  1
  O  O479  1  0.97844000  0.67662000  0.00158000  1
  O  O480  1  0.98880000  0.06850000  0.58462000  1
  O  O481  1  0.99026000  0.83743000  0.00531000  1
  O  O482  1  0.99170000  0.16065000  0.52742000  1
  O  O483  1  0.99390000  0.71367000  0.33256000  1
