# generated using pymatgen
data_FeNiH4(C4N3)2
_symmetry_space_group_name_H-M   'P 1'
_cell_length_a   6.72500000
_cell_length_b   7.01000000
_cell_length_c   7.02800000
_cell_angle_alpha   90.00000000
_cell_angle_beta   90.00000000
_cell_angle_gamma   90.00000000
_symmetry_Int_Tables_number   1
_chemical_formula_structural   FeNiH4(C4N3)2
_chemical_formula_sum   'Fe1 Ni1 H4 C8 N6'
_cell_volume   331.31573300
_cell_formula_units_Z   1
loop_
 _symmetry_equiv_pos_site_id
 _symmetry_equiv_pos_as_xyz
  1  'x, y, z'
loop_
 _atom_site_type_symbol
 _atom_site_label
 _atom_site_symmetry_multiplicity
 _atom_site_fract_x
 _atom_site_fract_y
 _atom_site_fract_z
 _atom_site_occupancy
  Fe  Fe0  1  0.00000000  0.00000000  0.00000000  1
  Ni  Ni1  1  0.00000000  0.50000000  0.50000000  1
  H  H2  1  0.67110000  0.71820000  0.00000000  1
  H  H3  1  0.32890000  0.71820000  0.00000000  1
  H  H4  1  0.67110000  0.28180000  0.00000000  1
  H  H5  1  0.32890000  0.28180000  0.00000000  1
  C  C6  1  0.60220000  0.83640000  1.00000000  1
  C  C7  1  0.39780000  0.83640000  1.00000000  1
  C  C8  1  0.60220000  0.16360000  1.00000000  1
  C  C9  1  0.39780000  0.16360000  1.00000000  1
  C  C10  1  0.00000000  0.68960000  0.68650000  1
  C  C11  1  0.00000000  0.31040000  0.68650000  1
  C  C12  1  0.00000000  0.68960000  0.31350000  1
  C  C13  1  0.00000000  0.31040000  0.31350000  1
  N  N14  1  0.70690000  0.00000000  0.00000000  1
  N  N15  1  0.29310000  0.00000000  0.00000000  1
  N  N16  1  0.00000000  0.80310000  0.80490000  1
  N  N17  1  0.00000000  0.19690000  0.80490000  1
  N  N18  1  1.00000000  0.80310000  0.19510000  1
  N  N19  1  0.00000000  0.19690000  0.19510000  1
