# generated using pymatgen
data_Dy2H24(C14O5)3
_symmetry_space_group_name_H-M   'P 1'
_cell_length_a   15.18900000
_cell_length_b   15.23200000
_cell_length_c   23.85500000
_cell_angle_alpha   85.89000000
_cell_angle_beta   79.97100000
_cell_angle_gamma   86.84200000
_symmetry_Int_Tables_number   1
_chemical_formula_structural   Dy2H24(C14O5)3
_chemical_formula_sum   'Dy8 H96 C168 O60'
_cell_volume   5415.65289483
_cell_formula_units_Z   4
loop_
 _symmetry_equiv_pos_site_id
 _symmetry_equiv_pos_as_xyz
  1  'x, y, z'
loop_
 _atom_site_type_symbol
 _atom_site_label
 _atom_site_symmetry_multiplicity
 _atom_site_fract_x
 _atom_site_fract_y
 _atom_site_fract_z
 _atom_site_occupancy
  Dy  Dy0  1  0.21394000  0.36015000  0.73125000  1
  Dy  Dy1  1  0.24010000  0.60743000  0.77000000  1
  Dy  Dy2  1  0.32704000  0.08712000  0.77615000  1
  Dy  Dy3  1  0.35613000  0.83129000  0.78788000  1
  Dy  Dy4  1  0.64387000  0.16871000  0.21212000  1
  Dy  Dy5  1  0.67296000  0.91288000  0.22385000  1
  Dy  Dy6  1  0.75990000  0.39257000  0.23000000  1
  Dy  Dy7  1  0.78606000  0.63985000  0.26875000  1
  H  H8  1  0.00120000  0.90640000  0.71520000  1
  H  H9  1  0.00720000  0.79540000  0.31460000  1
  H  H10  1  0.03140000  0.25890000  0.18850000  1
  H  H11  1  0.03270000  0.98920000  0.11280000  1
  H  H12  1  0.04820000  0.57560000  0.87830000  1
  H  H13  1  0.07660000  0.37530000  0.06130000  1
  H  H14  1  0.10300000  0.93450000  0.85510000  1
  H  H15  1  0.10310000  0.57060000  0.19680000  1
  H  H16  1  0.11430000  0.98470000  0.73410000  1
  H  H17  1  0.12000000  0.87440000  0.33370000  1
  H  H18  1  0.15330000  0.11900000  0.02250000  1
  H  H19  1  0.16390000  0.18760000  0.15240000  1
  H  H20  1  0.16800000  0.63540000  0.57040000  1
  H  H21  1  0.17020000  0.65960000  0.97720000  1
  H  H22  1  0.18290000  0.47910000  0.97200000  1
  H  H23  1  0.18450000  0.41220000  0.88710000  1
  H  H24  1  0.19240000  0.07400000  0.92910000  1
  H  H25  1  0.19990000  0.95890000  0.23430000  1
  H  H26  1  0.20310000  0.61940000  0.47260000  1
  H  H27  1  0.20330000  0.67370000  0.06600000  1
  H  H28  1  0.22710000  0.77850000  0.58100000  1
  H  H29  1  0.22730000  0.52090000  0.13800000  1
  H  H30  1  0.23850000  0.84120000  0.66320000  1
  H  H31  1  0.27260000  0.10440000  0.34940000  1
  H  H32  1  0.28230000  0.90410000  0.07910000  1
  H  H33  1  0.31860000  0.34650000  0.42290000  1
  H  H34  1  0.31900000  0.27140000  0.02900000  1
  H  H35  1  0.32290000  0.20640000  0.94400000  1
  H  H36  1  0.32630000  0.86250000  0.98590000  1
  H  H37  1  0.33320000  0.86200000  0.37560000  1
  H  H38  1  0.35000000  0.93150000  0.19610000  1
  H  H39  1  0.35830000  0.45880000  0.59900000  1
  H  H40  1  0.39730000  0.94120000  0.49060000  1
  H  H41  1  0.39940000  0.44500000  0.50300000  1
  H  H42  1  0.41230000  0.00590000  0.57390000  1
  H  H43  1  0.42010000  0.08960000  0.30720000  1
  H  H44  1  0.42310000  0.54850000  0.68440000  1
  H  H45  1  0.42360000  0.25260000  0.37630000  1
  H  H46  1  0.42660000  0.55260000  0.08360000  1
  H  H47  1  0.42850000  0.30280000  0.56850000  1
  H  H48  1  0.43020000  0.68260000  0.91020000  1
  H  H49  1  0.43340000  0.78020000  0.15760000  1
  H  H50  1  0.44790000  0.72500000  0.49730000  1
  H  H51  1  0.45490000  0.27910000  0.79710000  1
  H  H52  1  0.46320000  0.50830000  0.86780000  1
  H  H53  1  0.46440000  0.69560000  0.00080000  1
  H  H54  1  0.46620000  0.83590000  0.31270000  1
  H  H55  1  0.46770000  0.54830000  0.36470000  1
  H  H56  1  0.53230000  0.45170000  0.63530000  1
  H  H57  1  0.53380000  0.16410000  0.68730000  1
  H  H58  1  0.53560000  0.30440000  0.99920000  1
  H  H59  1  0.53680000  0.49170000  0.13220000  1
  H  H60  1  0.54510000  0.72090000  0.20290000  1
  H  H61  1  0.55210000  0.27500000  0.50270000  1
  H  H62  1  0.56660000  0.21980000  0.84240000  1
  H  H63  1  0.56980000  0.31740000  0.08980000  1
  H  H64  1  0.57150000  0.69720000  0.43150000  1
  H  H65  1  0.57340000  0.44740000  0.91640000  1
  H  H66  1  0.57640000  0.74740000  0.62370000  1
  H  H67  1  0.57690000  0.45150000  0.31560000  1
  H  H68  1  0.57990000  0.91040000  0.69280000  1
  H  H69  1  0.58770000  0.99410000  0.42610000  1
  H  H70  1  0.60060000  0.55500000  0.49700000  1
  H  H71  1  0.60270000  0.05880000  0.50940000  1
  H  H72  1  0.64170000  0.54120000  0.40100000  1
  H  H73  1  0.65000000  0.06850000  0.80390000  1
  H  H74  1  0.66680000  0.13800000  0.62440000  1
  H  H75  1  0.67370000  0.13750000  0.01410000  1
  H  H76  1  0.67710000  0.79360000  0.05600000  1
  H  H77  1  0.68100000  0.72860000  0.97100000  1
  H  H78  1  0.68140000  0.65350000  0.57710000  1
  H  H79  1  0.71770000  0.09590000  0.92090000  1
  H  H80  1  0.72740000  0.89560000  0.65060000  1
  H  H81  1  0.76150000  0.15880000  0.33680000  1
  H  H82  1  0.77270000  0.47910000  0.86200000  1
  H  H83  1  0.77290000  0.22150000  0.41900000  1
  H  H84  1  0.79670000  0.32630000  0.93400000  1
  H  H85  1  0.79690000  0.38060000  0.52740000  1
  H  H86  1  0.80010000  0.04110000  0.76570000  1
  H  H87  1  0.80760000  0.92600000  0.07090000  1
  H  H88  1  0.81550000  0.58780000  0.11290000  1
  H  H89  1  0.81710000  0.52090000  0.02800000  1
  H  H90  1  0.82980000  0.34040000  0.02280000  1
  H  H91  1  0.83200000  0.36460000  0.42960000  1
  H  H92  1  0.83610000  0.81240000  0.84760000  1
  H  H93  1  0.84670000  0.88100000  0.97750000  1
  H  H94  1  0.88000000  0.12560000  0.66630000  1
  H  H95  1  0.88570000  0.01530000  0.26590000  1
  H  H96  1  0.89690000  0.42940000  0.80320000  1
  H  H97  1  0.89700000  0.06550000  0.14490000  1
  H  H98  1  0.92340000  0.62470000  0.93870000  1
  H  H99  1  0.95180000  0.42440000  0.12170000  1
  H  H100  1  0.96730000  0.01080000  0.88720000  1
  H  H101  1  0.96860000  0.74110000  0.81150000  1
  H  H102  1  0.99280000  0.20460000  0.68540000  1
  H  H103  1  0.99880000  0.09360000  0.28480000  1
  C  C104  1  0.00090000  0.03250000  0.29060000  1
  C  C105  1  0.00490000  0.85630000  0.30790000  1
  C  C106  1  0.00760000  0.44460000  0.12430000  1
  C  C107  1  0.01410000  0.50460000  0.16490000  1
  C  C108  1  0.03070000  0.20470000  0.17290000  1
  C  C109  1  0.03220000  0.04390000  0.12790000  1
  C  C110  1  0.04920000  0.91040000  0.85220000  1
  C  C111  1  0.05010000  0.83100000  0.82880000  1
  C  C112  1  0.06470000  0.46090000  0.79630000  1
  C  C113  1  0.06640000  0.01490000  0.72070000  1
  C  C114  1  0.06720000  0.10320000  0.71350000  1
  C  C115  1  0.06890000  0.99160000  0.30990000  1
  C  C116  1  0.07210000  0.90290000  0.31940000  1
  C  C117  1  0.08190000  0.41480000  0.08830000  1
  C  C118  1  0.09750000  0.53170000  0.16940000  1
  C  C119  1  0.10940000  0.08160000  0.13130000  1
  C  C120  1  0.10990000  0.16170000  0.15220000  1
  C  C121  1  0.13670000  0.78720000  0.80320000  1
  C  C122  1  0.13790000  0.15430000  0.73020000  1
  C  C123  1  0.16480000  0.44400000  0.09260000  1
  C  C124  1  0.17140000  0.50220000  0.13430000  1
  C  C125  1  0.18710000  0.06700000  0.01530000  1
  C  C126  1  0.20940000  0.42310000  0.96670000  1
  C  C127  1  0.21070000  0.38280000  0.91600000  1
  C  C128  1  0.21210000  0.04070000  0.95920000  1
  C  C129  1  0.21330000  0.01530000  0.05890000  1
  C  C130  1  0.21460000  0.59630000  0.55650000  1
  C  C131  1  0.22110000  0.03020000  0.29830000  1
  C  C132  1  0.22900000  0.66630000  0.98170000  1
  C  C133  1  0.23470000  0.58740000  0.49790000  1
  C  C134  1  0.23510000  0.56190000  0.65780000  1
  C  C135  1  0.24430000  0.98200000  0.25040000  1
  C  C136  1  0.24800000  0.25650000  0.85280000  1
  C  C137  1  0.24810000  0.37810000  0.00860000  1
  C  C138  1  0.24850000  0.67580000  0.03420000  1
  C  C139  1  0.25010000  0.30070000  0.90790000  1
  C  C140  1  0.25980000  0.55050000  0.59460000  1
  C  C141  1  0.26490000  0.82480000  0.58000000  1
  C  C142  1  0.26510000  0.93880000  0.04890000  1
  C  C143  1  0.26610000  0.96520000  0.94870000  1
  C  C144  1  0.27090000  0.86290000  0.62870000  1
  C  C145  1  0.27490000  0.65570000  0.87760000  1
  C  C146  1  0.28790000  0.07010000  0.31810000  1
  C  C147  1  0.29080000  0.29950000  0.00060000  1
  C  C148  1  0.29150000  0.91400000  0.99300000  1
  C  C149  1  0.29250000  0.26060000  0.94980000  1
  C  C150  1  0.29670000  0.66666667  0.93470000  1
  C  C151  1  0.29930000  0.93900000  0.88950000  1
  C  C152  1  0.30410000  0.52840000  0.47950000  1
  C  C153  1  0.31440000  0.85440000  0.52950000  1
  C  C154  1  0.32300000  0.93160000  0.62790000  1
  C  C155  1  0.32590000  0.97610000  0.68090000  1
  C  C156  1  0.32780000  0.49230000  0.57380000  1
  C  C157  1  0.33410000  0.96800000  0.22630000  1
  C  C158  1  0.33440000  0.68840000  0.04070000  1
  C  C159  1  0.35140000  0.48260000  0.51660000  1
  C  C160  1  0.36600000  0.92070000  0.52570000  1
  C  C161  1  0.37060000  0.36890000  0.40140000  1
  C  C162  1  0.37270000  0.43800000  0.79500000  1
  C  C163  1  0.37350000  0.96030000  0.57550000  1
  C  C164  1  0.37670000  0.06100000  0.29330000  1
  C  C165  1  0.37970000  0.79950000  0.44250000  1
  C  C166  1  0.38120000  0.25190000  0.67490000  1
  C  C167  1  0.38170000  0.83090000  0.38760000  1
  C  C168  1  0.38220000  0.45820000  0.39850000  1
  C  C169  1  0.38500000  0.67990000  0.94200000  1
  C  C170  1  0.40020000  0.00950000  0.24810000  1
  C  C171  1  0.40590000  0.68920000  0.99540000  1
  C  C172  1  0.41880000  0.66880000  0.11780000  1
  C  C173  1  0.42640000  0.71770000  0.69280000  1
  C  C174  1  0.43350000  0.31260000  0.37360000  1
  C  C175  1  0.44740000  0.40010000  0.82530000  1
  C  C176  1  0.44960000  0.58540000  0.10870000  1
  C  C177  1  0.45120000  0.74780000  0.45980000  1
  C  C178  1  0.45430000  0.72220000  0.15290000  1
  C  C179  1  0.45820000  0.48830000  0.36720000  1
  C  C180  1  0.46200000  0.81310000  0.35020000  1
  C  C181  1  0.46650000  0.23440000  0.63550000  1
  C  C182  1  0.47510000  0.57010000  0.66250000  1
  C  C183  1  0.47540000  0.26780000  0.57960000  1
  C  C184  1  0.47970000  0.31400000  0.82020000  1
  C  C185  1  0.48410000  0.45030000  0.86260000  1
  C  C186  1  0.48960000  0.65720000  0.65800000  1
  C  C187  1  0.49940000  0.99000000  0.22390000  1
  C  C188  1  0.50060000  0.01000000  0.77610000  1
  C  C189  1  0.51040000  0.34280000  0.34200000  1
  C  C190  1  0.51590000  0.54970000  0.13740000  1
  C  C191  1  0.52030000  0.68600000  0.17980000  1
  C  C192  1  0.52460000  0.73220000  0.42040000  1
  C  C193  1  0.52490000  0.42990000  0.33750000  1
  C  C194  1  0.53350000  0.76560000  0.36450000  1
  C  C195  1  0.53800000  0.18690000  0.64980000  1
  C  C196  1  0.54180000  0.51170000  0.63280000  1
  C  C197  1  0.54570000  0.27780000  0.84710000  1
  C  C198  1  0.54880000  0.25220000  0.54020000  1
  C  C199  1  0.55040000  0.41460000  0.89130000  1
  C  C200  1  0.55260000  0.59990000  0.17470000  1
  C  C201  1  0.56650000  0.68740000  0.62640000  1
  C  C202  1  0.57360000  0.28230000  0.30720000  1
  C  C203  1  0.58120000  0.33120000  0.88220000  1
  C  C204  1  0.59410000  0.31080000  0.00460000  1
  C  C205  1  0.59980000  0.99050000  0.75190000  1
  C  C206  1  0.61500000  0.32010000  0.05800000  1
  C  C207  1  0.61780000  0.54180000  0.60150000  1
  C  C208  1  0.61830000  0.16910000  0.61240000  1
  C  C209  1  0.61880000  0.74810000  0.32510000  1
  C  C210  1  0.62030000  0.20050000  0.55750000  1
  C  C211  1  0.62330000  0.93900000  0.70670000  1
  C  C212  1  0.62650000  0.03970000  0.42450000  1
  C  C213  1  0.62730000  0.56200000  0.20500000  1
  C  C214  1  0.62940000  0.63110000  0.59860000  1
  C  C215  1  0.63400000  0.07930000  0.47430000  1
  C  C216  1  0.64860000  0.51740000  0.48340000  1
  C  C217  1  0.66560000  0.31160000  0.95930000  1
  C  C218  1  0.66590000  0.03200000  0.77370000  1
  C  C219  1  0.67220000  0.50770000  0.42620000  1
  C  C220  1  0.67410000  0.02390000  0.31910000  1
  C  C221  1  0.67700000  0.06840000  0.37210000  1
  C  C222  1  0.68560000  0.14560000  0.47050000  1
  C  C223  1  0.69590000  0.47160000  0.52050000  1
  C  C224  1  0.70070000  0.06100000  0.11050000  1
  C  C225  1  0.70330000  0.33340000  0.06530000  1
  C  C226  1  0.70750000  0.73940000  0.05020000  1
  C  C227  1  0.70850000  0.08600000  0.00700000  1
  C  C228  1  0.70920000  0.70050000  0.99940000  1
  C  C229  1  0.71210000  0.92990000  0.68190000  1
  C  C230  1  0.72510000  0.34430000  0.12240000  1
  C  C231  1  0.72910000  0.13710000  0.37130000  1
  C  C232  1  0.73390000  0.03480000  0.05130000  1
  C  C233  1  0.73490000  0.06120000  0.95110000  1
  C  C234  1  0.73510000  0.17520000  0.42000000  1
  C  C235  1  0.74020000  0.44950000  0.40540000  1
  C  C236  1  0.74990000  0.69930000  0.09210000  1
  C  C237  1  0.75150000  0.32420000  0.96580000  1
  C  C238  1  0.75190000  0.62190000  0.99140000  1
  C  C239  1  0.75200000  0.74350000  0.14720000  1
  C  C240  1  0.75570000  0.01800000  0.74960000  1
  C  C241  1  0.76490000  0.43810000  0.34220000  1
  C  C242  1  0.76530000  0.41260000  0.50210000  1
  C  C243  1  0.77100000  0.33370000  0.01830000  1
  C  C244  1  0.77890000  0.96980000  0.70170000  1
  C  C245  1  0.78540000  0.40370000  0.44350000  1
  C  C246  1  0.78670000  0.98470000  0.94110000  1
  C  C247  1  0.78790000  0.95930000  0.04080000  1
  C  C248  1  0.78930000  0.61720000  0.08400000  1
  C  C249  1  0.79060000  0.57690000  0.03330000  1
  C  C250  1  0.81290000  0.93300000  0.98470000  1
  C  C251  1  0.82860000  0.49780000  0.86570000  1
  C  C252  1  0.83520000  0.55600000  0.90740000  1
  C  C253  1  0.86210000  0.84570000  0.26980000  1
  C  C254  1  0.86330000  0.21280000  0.19680000  1
  C  C255  1  0.89010000  0.83830000  0.84780000  1
  C  C256  1  0.89060000  0.91840000  0.86870000  1
  C  C257  1  0.90250000  0.46830000  0.83060000  1
  C  C258  1  0.91810000  0.58520000  0.91170000  1
  C  C259  1  0.92790000  0.09710000  0.68060000  1
  C  C260  1  0.93110000  0.00840000  0.69010000  1
  C  C261  1  0.93280000  0.89680000  0.28650000  1
  C  C262  1  0.93360000  0.98510000  0.27930000  1
  C  C263  1  0.93530000  0.53910000  0.20370000  1
  C  C264  1  0.94990000  0.16900000  0.17120000  1
  C  C265  1  0.95080000  0.08960000  0.14780000  1
  C  C266  1  0.96780000  0.95610000  0.87210000  1
  C  C267  1  0.96930000  0.79530000  0.82710000  1
  C  C268  1  0.98590000  0.49540000  0.83510000  1
  C  C269  1  0.99240000  0.55540000  0.87570000  1
  C  C270  1  0.99510000  0.14370000  0.69210000  1
  C  C271  1  0.99910000  0.96750000  0.70940000  1
  O  O272  1  0.06020000  0.39660000  0.76930000  1
  O  O273  1  0.13210000  0.71600000  0.78140000  1
  O  O274  1  0.13530000  0.04190000  0.32370000  1
  O  O275  1  0.14110000  0.23500000  0.71380000  1
  O  O276  1  0.14110000  0.49530000  0.79480000  1
  O  O277  1  0.18990000  0.62790000  0.67550000  1
  O  O278  1  0.19150000  0.11290000  0.75940000  1
  O  O279  1  0.19180000  0.04030000  0.11450000  1
  O  O280  1  0.20130000  0.29070000  0.82010000  1
  O  O281  1  0.20580000  0.82460000  0.80880000  1
  O  O282  1  0.20900000  0.61420000  0.87170000  1
  O  O283  1  0.24760000  0.41480000  0.06100000  1
  O  O284  1  0.26550000  0.50300000  0.69170000  1
  O  O285  1  0.27800000  0.98970000  0.84900000  1
  O  O286  1  0.29370000  0.18520000  0.84610000  1
  O  O287  1  0.29450000  0.93850000  0.72920000  1
  O  O288  1  0.30380000  0.81650000  0.48080000  1
  O  O289  1  0.31980000  0.52160000  0.42130000  1
  O  O290  1  0.32350000  0.30790000  0.65980000  1
  O  O291  1  0.32420000  0.69150000  0.83330000  1
  O  O292  1  0.34010000  0.38860000  0.76560000  1
  O  O293  1  0.34350000  0.86810000  0.88130000  1
  O  O294  1  0.34600000  0.70790000  0.09450000  1
  O  O295  1  0.35060000  0.51740000  0.79920000  1
  O  O296  1  0.35070000  0.69210000  0.71700000  1
  O  O297  1  0.35850000  0.05040000  0.67870000  1
  O  O298  1  0.37160000  0.21230000  0.72450000  1
  O  O299  1  0.44280000  0.95630000  0.76960000  1
  O  O300  1  0.44740000  0.79330000  0.69910000  1
  O  O301  1  0.47630000  0.08230000  0.79850000  1
  O  O302  1  0.52370000  0.91770000  0.20150000  1
  O  O303  1  0.55260000  0.20670000  0.30090000  1
  O  O304  1  0.55720000  0.04370000  0.23040000  1
  O  O305  1  0.62840000  0.78770000  0.27550000  1
  O  O306  1  0.64150000  0.94960000  0.32130000  1
  O  O307  1  0.64930000  0.30790000  0.28300000  1
  O  O308  1  0.64940000  0.48260000  0.20080000  1
  O  O309  1  0.65400000  0.29210000  0.90550000  1
  O  O310  1  0.65650000  0.13190000  0.11870000  1
  O  O311  1  0.65990000  0.61140000  0.23440000  1
  O  O312  1  0.67580000  0.30850000  0.16670000  1
  O  O313  1  0.67650000  0.69210000  0.34020000  1
  O  O314  1  0.68020000  0.47840000  0.57870000  1
  O  O315  1  0.69620000  0.18350000  0.51920000  1
  O  O316  1  0.70550000  0.06150000  0.27080000  1
  O  O317  1  0.70630000  0.81480000  0.15390000  1
  O  O318  1  0.72200000  0.01030000  0.15100000  1
  O  O319  1  0.73450000  0.49700000  0.30830000  1
  O  O320  1  0.75240000  0.58520000  0.93900000  1
  O  O321  1  0.79100000  0.38580000  0.12830000  1
  O  O322  1  0.79420000  0.17540000  0.19120000  1
  O  O323  1  0.79870000  0.70930000  0.17990000  1
  O  O324  1  0.80820000  0.95970000  0.88550000  1
  O  O325  1  0.80850000  0.88710000  0.24060000  1
  O  O326  1  0.81010000  0.37210000  0.32450000  1
  O  O327  1  0.85890000  0.50470000  0.20520000  1
  O  O328  1  0.85890000  0.76500000  0.28620000  1
  O  O329  1  0.86470000  0.95810000  0.67630000  1
  O  O330  1  0.86790000  0.28400000  0.21860000  1
  O  O331  1  0.93980000  0.60340000  0.23070000  1
