# generated using pymatgen
data_Eu2H40C52O19
_symmetry_space_group_name_H-M   'P 1'
_cell_length_a   7.10910000
_cell_length_b   14.53990000
_cell_length_c   16.77542071
_cell_angle_alpha   104.11898221
_cell_angle_beta   102.23332623
_cell_angle_gamma   90.00000000
_symmetry_Int_Tables_number   1
_chemical_formula_structural   Eu2H40C52O19
_chemical_formula_sum   'Eu2 H40 C52 O19'
_cell_volume   1640.98877987
_cell_formula_units_Z   1
loop_
 _symmetry_equiv_pos_site_id
 _symmetry_equiv_pos_as_xyz
  1  'x, y, z'
loop_
 _atom_site_type_symbol
 _atom_site_label
 _atom_site_symmetry_multiplicity
 _atom_site_fract_x
 _atom_site_fract_y
 _atom_site_fract_z
 _atom_site_occupancy
  Eu  Eu0  1  0.50907000  0.96882000  0.50256000  1
  Eu  Eu1  1  0.00651000  0.03118000  0.49744000  1
  H  H2  1  0.64920000  0.21000000  0.57600000  1
  H  H3  1  0.38630000  0.88050000  0.26800000  1
  H  H4  1  0.85200000  0.79700000  0.71660000  1
  H  H5  1  0.36000000  0.43400000  0.20580000  1
  H  H6  1  0.28740000  0.52700000  0.10040000  1
  H  H7  1  0.87880000  0.32830000  0.65660000  1
  H  H8  1  0.37600000  0.34560000  0.13220000  1
  H  H9  1  0.39540000  0.79020000  0.13440000  1
  H  H10  1  0.30970000  0.43380000  0.03300000  1
  H  H11  1  0.56190000  0.68350000  0.28060000  1
  H  H12  1  0.18700000  0.47300000  0.89960000  1
  H  H13  1  0.27670000  0.56620000  0.96700000  1
  H  H14  1  0.58720000  0.34020000  0.25140000  1
  H  H15  1  0.96460000  0.87280000  0.62720000  1
  H  H16  1  0.15420000  0.56600000  0.79420000  1
  H  H17  1  0.24380000  0.65440000  0.86780000  1
  H  H18  1  0.11830000  0.11950000  0.73200000  1
  H  H19  1  0.26100000  0.20980000  0.86560000  1
  H  H20  1  0.78900000  0.26230000  0.33800000  1
  H  H21  1  0.70850000  0.56210000  0.20320000  1
  H  H22  1  0.28130000  0.31650000  0.71940000  1
  H  H23  1  0.33580000  0.65980000  0.74860000  1
  H  H24  1  0.81260000  0.87270000  0.20120000  1
  H  H25  1  0.07320000  0.79000000  0.42400000  1
  H  H26  1  0.50530000  0.43790000  0.79680000  1
  H  H27  1  0.91490000  0.42820000  0.17580000  1
  H  H28  1  0.82310000  0.78460000  0.06600000  1
  H  H29  1  0.88980000  0.49500000  0.11380000  1
  H  H30  1  0.45100000  0.73770000  0.66200000  1
  H  H31  1  0.61140000  0.12730000  0.79880000  1
  H  H32  1  0.75710000  0.21540000  0.93400000  1
  H  H33  1  0.13540000  0.20300000  0.28340000  1
  H  H34  1  0.22220000  0.67170000  0.34340000  1
  H  H35  1  0.89030000  0.35360000  0.00920000  1
  H  H36  1  0.95250000  0.28760000  0.07060000  1
  H  H37  1  0.77600000  0.50500000  0.88620000  1
  H  H38  1  0.88110000  0.64640000  0.99080000  1
  H  H39  1  0.73910000  0.57180000  0.82420000  1
  H  H40  1  0.88190000  0.71240000  0.92940000  1
  H  H41  1  0.33740000  0.12720000  0.37280000  1
  C  C42  1  0.95840000  0.67010000  0.95820000  1
  C  C43  1  0.12200000  0.41310000  0.10640000  1
  C  C44  1  0.11040000  0.77720000  0.08840000  1
  C  C45  1  0.38880000  0.16840000  0.34760000  1
  C  C46  1  0.27240000  0.86140000  0.22760000  1
  C  C47  1  0.74770000  0.05880000  0.66680000  1
  C  C48  1  0.34140000  0.27770000  0.25820000  1
  C  C49  1  0.75850000  0.32570000  0.66960000  1
  C  C50  1  0.84920000  0.11290000  0.75300000  1
  C  C51  1  0.02200000  0.22280000  0.91160000  1
  C  C52  1  0.01560000  0.58690000  0.89360000  1
  C  C53  1  0.28870000  0.37970000  0.16480000  1
  C  C54  1  0.27740000  0.80680000  0.14780000  1
  C  C55  1  0.21800000  0.47150000  0.06040000  1
  C  C56  1  0.15760000  0.52850000  0.93960000  1
  C  C57  1  0.58810000  0.18460000  0.36220000  1
  C  C58  1  0.53630000  0.29660000  0.27460000  1
  C  C59  1  0.97380000  0.78500000  0.70560000  1
  C  C60  1  0.04480000  0.13860000  0.77240000  1
  C  C61  1  0.12960000  0.19320000  0.85220000  1
  C  C62  1  0.12390000  0.62030000  0.83520000  1
  C  C63  1  0.70200000  0.82290000  0.41200000  1
  C  C64  1  0.72190000  0.13520000  0.41600000  1
  C  C65  1  0.65640000  0.24930000  0.32680000  1
  C  C66  1  0.08320000  0.72230000  0.74180000  1
  C  C67  1  0.04120000  0.83160000  0.65240000  1
  C  C68  1  0.69520000  0.68000000  0.29440000  1
  C  C69  1  0.80290000  0.74540000  0.36240000  1
  C  C70  1  0.26170000  0.70340000  0.72540000  1
  C  C71  1  0.78300000  0.60910000  0.24600000  1
  C  C72  1  0.22590000  0.81540000  0.63780000  1
  C  C73  1  0.99950000  0.74420000  0.37960000  1
  C  C74  1  0.32960000  0.75070000  0.67320000  1
  C  C75  1  0.40080000  0.32000000  0.70560000  1
  C  C76  1  0.29000000  0.17710000  0.58800000  1
  C  C77  1  0.97980000  0.60840000  0.26160000  1
  C  C78  1  0.30590000  0.86480000  0.58400000  1
  C  C79  1  0.93090000  0.85710000  0.18780000  1
  C  C80  1  0.08090000  0.94120000  0.33320000  1
  C  C81  1  0.08890000  0.67430000  0.33040000  1
  C  C82  1  0.53700000  0.39090000  0.75400000  1
  C  C83  1  0.44050000  0.25460000  0.63760000  1
  C  C84  1  0.93650000  0.80290000  0.10680000  1
  C  C85  1  0.98340000  0.46910000  0.15240000  1
  C  C86  1  0.09620000  0.88710000  0.24700000  1
  C  C87  1  0.74310000  0.14290000  0.81220000  1
  C  C88  1  0.82970000  0.19710000  0.89320000  1
  C  C89  1  0.00020000  0.32990000  0.04180000  1
  C  C90  1  0.26820000  0.21500000  0.29440000  1
  C  C91  1  0.71820000  0.39160000  0.73840000  1
  C  C92  1  0.83100000  0.53090000  0.84760000  1
  C  C93  1  0.61990000  0.25580000  0.62040000  1
  O  O94  1  0.21130000  0.31800000  0.20740000  1
  O  O95  1  0.07740000  0.50000000  0.00000000  1
  O  O96  1  0.87040000  0.45550000  0.78160000  1
  O  O97  1  0.12740000  0.72070000  0.01280000  1
  O  O98  1  0.11460000  0.27930000  0.98720000  1
  O  O99  1  0.52390000  0.82340000  0.39620000  1
  O  O100  1  0.00390000  0.68200000  0.79260000  1
  O  O101  1  0.65940000  0.06640000  0.44040000  1
  O  O102  1  0.83110000  0.04050000  0.60480000  1
  O  O103  1  0.80210000  0.88890000  0.47120000  1
  O  O104  1  0.90050000  0.15930000  0.43520000  1
  O  O105  1  0.12770000  0.17660000  0.60380000  1
  O  O106  1  0.92558000  0.96670000  0.34516000  1
  O  O107  1  0.21900000  0.93360000  0.55960000  1
  O  O108  1  0.33090000  0.11110000  0.52880000  1
  O  O109  1  0.22630000  0.95950000  0.39520000  1
  O  O110  1  0.08880000  0.54450000  0.21840000  1
  O  O111  1  0.46530000  0.84070000  0.56480000  1
  O  O112  1  0.58042000  0.03330000  0.65484000  1
