# generated using pymatgen
data_ZnH3(C3O2)3
_symmetry_space_group_name_H-M   'P 1'
_cell_length_a   14.07260000
_cell_length_b   15.51710000
_cell_length_c   16.96500000
_cell_angle_alpha   90.00000000
_cell_angle_beta   108.11900000
_cell_angle_gamma   90.00000000
_symmetry_Int_Tables_number   1
_chemical_formula_structural   ZnH3(C3O2)3
_chemical_formula_sum   'Zn6 H18 C54 O36'
_cell_volume   3520.87800034
_cell_formula_units_Z   6
loop_
 _symmetry_equiv_pos_site_id
 _symmetry_equiv_pos_as_xyz
  1  'x, y, z'
loop_
 _atom_site_type_symbol
 _atom_site_label
 _atom_site_symmetry_multiplicity
 _atom_site_fract_x
 _atom_site_fract_y
 _atom_site_fract_z
 _atom_site_occupancy
  Zn  Zn0  1  0.25000000  0.95650000  1.00000000  1
  Zn  Zn1  1  0.75000000  0.04350000  1.00000000  1
  Zn  Zn2  1  0.63636000  0.70437000  0.51225000  1
  Zn  Zn3  1  0.13636000  0.29563000  0.51225000  1
  Zn  Zn4  1  0.86364000  0.70437000  0.48775000  1
  Zn  Zn5  1  0.36364000  0.29563000  0.48775000  1
  H  H6  1  0.96400000  0.91960000  0.91670000  1
  H  H7  1  0.46400000  0.08040000  0.91670000  1
  H  H8  1  0.72540000  0.84690000  0.73300000  1
  H  H9  1  0.22540000  0.15310000  0.73300000  1
  H  H10  1  0.00350000  0.79140000  0.72910000  1
  H  H11  1  0.50350000  0.20860000  0.72910000  1
  H  H12  1  0.39350000  0.56300000  0.50370000  1
  H  H13  1  0.89350000  0.43700000  0.50370000  1
  H  H14  1  0.25000000  0.78600000  0.50000000  1
  H  H15  1  0.75000000  0.21400000  0.50000000  1
  H  H16  1  0.10650000  0.56300000  0.49630000  1
  H  H17  1  0.60650000  0.43700000  0.49630000  1
  H  H18  1  0.49650000  0.79140000  0.27090000  1
  H  H19  1  0.99650000  0.20860000  0.27090000  1
  H  H20  1  0.77460000  0.84690000  0.26700000  1
  H  H21  1  0.27460000  0.15310000  0.26700000  1
  H  H22  1  0.53600000  0.91960000  0.08330000  1
  H  H23  1  0.03600000  0.08040000  0.08330000  1
  C  C24  1  0.76650000  0.93430000  0.87040000  1
  C  C25  1  0.26650000  0.06570000  0.87040000  1
  C  C26  1  0.10890000  0.85980000  0.86870000  1
  C  C27  1  0.60890000  0.14020000  0.86870000  1
  C  C28  1  0.93690000  0.89180000  0.86610000  1
  C  C29  1  0.43690000  0.10820000  0.86610000  1
  C  C30  1  0.83480000  0.89060000  0.83160000  1
  C  C31  1  0.33480000  0.10940000  0.83160000  1
  C  C32  1  0.00010000  0.85460000  0.83000000  1
  C  C33  1  0.50010000  0.14540000  0.83000000  1
  C  C34  1  0.79450000  0.85020000  0.75620000  1
  C  C35  1  0.29450000  0.14980000  0.75620000  1
  C  C36  1  0.96040000  0.81640000  0.75440000  1
  C  C37  1  0.46040000  0.18360000  0.75440000  1
  C  C38  1  0.85700000  0.81360000  0.71320000  1
  C  C39  1  0.35700000  0.18640000  0.71320000  1
  C  C40  1  0.81500000  0.77460000  0.63210000  1
  C  C41  1  0.31500000  0.22540000  0.63210000  1
  C  C42  1  0.43150000  0.72770000  0.50880000  1
  C  C43  1  0.93150000  0.27230000  0.50880000  1
  C  C44  1  0.33800000  0.68170000  0.50410000  1
  C  C45  1  0.83800000  0.31830000  0.50410000  1
  C  C46  1  0.33590000  0.59310000  0.50270000  1
  C  C47  1  0.83590000  0.40690000  0.50270000  1
  C  C48  1  0.25000000  0.72600000  0.50000000  1
  C  C49  1  0.75000000  0.54840000  0.50000000  1
  C  C50  1  0.25000000  0.54740000  0.50000000  1
  C  C51  1  0.75000000  0.45260000  0.50000000  1
  C  C52  1  0.25000000  0.45160000  0.50000000  1
  C  C53  1  0.75000000  0.27400000  0.50000000  1
  C  C54  1  0.16410000  0.59310000  0.49730000  1
  C  C55  1  0.66410000  0.40690000  0.49730000  1
  C  C56  1  0.16200000  0.68170000  0.49590000  1
  C  C57  1  0.66200000  0.31830000  0.49590000  1
  C  C58  1  0.06850000  0.72770000  0.49120000  1
  C  C59  1  0.56850000  0.27230000  0.49120000  1
  C  C60  1  0.68500000  0.77460000  0.36790000  1
  C  C61  1  0.18500000  0.22540000  0.36790000  1
  C  C62  1  0.64300000  0.81360000  0.28680000  1
  C  C63  1  0.14300000  0.18640000  0.28680000  1
  C  C64  1  0.53960000  0.81640000  0.24560000  1
  C  C65  1  0.03960000  0.18360000  0.24560000  1
  C  C66  1  0.70550000  0.85020000  0.24380000  1
  C  C67  1  0.20550000  0.14980000  0.24380000  1
  C  C68  1  0.49990000  0.85460000  0.17000000  1
  C  C69  1  0.99990000  0.14540000  0.17000000  1
  C  C70  1  0.66520000  0.89060000  0.16840000  1
  C  C71  1  0.16520000  0.10940000  0.16840000  1
  C  C72  1  0.56310000  0.89180000  0.13390000  1
  C  C73  1  0.06310000  0.10820000  0.13390000  1
  C  C74  1  0.39110000  0.85980000  0.13130000  1
  C  C75  1  0.89110000  0.14020000  0.13130000  1
  C  C76  1  0.73350000  0.93430000  0.12960000  1
  C  C77  1  0.23350000  0.06570000  0.12960000  1
  O  O78  1  0.13720000  0.88360000  0.94440000  1
  O  O79  1  0.63720000  0.11640000  0.94440000  1
  O  O80  1  0.81250000  0.97850000  0.93420000  1
  O  O81  1  0.31250000  0.02150000  0.93420000  1
  O  O82  1  0.67490000  0.92270000  0.84620000  1
  O  O83  1  0.17490000  0.07730000  0.84620000  1
  O  O84  1  0.16840000  0.84070000  0.82910000  1
  O  O85  1  0.66840000  0.15930000  0.82910000  1
  O  O86  1  0.72210000  0.76630000  0.60460000  1
  O  O87  1  0.22210000  0.23370000  0.60460000  1
  O  O88  1  0.87510000  0.75400000  0.59460000  1
  O  O89  1  0.37510000  0.24600000  0.59460000  1
  O  O90  1  0.50670000  0.68070000  0.51940000  1
  O  O91  1  0.00670000  0.31930000  0.51940000  1
  O  O92  1  0.67620000  0.58480000  0.51010000  1
  O  O93  1  0.17620000  0.41520000  0.51010000  1
  O  O94  1  0.43230000  0.80530000  0.50120000  1
  O  O95  1  0.93230000  0.19470000  0.50120000  1
  O  O96  1  0.06770000  0.80530000  0.49880000  1
  O  O97  1  0.56770000  0.19470000  0.49880000  1
  O  O98  1  0.82380000  0.58480000  0.48990000  1
  O  O99  1  0.32380000  0.41520000  0.48990000  1
  O  O100  1  0.99330000  0.68070000  0.48060000  1
  O  O101  1  0.49330000  0.31930000  0.48060000  1
  O  O102  1  0.62490000  0.75400000  0.40540000  1
  O  O103  1  0.12490000  0.24600000  0.40540000  1
  O  O104  1  0.77790000  0.76630000  0.39540000  1
  O  O105  1  0.27790000  0.23370000  0.39540000  1
  O  O106  1  0.33160000  0.84070000  0.17090000  1
  O  O107  1  0.83160000  0.15930000  0.17090000  1
  O  O108  1  0.82510000  0.92270000  0.15380000  1
  O  O109  1  0.32510000  0.07730000  0.15380000  1
  O  O110  1  0.68750000  0.97850000  0.06580000  1
  O  O111  1  0.18750000  0.02150000  0.06580000  1
  O  O112  1  0.36280000  0.88360000  0.05560000  1
  O  O113  1  0.86280000  0.11640000  0.05560000  1
