# generated using pymatgen
data_MgH5C8O5
_symmetry_space_group_name_H-M   'P 1'
_cell_length_a   12.30100000
_cell_length_b   12.44033709
_cell_length_c   12.44033709
_cell_angle_alpha   75.85178111
_cell_angle_beta   60.36982064
_cell_angle_gamma   60.36982064
_symmetry_Int_Tables_number   1
_chemical_formula_structural   MgH5C8O5
_chemical_formula_sum   'Mg4 H20 C32 O20'
_cell_volume   1438.39697407
_cell_formula_units_Z   4
loop_
 _symmetry_equiv_pos_site_id
 _symmetry_equiv_pos_as_xyz
  1  'x, y, z'
loop_
 _atom_site_type_symbol
 _atom_site_label
 _atom_site_symmetry_multiplicity
 _atom_site_fract_x
 _atom_site_fract_y
 _atom_site_fract_z
 _atom_site_occupancy
  C  C0  1  0.93900000  0.00000000  0.00000000  1
  C  C1  1  0.71170000  0.00000000  0.00000000  1
  C  C2  1  0.28830000  0.00000000  0.00000000  1
  C  C3  1  0.06100000  0.00000000  0.00000000  1
  C  C4  1  0.81100000  0.50000000  0.50000000  1
  C  C5  1  0.68900000  0.50000000  0.50000000  1
  C  C6  1  0.46170000  0.50000000  0.50000000  1
  C  C7  1  0.03830000  0.50000000  0.50000000  1
  C  C8  1  0.15590000  0.89410000  0.03250000  1
  C  C9  1  0.66750000  0.53250000  0.39410000  1
  C  C10  1  0.27260000  0.89120000  0.02800000  1
  C  C11  1  0.55820000  0.52800000  0.39120000  1
  C  C12  1  0.83620000  0.89120000  0.97200000  1
  C  C13  1  0.05060000  0.47200000  0.39120000  1
  C  C14  1  0.95000000  0.89410000  0.96750000  1
  C  C15  1  0.93840000  0.46750000  0.39410000  1
  C  C16  1  0.37950000  0.77250000  0.05210000  1
  C  C17  1  0.54590000  0.55210000  0.27250000  1
  C  C18  1  0.84800000  0.77250000  0.94790000  1
  C  C19  1  0.18160000  0.44790000  0.27250000  1
  C  C20  1  0.90200000  0.55210000  0.72750000  1
  C  C21  1  0.56840000  0.22750000  0.05210000  1
  C  C22  1  0.37050000  0.44790000  0.72750000  1
  C  C23  1  0.20410000  0.22750000  0.94790000  1
  C  C24  1  0.80000000  0.53250000  0.60590000  1
  C  C25  1  0.81160000  0.10590000  0.03250000  1
  C  C26  1  0.91380000  0.52800000  0.60880000  1
  C  C27  1  0.69940000  0.10880000  0.02800000  1
  C  C28  1  0.47740000  0.47200000  0.60880000  1
  C  C29  1  0.19180000  0.10880000  0.97200000  1
  C  C30  1  0.59410000  0.46750000  0.60590000  1
  C  C31  1  0.08250000  0.10590000  0.96750000  1
  H  H32  1  0.63610000  0.00000000  0.00000000  1
  H  H33  1  0.36390000  0.00000000  0.00000000  1
  H  H34  1  0.38610000  0.50000000  0.50000000  1
  H  H35  1  0.11390000  0.50000000  0.50000000  1
  H  H36  1  0.14080000  0.82380000  0.05780000  1
  H  H37  1  0.72760000  0.55780000  0.32380000  1
  H  H38  1  0.03540000  0.82380000  0.94220000  1
  H  H39  1  0.94860000  0.44220000  0.32380000  1
  H  H40  1  0.29365000  0.58571000  0.00893000  1
  H  H41  1  0.86171000  0.50893000  0.08571000  1
  H  H42  1  0.12064000  0.58571000  0.99107000  1
  H  H43  1  0.05258000  0.49107000  0.08571000  1
  H  H44  1  0.62936000  0.50893000  0.91429000  1
  H  H45  1  0.69742000  0.41429000  0.00893000  1
  H  H46  1  0.45635000  0.49107000  0.91429000  1
  H  H47  1  0.88829000  0.41429000  0.99107000  1
  H  H48  1  0.71460000  0.55780000  0.67620000  1
  H  H49  1  0.80140000  0.17620000  0.05780000  1
  H  H50  1  0.60920000  0.44220000  0.67620000  1
  H  H51  1  0.02240000  0.17620000  0.94220000  1
  Mg  Mg52  1  0.68480000  0.63040000  1.00000000  1
  Mg  Mg53  1  0.43480000  0.50000000  0.13040000  1
  Mg  Mg54  1  0.06520000  0.50000000  0.86960000  1
  Mg  Mg55  1  0.31520000  0.36960000  1.00000000  1
  O  O56  1  0.34254000  0.69189000  0.11423000  1
  O  O57  1  0.60134000  0.61423000  0.19189000  1
  O  O58  1  0.50090000  0.76420000  0.00480000  1
  O  O59  1  0.48010000  0.50480000  0.26420000  1
  O  O60  1  0.73490000  0.76420000  0.99520000  1
  O  O61  1  0.25570000  0.49520000  0.26420000  1
  O  O62  1  0.96557000  0.69189000  0.88577000  1
  O  O63  1  0.20677000  0.38577000  0.19189000  1
  O  O64  1  0.11960000  0.50540000  0.00540000  1
  O  O65  1  0.37500000  0.50540000  0.99460000  1
  O  O66  1  0.87500000  0.49460000  0.00540000  1
  O  O67  1  0.63040000  0.49460000  0.99460000  1
  O  O68  1  0.78443000  0.61423000  0.80811000  1
  O  O69  1  0.54323000  0.30811000  0.11423000  1
  O  O70  1  0.01510000  0.50480000  0.73580000  1
  O  O71  1  0.49430000  0.23580000  0.00480000  1
  O  O72  1  0.24910000  0.49520000  0.73580000  1
  O  O73  1  0.26990000  0.23580000  0.99520000  1
  O  O74  1  0.40746000  0.38577000  0.80811000  1
  O  O75  1  0.14866000  0.30811000  0.88577000  1
