# generated using pymatgen
data_ErC12(OF)6
_symmetry_space_group_name_H-M   'P 1'
_cell_length_a   11.67100000
_cell_length_b   11.89160000
_cell_length_c   14.30500000
_cell_angle_alpha   110.63300000
_cell_angle_beta   99.92000000
_cell_angle_gamma   101.35100000
_symmetry_Int_Tables_number   1
_chemical_formula_structural   ErC12(OF)6
_chemical_formula_sum   'Er4 C48 O24 F24'
_cell_volume   1757.35778667
_cell_formula_units_Z   4
loop_
 _symmetry_equiv_pos_site_id
 _symmetry_equiv_pos_as_xyz
  1  'x, y, z'
loop_
 _atom_site_type_symbol
 _atom_site_label
 _atom_site_symmetry_multiplicity
 _atom_site_fract_x
 _atom_site_fract_y
 _atom_site_fract_z
 _atom_site_occupancy
  Er  Er0  1  0.09848000  0.97220000  0.10469000  1
  Er  Er1  1  0.41570000  0.08160000  0.43075000  1
  Er  Er2  1  0.58430000  0.91840000  0.56925000  1
  Er  Er3  1  0.90152000  0.02780000  0.89531000  1
  C  C4  1  0.01410000  0.07310000  0.38750000  1
  C  C5  1  0.01700000  0.81640000  0.58280000  1
  C  C6  1  0.07350000  0.03320000  0.62620000  1
  C  C7  1  0.10510000  0.24980000  0.09850000  1
  C  C8  1  0.11520000  0.47150000  0.20990000  1
  C  C9  1  0.13050000  0.81070000  0.57050000  1
  C  C10  1  0.13120000  0.06580000  0.35900000  1
  C  C11  1  0.14380000  0.03270000  0.89110000  1
  C  C12  1  0.17020000  0.38790000  0.15470000  1
  C  C13  1  0.17820000  0.59640000  0.26620000  1
  C  C14  1  0.18770000  0.02960000  0.61600000  1
  C  C15  1  0.22030000  0.91820000  0.58720000  1
  C  C16  1  0.26610000  0.02010000  0.87970000  1
  C  C17  1  0.28930000  0.43330000  0.15710000  1
  C  C18  1  0.29820000  0.64150000  0.27020000  1
  C  C19  1  0.29900000  0.91170000  0.86950000  1
  C  C20  1  0.34330000  0.91250000  0.57700000  1
  C  C21  1  0.35090000  0.11610000  0.87460000  1
  C  C22  1  0.35320000  0.55700000  0.21350000  1
  C  C23  1  0.37190000  0.77180000  0.34310000  1
  C  C24  1  0.38560000  0.01680000  0.17210000  1
  C  C25  1  0.41150000  0.90020000  0.85550000  1
  C  C26  1  0.46220000  0.10390000  0.86010000  1
  C  C27  1  0.49440000  0.99580000  0.85010000  1
  C  C28  1  0.50560000  0.00420000  0.14990000  1
  C  C29  1  0.53780000  0.89610000  0.13990000  1
  C  C30  1  0.58850000  0.09980000  0.14450000  1
  C  C31  1  0.61440000  0.98320000  0.82790000  1
  C  C32  1  0.62810000  0.22820000  0.65690000  1
  C  C33  1  0.64680000  0.44300000  0.78650000  1
  C  C34  1  0.64910000  0.88390000  0.12540000  1
  C  C35  1  0.65670000  0.08750000  0.42300000  1
  C  C36  1  0.70100000  0.08830000  0.13050000  1
  C  C37  1  0.70180000  0.35850000  0.72980000  1
  C  C38  1  0.71070000  0.56670000  0.84290000  1
  C  C39  1  0.73390000  0.97990000  0.12030000  1
  C  C40  1  0.77970000  0.08180000  0.41280000  1
  C  C41  1  0.81230000  0.97040000  0.38400000  1
  C  C42  1  0.82180000  0.40360000  0.73380000  1
  C  C43  1  0.82980000  0.61210000  0.84530000  1
  C  C44  1  0.85620000  0.96730000  0.10890000  1
  C  C45  1  0.86880000  0.93420000  0.64100000  1
  C  C46  1  0.86950000  0.18930000  0.42950000  1
  C  C47  1  0.88480000  0.52850000  0.79010000  1
  C  C48  1  0.89490000  0.75020000  0.90150000  1
  C  C49  1  0.92650000  0.96680000  0.37380000  1
  C  C50  1  0.98300000  0.18360000  0.41720000  1
  C  C51  1  0.98590000  0.92690000  0.61250000  1
  O  O52  1  0.01590000  0.21770000  0.02290000  1
  O  O53  1  0.09170000  0.98150000  0.94320000  1
  O  O54  1  0.09180000  0.08870000  0.84680000  1
  O  O55  1  0.13770000  0.08030000  0.27820000  1
  O  O56  1  0.15090000  0.18130000  0.13350000  1
  O  O57  1  0.21170000  0.04910000  0.41900000  1
  O  O58  1  0.29800000  0.99350000  0.09710000  1
  O  O59  1  0.33460000  0.86140000  0.33300000  1
  O  O60  1  0.38180000  0.04640000  0.26310000  1
  O  O61  1  0.38750000  0.83350000  0.59580000  1
  O  O62  1  0.40620000  0.99270000  0.55140000  1
  O  O63  1  0.46120000  0.77780000  0.40910000  1
  O  O64  1  0.53880000  0.22220000  0.59090000  1
  O  O65  1  0.59380000  0.00730000  0.44860000  1
  O  O66  1  0.61250000  0.16650000  0.40420000  1
  O  O67  1  0.61820000  0.95360000  0.73690000  1
  O  O68  1  0.66540000  0.13860000  0.66700000  1
  O  O69  1  0.70200000  0.00650000  0.90290000  1
  O  O70  1  0.78830000  0.95090000  0.58100000  1
  O  O71  1  0.84910000  0.81870000  0.86650000  1
  O  O72  1  0.86230000  0.91970000  0.72180000  1
  O  O73  1  0.90820000  0.91130000  0.15320000  1
  O  O74  1  0.90830000  0.01850000  0.05680000  1
  O  O75  1  0.98410000  0.78230000  0.97710000  1
  F  F76  1  0.00150000  0.43150000  0.21400000  1
  F  F77  1  0.04780000  0.14310000  0.65510000  1
  F  F78  1  0.06480000  0.28960000  0.43340000  1
  F  F79  1  0.12310000  0.67240000  0.32250000  1
  F  F80  1  0.15270000  0.69960000  0.54050000  1
  F  F81  1  0.22110000  0.81310000  0.86910000  1
  F  F82  1  0.27010000  0.13780000  0.63970000  1
  F  F83  1  0.32690000  0.22400000  0.88480000  1
  F  F84  1  0.34700000  0.35620000  0.10460000  1
  F  F85  1  0.43840000  0.79300000  0.84500000  1
  F  F86  1  0.45980000  0.80070000  0.14530000  1
  F  F87  1  0.46960000  0.59520000  0.21480000  1
  F  F88  1  0.53040000  0.40480000  0.78520000  1
  F  F89  1  0.54020000  0.19930000  0.85470000  1
  F  F90  1  0.56160000  0.20700000  0.15500000  1
  F  F91  1  0.65300000  0.64380000  0.89540000  1
  F  F92  1  0.67310000  0.77600000  0.11520000  1
  F  F93  1  0.72990000  0.86220000  0.36030000  1
  F  F94  1  0.77890000  0.18690000  0.13090000  1
  F  F95  1  0.84730000  0.30040000  0.45950000  1
  F  F96  1  0.87690000  0.32760000  0.67750000  1
  F  F97  1  0.93520000  0.71040000  0.56660000  1
  F  F98  1  0.95220000  0.85690000  0.34490000  1
  F  F99  1  0.99850000  0.56850000  0.78600000  1
