# generated using pymatgen
data_Sr3P8H12(C2O7)4
_symmetry_space_group_name_H-M   'P 1'
_cell_length_a   10.19950000
_cell_length_b   14.25499598
_cell_length_c   14.25499598
_cell_angle_alpha   75.41101875
_cell_angle_beta   74.76252995
_cell_angle_gamma   74.76252995
_symmetry_Int_Tables_number   1
_chemical_formula_structural   Sr3P8H12(C2O7)4
_chemical_formula_sum   'Sr6 P16 H24 C16 O56'
_cell_volume   1891.85814921
_cell_formula_units_Z   2
loop_
 _symmetry_equiv_pos_site_id
 _symmetry_equiv_pos_as_xyz
  1  'x, y, z'
loop_
 _atom_site_type_symbol
 _atom_site_label
 _atom_site_symmetry_multiplicity
 _atom_site_fract_x
 _atom_site_fract_y
 _atom_site_fract_z
 _atom_site_occupancy
  C  C0  1  0.01560000  0.26459000  0.61285000  1
  C  C1  1  0.51560000  0.61285000  0.26459000  1
  C  C2  1  0.13230000  0.18829000  0.65605000  1
  C  C3  1  0.63230000  0.65605000  0.18829000  1
  C  C4  1  0.36770000  0.02513000  0.77909000  1
  C  C5  1  0.86770000  0.77909000  0.02513000  1
  C  C6  1  0.44390000  0.94813000  0.71453000  1
  C  C7  1  0.94390000  0.71453000  0.94813000  1
  C  C8  1  0.55610000  0.05187000  0.28547000  1
  C  C9  1  0.05610000  0.28547000  0.05187000  1
  C  C10  1  0.63230000  0.97487000  0.22091000  1
  C  C11  1  0.13230000  0.22091000  0.97487000  1
  C  C12  1  0.86770000  0.81171000  0.34395000  1
  C  C13  1  0.36770000  0.34395000  0.81171000  1
  C  C14  1  0.98440000  0.73541000  0.38715000  1
  C  C15  1  0.48440000  0.38715000  0.73541000  1
  H  H16  1  0.83400000  0.25900000  0.61000000  1
  H  H17  1  0.33400000  0.61000000  0.25900000  1
  H  H18  1  0.57660000  0.17100000  0.65800000  1
  H  H19  1  0.07660000  0.65800000  0.17100000  1
  H  H20  1  0.13160000  0.84450000  0.83490000  1
  H  H21  1  0.63160000  0.83490000  0.84450000  1
  H  H22  1  0.72810000  0.92670000  0.71970000  1
  H  H23  1  0.22810000  0.71970000  0.92670000  1
  H  H24  1  0.18150000  0.17220000  0.44240000  1
  H  H25  1  0.68150000  0.44240000  0.17220000  1
  H  H26  1  0.35600000  0.97650000  0.59650000  1
  H  H27  1  0.85600000  0.59650000  0.97650000  1
  H  H28  1  0.64400000  0.02350000  0.40350000  1
  H  H29  1  0.14400000  0.40350000  0.02350000  1
  H  H30  1  0.81850000  0.82780000  0.55760000  1
  H  H31  1  0.31850000  0.55760000  0.82780000  1
  H  H32  1  0.27190000  0.07330000  0.28030000  1
  H  H33  1  0.77190000  0.28030000  0.07330000  1
  H  H34  1  0.86840000  0.15550000  0.16510000  1
  H  H35  1  0.36840000  0.16510000  0.15550000  1
  H  H36  1  0.42340000  0.82900000  0.34200000  1
  H  H37  1  0.92340000  0.34200000  0.82900000  1
  H  H38  1  0.16600000  0.74100000  0.39000000  1
  H  H39  1  0.66600000  0.39000000  0.74100000  1
  O  O40  1  0.66710000  0.35239000  0.56355000  1
  O  O41  1  0.16710000  0.56355000  0.35239000  1
  O  O42  1  0.42110000  0.32779000  0.58557000  1
  O  O43  1  0.92110000  0.58557000  0.32779000  1
  O  O44  1  0.58520000  0.20951000  0.68909000  1
  O  O45  1  0.08520000  0.68909000  0.20951000  1
  O  O46  1  0.89890000  0.21808000  0.62998000  1
  O  O47  1  0.39890000  0.62998000  0.21808000  1
  O  O48  1  0.96730000  0.37811000  0.43375000  1
  O  O49  1  0.46730000  0.43375000  0.37811000  1
  O  O50  1  0.21580000  0.33199000  0.46575000  1
  O  O51  1  0.71580000  0.46575000  0.33199000  1
  O  O52  1  0.05150000  0.87175000  0.83009000  1
  O  O53  1  0.55150000  0.83009000  0.87175000  1
  O  O54  1  0.55260000  0.09255000  0.58083000  1
  O  O55  1  0.05260000  0.58083000  0.09255000  1
  O  O56  1  0.70820000  0.98248000  0.68678000  1
  O  O57  1  0.20820000  0.68678000  0.98248000  1
  O  O58  1  0.82970000  0.84781000  0.80711000  1
  O  O59  1  0.32970000  0.80711000  0.84781000  1
  O  O60  1  0.10400000  0.20575000  0.43733000  1
  O  O61  1  0.60400000  0.43733000  0.20575000  1
  O  O62  1  0.35790000  0.93746000  0.65182000  1
  O  O63  1  0.85790000  0.65182000  0.93746000  1
  O  O64  1  0.34710000  0.08481000  0.44563000  1
  O  O65  1  0.84710000  0.44563000  0.08481000  1
  O  O66  1  0.44040000  0.24836000  0.27110000  1
  O  O67  1  0.94040000  0.27110000  0.24836000  1
  O  O68  1  0.55960000  0.75164000  0.72890000  1
  O  O69  1  0.05960000  0.72890000  0.75164000  1
  O  O70  1  0.65290000  0.91519000  0.55437000  1
  O  O71  1  0.15290000  0.55437000  0.91519000  1
  O  O72  1  0.64210000  0.06254000  0.34818000  1
  O  O73  1  0.14210000  0.34818000  0.06254000  1
  O  O74  1  0.89600000  0.79425000  0.56267000  1
  O  O75  1  0.39600000  0.56267000  0.79425000  1
  O  O76  1  0.17030000  0.15219000  0.19289000  1
  O  O77  1  0.67030000  0.19289000  0.15219000  1
  O  O78  1  0.29180000  0.01752000  0.31322000  1
  O  O79  1  0.79180000  0.31322000  0.01752000  1
  O  O80  1  0.44740000  0.90745000  0.41917000  1
  O  O81  1  0.94740000  0.41917000  0.90745000  1
  O  O82  1  0.94850000  0.12825000  0.16991000  1
  O  O83  1  0.44850000  0.16991000  0.12825000  1
  O  O84  1  0.78420000  0.66801000  0.53425000  1
  O  O85  1  0.28420000  0.53425000  0.66801000  1
  O  O86  1  0.03270000  0.62189000  0.56625000  1
  O  O87  1  0.53270000  0.56625000  0.62189000  1
  O  O88  1  0.10110000  0.78192000  0.37002000  1
  O  O89  1  0.60110000  0.37002000  0.78192000  1
  O  O90  1  0.41480000  0.79049000  0.31091000  1
  O  O91  1  0.91480000  0.31091000  0.79049000  1
  O  O92  1  0.57890000  0.67221000  0.41443000  1
  O  O93  1  0.07890000  0.41443000  0.67221000  1
  O  O94  1  0.33290000  0.64761000  0.43645000  1
  O  O95  1  0.83290000  0.43645000  0.64761000  1
  P  P96  1  0.54018000  0.32058000  0.63258000  1
  P  P97  1  0.04018000  0.63258000  0.32058000  1
  P  P98  1  0.07917000  0.30359000  0.47819000  1
  P  P99  1  0.57917000  0.47819000  0.30359000  1
  P  P100  1  0.47234000  0.82336000  0.79284000  1
  P  P101  1  0.97234000  0.79284000  0.82336000  1
  P  P102  1  0.59832000  0.98477000  0.62667000  1
  P  P103  1  0.09832000  0.62667000  0.98477000  1
  P  P104  1  0.40168000  0.01523000  0.37333000  1
  P  P105  1  0.90168000  0.37333000  0.01523000  1
  P  P106  1  0.52766000  0.17664000  0.20716000  1
  P  P107  1  0.02766000  0.20716000  0.17664000  1
  P  P108  1  0.92083000  0.69641000  0.52181000  1
  P  P109  1  0.42083000  0.52181000  0.69641000  1
  P  P110  1  0.45982000  0.67942000  0.36742000  1
  P  P111  1  0.95982000  0.36742000  0.67942000  1
  Sr  Sr112  1  0.25000000  0.48615000  0.51385000  1
  Sr  Sr113  1  0.75000000  0.51385000  0.48615000  1
  Sr  Sr114  1  0.47101000  0.23558000  0.44098000  1
  Sr  Sr115  1  0.97101000  0.44098000  0.23558000  1
  Sr  Sr116  1  0.52899000  0.76442000  0.55902000  1
  Sr  Sr117  1  0.02899000  0.55902000  0.76442000  1
