# generated using pymatgen
data_FeH26C22(SN5)2
_symmetry_space_group_name_H-M   'P 1'
_cell_length_a   11.02150000
_cell_length_b   15.14860000
_cell_length_c   15.14864887
_cell_angle_alpha   114.31658828
_cell_angle_beta   104.03555570
_cell_angle_gamma   104.03500000
_symmetry_Int_Tables_number   1
_chemical_formula_structural   FeH26C22(SN5)2
_chemical_formula_sum   'Fe3 H78 C66 S6 N30'
_cell_volume   2061.54092051
_cell_formula_units_Z   3
loop_
 _symmetry_equiv_pos_site_id
 _symmetry_equiv_pos_as_xyz
  1  'x, y, z'
loop_
 _atom_site_type_symbol
 _atom_site_label
 _atom_site_symmetry_multiplicity
 _atom_site_fract_x
 _atom_site_fract_y
 _atom_site_fract_z
 _atom_site_occupancy
  Fe  Fe0  1  0.50000000  0.50000000  0.50000000  1
  Fe  Fe1  1  0.00000000  0.50000000  0.00000000  1
  Fe  Fe2  1  0.00000000  1.00000000  0.50000000  1
  H  H3  1  0.86970000  0.23250000  0.86060000  1
  H  H4  1  0.36910000  0.98000000  0.35050000  1
  H  H5  1  0.26830000  0.95290000  0.24170000  1
  H  H6  1  0.56320000  0.77030000  0.52870000  1
  H  H7  1  0.56340000  0.20960000  0.51900000  1
  H  H8  1  0.45840000  0.68930000  0.41350000  1
  H  H9  1  0.38840000  0.59180000  0.26050000  1
  H  H10  1  0.36280000  0.37190000  0.23250000  1
  H  H11  1  0.28040000  0.52040000  0.14500000  1
  H  H12  1  0.73730000  0.16640000  0.58100000  1
  H  H13  1  0.42210000  0.97630000  0.26240000  1
  H  H14  1  0.87210000  0.26050000  0.66870000  1
  H  H15  1  0.96550000  0.52870000  0.75840000  1
  H  H16  1  0.52300000  0.29180000  0.31280000  1
  H  H17  1  0.95510000  0.41350000  0.72420000  1
  H  H18  1  0.55480000  0.20060000  0.32390000  1
  H  H19  1  0.21020000  0.68720000  0.97900000  1
  H  H20  1  0.86460000  0.14500000  0.62460000  1
  H  H21  1  0.42910000  0.58540000  0.16640000  1
  H  H22  1  0.31540000  0.28880000  0.04710000  1
  H  H23  1  0.76000000  0.62460000  0.47960000  1
  H  H24  1  0.02660000  0.75830000  0.71120000  1
  H  H25  1  0.62070000  0.97580000  0.26860000  1
  H  H26  1  0.04440000  0.48100000  0.69060000  1
  H  H27  1  0.23090000  0.67610000  0.87670000  1
  H  H28  1  0.64790000  0.26860000  0.29280000  1
  H  H29  1  0.99090000  0.86060000  0.62810000  1
  H  H30  1  0.38910000  0.37050000  0.02000000  1
  H  H31  1  0.35510000  0.70720000  0.97580000  1
  H  H32  1  0.79660000  0.66870000  0.40820000  1
  H  H33  1  0.01860000  0.64950000  0.62950000  1
  H  H34  1  0.44580000  0.28610000  0.02370000  1
  H  H35  1  0.84370000  0.58100000  0.41460000  1
  H  H36  1  0.64620000  0.69060000  0.20960000  1
  H  H37  1  0.20710000  0.24160000  0.77030000  1
  H  H38  1  0.64580000  0.87670000  0.20060000  1
  H  H39  1  0.15970000  0.73760000  0.71390000  1
  H  H40  1  0.76910000  0.72420000  0.31070000  1
  H  H41  1  0.76880000  0.97900000  0.29180000  1
  H  H42  1  0.23120000  0.02100000  0.70820000  1
  H  H43  1  0.23090000  0.27580000  0.68930000  1
  H  H44  1  0.84030000  0.26240000  0.28610000  1
  H  H45  1  0.35420000  0.12330000  0.79940000  1
  H  H46  1  0.79290000  0.75840000  0.22970000  1
  H  H47  1  0.35380000  0.30940000  0.79040000  1
  H  H48  1  0.15630000  0.41900000  0.58540000  1
  H  H49  1  0.55420000  0.71390000  0.97630000  1
  H  H50  1  0.98140000  0.35050000  0.37050000  1
  H  H51  1  0.20340000  0.33130000  0.59180000  1
  H  H52  1  0.64490000  0.29280000  0.02420000  1
  H  H53  1  0.61090000  0.62950000  0.98000000  1
  H  H54  1  0.00910000  0.13940000  0.37190000  1
  H  H55  1  0.35210000  0.73140000  0.70720000  1
  H  H56  1  0.76910000  0.32390000  0.12330000  1
  H  H57  1  0.95560000  0.51900000  0.30940000  1
  H  H58  1  0.37930000  0.02420000  0.73140000  1
  H  H59  1  0.97340000  0.24170000  0.28880000  1
  H  H60  1  0.24000000  0.37540000  0.52040000  1
  H  H61  1  0.68460000  0.71120000  0.95290000  1
  H  H62  1  0.57090000  0.41460000  0.83360000  1
  H  H63  1  0.13540000  0.85500000  0.37540000  1
  H  H64  1  0.78980000  0.31280000  0.02100000  1
  H  H65  1  0.44520000  0.79940000  0.67610000  1
  H  H66  1  0.04490000  0.58650000  0.27580000  1
  H  H67  1  0.47700000  0.70820000  0.68720000  1
  H  H68  1  0.03450000  0.47130000  0.24160000  1
  H  H69  1  0.12790000  0.73950000  0.33130000  1
  H  H70  1  0.57790000  0.02370000  0.73760000  1
  H  H71  1  0.26270000  0.83360000  0.41900000  1
  H  H72  1  0.71960000  0.47960000  0.85500000  1
  H  H73  1  0.63720000  0.62810000  0.76750000  1
  H  H74  1  0.61160000  0.40820000  0.73950000  1
  H  H75  1  0.54160000  0.31070000  0.58650000  1
  H  H76  1  0.43660000  0.79040000  0.48100000  1
  H  H77  1  0.43680000  0.22970000  0.47130000  1
  H  H78  1  0.73170000  0.04710000  0.75830000  1
  H  H79  1  0.63090000  0.02000000  0.64950000  1
  H  H80  1  0.13030000  0.76750000  0.13940000  1
  C  C81  1  0.92686000  0.65077000  0.91481000  1
  C  C82  1  0.50300000  0.76240000  0.46580000  1
  C  C83  1  0.34730000  0.94530000  0.27630000  1
  C  C84  1  0.72391000  0.73596000  0.65077000  1
  C  C85  1  0.31950000  0.83150000  0.23590000  1
  C  C86  1  0.31909000  0.67478000  0.19969000  1
  C  C87  1  0.40185000  0.78295000  0.26030000  1
  C  C88  1  0.58190000  0.82004000  0.42616000  1
  C  C89  1  0.35760000  0.58510000  0.19220000  1
  C  C90  1  0.54188000  0.83218000  0.33986000  1
  C  C91  1  0.83460000  0.19220000  0.60710000  1
  C  C92  1  0.68142000  0.34455000  0.44731000  1
  C  C93  1  0.84426000  0.42616000  0.60612000  1
  C  C94  1  0.96280000  0.46580000  0.70340000  1
  C  C95  1  0.59410000  0.26980000  0.33420000  1
  C  C96  1  0.01205000  0.08519000  0.73596000  1
  C  C97  1  0.79798000  0.33986000  0.50768000  1
  C  C98  1  0.66313000  0.89724000  0.34455000  1
  C  C99  1  0.64431000  0.52491000  0.32522000  1
  C  C100  1  0.48800000  0.40440000  0.16850000  1
  C  C101  1  0.25990000  0.66580000  0.93560000  1
  C  C102  1  0.23411000  0.55269000  0.89724000  1
  C  C103  1  0.40200000  0.33100000  0.05470000  1
  C  C104  1  0.88060000  0.19969000  0.52491000  1
  C  C105  1  0.77250000  0.60710000  0.41490000  1
  C  C106  1  0.85845000  0.26030000  0.47735000  1
  C  C107  1  0.61890000  0.47735000  0.21705000  1
  C  C108  1  0.07100000  0.72370000  0.66900000  1
  C  C109  1  0.67570000  0.93560000  0.26980000  1
  C  C110  1  0.23814000  0.39388000  0.82004000  1
  C  C111  1  0.29030000  0.49232000  0.83218000  1
  C  C112  1  0.08360000  0.76410000  0.59560000  1
  C  C113  1  0.25940000  0.29660000  0.76240000  1
  C  C114  1  0.74060000  0.70340000  0.23760000  1
  C  C115  1  0.91640000  0.23590000  0.40440000  1
  C  C116  1  0.70970000  0.50768000  0.16782000  1
  C  C117  1  0.76186000  0.60612000  0.17996000  1
  C  C118  1  0.32430000  0.06440000  0.73020000  1
  C  C119  1  0.92900000  0.27630000  0.33100000  1
  C  C120  1  0.38110000  0.52265000  0.78295000  1
  C  C121  1  0.14155000  0.73970000  0.52265000  1
  C  C122  1  0.22750000  0.39290000  0.58510000  1
  C  C123  1  0.11940000  0.80031000  0.47509000  1
  C  C124  1  0.59800000  0.66900000  0.94530000  1
  C  C125  1  0.76589000  0.44731000  0.10276000  1
  C  C126  1  0.74010000  0.33420000  0.06440000  1
  C  C127  1  0.51200000  0.59560000  0.83150000  1
  C  C128  1  0.35569000  0.47509000  0.67478000  1
  C  C129  1  0.33687000  0.10276000  0.65545000  1
  C  C130  1  0.20202000  0.66014000  0.49232000  1
  C  C131  1  0.98795000  0.91481000  0.26404000  1
  C  C132  1  0.40590000  0.73020000  0.66580000  1
  C  C133  1  0.03720000  0.53420000  0.29660000  1
  C  C134  1  0.15574000  0.57384000  0.39388000  1
  C  C135  1  0.31858000  0.65545000  0.55269000  1
  C  C136  1  0.16540000  0.80780000  0.39290000  1
  C  C137  1  0.45812000  0.16782000  0.66014000  1
  C  C138  1  0.64240000  0.41490000  0.80780000  1
  C  C139  1  0.41810000  0.17996000  0.57384000  1
  C  C140  1  0.59815000  0.21705000  0.73970000  1
  C  C141  1  0.68091000  0.32522000  0.80031000  1
  C  C142  1  0.68050000  0.16850000  0.76410000  1
  C  C143  1  0.27609000  0.26404000  0.34923000  1
  C  C144  1  0.65270000  0.05470000  0.72370000  1
  C  C145  1  0.49700000  0.23760000  0.53420000  1
  C  C146  1  0.07314000  0.34923000  0.08519000  1
  S  S147  1  0.90172000  0.71720000  0.85657000  1
  S  S148  1  0.81548000  0.86063000  0.71720000  1
  S  S149  1  0.04515000  0.14343000  0.86063000  1
  S  S150  1  0.95485000  0.85657000  0.13937000  1
  S  S151  1  0.18452000  0.13937000  0.28280000  1
  S  S152  1  0.09828000  0.28280000  0.14343000  1
  N  N153  1  0.05299000  0.39624000  0.04283000  1
  N  N154  1  0.19823000  0.75543000  0.16626000  1
  N  N155  1  0.19273000  0.65741000  0.14218000  1
  N  N156  1  0.65675000  0.64659000  0.60376000  1
  N  N157  1  0.65838000  0.42820000  0.50604000  1
  N  N158  1  0.75876000  0.47615000  0.60203000  1
  N  N159  1  0.53532000  0.48477000  0.34259000  1
  N  N160  1  0.44280000  0.41083000  0.24457000  1
  N  N161  1  0.15234000  0.49396000  0.92216000  1
  N  N162  1  0.71739000  0.87412000  0.47615000  1
  N  N163  1  0.15673000  0.39797000  0.87412000  1
  N  N164  1  0.76982000  0.92216000  0.42820000  1
  N  N165  1  0.98984000  0.04283000  0.64659000  1
  N  N166  1  0.03197000  0.83374000  0.58917000  1
  N  N167  1  0.94945000  0.14218000  0.48477000  1
  N  N168  1  0.05055000  0.85782000  0.51523000  1
  N  N169  1  0.96803000  0.16626000  0.41083000  1
  N  N170  1  0.01016000  0.95717000  0.35341000  1
  N  N171  1  0.23018000  0.07784000  0.57180000  1
  N  N172  1  0.84327000  0.60203000  0.12588000  1
  N  N173  1  0.28261000  0.12588000  0.52385000  1
  N  N174  1  0.84766000  0.50604000  0.07784000  1
  N  N175  1  0.55720000  0.58917000  0.75543000  1
  N  N176  1  0.46468000  0.51523000  0.65741000  1
  N  N177  1  0.24124000  0.52385000  0.39797000  1
  N  N178  1  0.34162000  0.57180000  0.49396000  1
  N  N179  1  0.34325000  0.35341000  0.39624000  1
  N  N180  1  0.80727000  0.34259000  0.85782000  1
  N  N181  1  0.80177000  0.24457000  0.83374000  1
  N  N182  1  0.94701000  0.60376000  0.95717000  1
