# generated using pymatgen
data_EuH8C16NO7
_symmetry_space_group_name_H-M   'P 1'
_cell_length_a   14.50120000
_cell_length_b   23.22669921
_cell_length_c   26.22810775
_cell_angle_alpha   85.04941425
_cell_angle_beta   73.95192123
_cell_angle_gamma   71.81015080
_symmetry_Int_Tables_number   1
_chemical_formula_structural   EuH8C16NO7
_chemical_formula_sum   'Eu8 H64 C128 N8 O56'
_cell_volume   8065.50357672
_cell_formula_units_Z   8
loop_
 _symmetry_equiv_pos_site_id
 _symmetry_equiv_pos_as_xyz
  1  'x, y, z'
loop_
 _atom_site_type_symbol
 _atom_site_label
 _atom_site_symmetry_multiplicity
 _atom_site_fract_x
 _atom_site_fract_y
 _atom_site_fract_z
 _atom_site_occupancy
  C  C0  1  0.56464000  0.68838000  0.19194000  1
  C  C1  1  0.94496000  0.81162000  0.30806000  1
  C  C2  1  0.15015000  0.10580000  0.60910000  1
  C  C3  1  0.36505000  0.39420000  0.89090000  1
  C  C4  1  0.13265000  0.62578000  0.13212000  1
  C  C5  1  0.39055000  0.87422000  0.36788000  1
  C  C6  1  0.75285000  0.03744000  0.50466000  1
  C  C7  1  0.79495000  0.46256000  0.99534000  1
  C  C8  1  0.19275000  0.58272000  0.08638000  1
  C  C9  1  0.36185000  0.91728000  0.41362000  1
  C  C10  1  0.72818000  0.07608000  0.54676000  1
  C  C11  1  0.85102000  0.42392000  0.95324000  1
  C  C12  1  0.30624000  0.50602000  0.00090000  1
  C  C13  1  0.31316000  0.99398000  0.49910000  1
  C  C14  1  0.69624000  0.63768000  0.11684000  1
  C  C15  1  0.95076000  0.86232000  0.38316000  1
  C  C16  1  0.15541000  0.15646000  0.68432000  1
  C  C17  1  0.49619000  0.34354000  0.81568000  1
  C  C18  1  0.28743000  0.03552000  0.54582000  1
  C  C19  1  0.36877000  0.46448000  0.95418000  1
  C  C20  1  0.66094000  0.67900000  0.15892000  1
  C  C21  1  0.99886000  0.82100000  0.34108000  1
  C  C22  1  0.20295000  0.11548000  0.64262000  1
  C  C23  1  0.46105000  0.38452000  0.85738000  1
  C  C24  1  0.56093000  0.71270000  0.33084000  1
  C  C25  1  0.10447000  0.78730000  0.16916000  1
  C  C26  1  0.62412000  0.16664000  0.77872000  1
  C  C27  1  0.06948667  0.33334667  0.72128000  1
  C  C28  1  0.29302000  0.55176000  0.08300000  1
  C  C29  1  0.42778000  0.94824000  0.41700000  1
  C  C30  1  0.13720000  0.51328000  0.46012000  1
  C  C31  1  0.61060000  0.98672000  0.03988000  1
  C  C32  1  0.34952000  0.51328000  0.03988000  1
  C  C33  1  0.40268000  0.98672000  0.46012000  1
  C  C34  1  0.15522000  0.55176000  0.41700000  1
  C  C35  1  0.62398000  0.94824000  0.08300000  1
  C  C36  1  0.20924000  0.16664000  0.72128000  1
  C  C37  1  0.59716667  0.33334667  0.77872000  1
  C  C38  1  0.72637000  0.71270000  0.16916000  1
  C  C39  1  0.10823000  0.78730000  0.33084000  1
  C  C40  1  0.68157000  0.11548000  0.85738000  1
  C  C41  1  0.15443000  0.38452000  0.64262000  1
  C  C42  1  0.66006000  0.67900000  0.34108000  1
  C  C43  1  0.18014000  0.82100000  0.15892000  1
  C  C44  1  0.67705000  0.03552000  0.95418000  1
  C  C45  1  0.16675000  0.46448000  0.54582000  1
  C  C46  1  0.68813000  0.15646000  0.81568000  1
  C  C47  1  0.16027000  0.34354000  0.68432000  1
  C  C48  1  0.66608000  0.63768000  0.38316000  1
  C  C49  1  0.18692000  0.86232000  0.11684000  1
  C  C50  1  0.18774000  0.50602000  0.49910000  1
  C  C51  1  0.69286000  0.99398000  0.00090000  1
  C  C52  1  0.19574000  0.07608000  0.95324000  1
  C  C53  1  0.72506000  0.42392000  0.54676000  1
  C  C54  1  0.22453000  0.58272000  0.41362000  1
  C  C55  1  0.72087000  0.91728000  0.08638000  1
  C  C56  1  0.20971000  0.03744000  0.99534000  1
  C  C57  1  0.74249000  0.46256000  0.50466000  1
  C  C58  1  0.24157000  0.62578000  0.36788000  1
  C  C59  1  0.73523000  0.87422000  0.13212000  1
  C  C60  1  0.74405000  0.10580000  0.89090000  1
  C  C61  1  0.24075000  0.39420000  0.60910000  1
  C  C62  1  0.74698000  0.68838000  0.30806000  1
  C  C63  1  0.24342000  0.81162000  0.19194000  1
  C  C64  1  0.75658000  0.18838000  0.80806000  1
  C  C65  1  0.25302000  0.31162000  0.69194000  1
  C  C66  1  0.75925000  0.60580000  0.39090000  1
  C  C67  1  0.25595000  0.89420000  0.10910000  1
  C  C68  1  0.26477000  0.12578000  0.86788000  1
  C  C69  1  0.75843000  0.37422000  0.63212000  1
  C  C70  1  0.25751000  0.53744000  0.49534000  1
  C  C71  1  0.79029000  0.96256000  0.00466000  1
  C  C72  1  0.27913000  0.08272000  0.91362000  1
  C  C73  1  0.77547000  0.41728000  0.58638000  1
  C  C74  1  0.27494000  0.57608000  0.45324000  1
  C  C75  1  0.80426000  0.92392000  0.04676000  1
  C  C76  1  0.30714000  0.00602000  0.99910000  1
  C  C77  1  0.81226000  0.49398000  0.50090000  1
  C  C78  1  0.81308000  0.13768000  0.88316000  1
  C  C79  1  0.33392000  0.36232000  0.61684000  1
  C  C80  1  0.83973000  0.65646000  0.31568000  1
  C  C81  1  0.31187000  0.84354000  0.18432000  1
  C  C82  1  0.83325000  0.53552000  0.45418000  1
  C  C83  1  0.32295000  0.96448000  0.04582000  1
  C  C84  1  0.81986000  0.17900000  0.84108000  1
  C  C85  1  0.33994000  0.32100000  0.65892000  1
  C  C86  1  0.84557000  0.61548000  0.35738000  1
  C  C87  1  0.31843000  0.88452000  0.14262000  1
  C  C88  1  0.89177000  0.21270000  0.66916000  1
  C  C89  1  0.27363000  0.28730000  0.83084000  1
  C  C90  1  0.40283333  0.66665333  0.22128000  1
  C  C91  1  0.79076000  0.83336000  0.27872000  1
  C  C92  1  0.37602000  0.05176000  0.91700000  1
  C  C93  1  0.84478000  0.44824000  0.58300000  1
  C  C94  1  0.59732000  0.01328000  0.53988000  1
  C  C95  1  0.65048000  0.48672000  0.96012000  1
  C  C96  1  0.38940000  0.01328000  0.96012000  1
  C  C97  1  0.86280000  0.48672000  0.53988000  1
  C  C98  1  0.57222000  0.05176000  0.58300000  1
  C  C99  1  0.70698000  0.44824000  0.91700000  1
  C  C100  1  0.93051333  0.66665333  0.27872000  1
  C  C101  1  0.37588000  0.83336000  0.22128000  1
  C  C102  1  0.89553000  0.21270000  0.83084000  1
  C  C103  1  0.43907000  0.28730000  0.66916000  1
  C  C104  1  0.53895000  0.61548000  0.14262000  1
  C  C105  1  0.79705000  0.88452000  0.35738000  1
  C  C106  1  0.00114000  0.17900000  0.65892000  1
  C  C107  1  0.33906000  0.32100000  0.84108000  1
  C  C108  1  0.63123000  0.53552000  0.04582000  1
  C  C109  1  0.71257000  0.96448000  0.45418000  1
  C  C110  1  0.50381000  0.65646000  0.18432000  1
  C  C111  1  0.84459000  0.84354000  0.31568000  1
  C  C112  1  0.04924000  0.13768000  0.61684000  1
  C  C113  1  0.30376000  0.36232000  0.88316000  1
  C  C114  1  0.68684000  0.00602000  0.50090000  1
  C  C115  1  0.69376000  0.49398000  0.99910000  1
  C  C116  1  0.14898000  0.57608000  0.04676000  1
  C  C117  1  0.27182000  0.92392000  0.45324000  1
  C  C118  1  0.63815000  0.08272000  0.58638000  1
  C  C119  1  0.80725000  0.41728000  0.91362000  1
  C  C120  1  0.20505000  0.53744000  0.00466000  1
  C  C121  1  0.24715000  0.96256000  0.49534000  1
  C  C122  1  0.60945000  0.12578000  0.63212000  1
  C  C123  1  0.86735000  0.37422000  0.86788000  1
  C  C124  1  0.63495000  0.60580000  0.10910000  1
  C  C125  1  0.84985000  0.89420000  0.39090000  1
  C  C126  1  0.05504000  0.18838000  0.69194000  1
  C  C127  1  0.43536000  0.31162000  0.80806000  1
  Eu  Eu128  1  0.66974000  0.25000000  0.66052000  1
  Eu  Eu129  1  0.08026000  0.25000000  0.83948000  1
  Eu  Eu130  1  0.17126000  0.65748000  0.25000000  1
  Eu  Eu131  1  0.57874000  0.84252000  0.25000000  1
  Eu  Eu132  1  0.42126000  0.15748000  0.75000000  1
  Eu  Eu133  1  0.82874000  0.34252000  0.75000000  1
  Eu  Eu134  1  0.91974000  0.75000000  0.16052000  1
  Eu  Eu135  1  0.33026000  0.75000000  0.33948000  1
  H  H136  1  0.54090000  0.71640000  0.21940000  1
  H  H137  1  0.97670000  0.78360000  0.28060000  1
  H  H138  1  0.74240000  0.55740000  0.05020000  1
  H  H139  1  0.85000000  0.94260000  0.44980000  1
  H  H140  1  0.54580000  0.00760000  0.03740000  1
  H  H141  1  0.09080000  0.49240000  0.46260000  1
  H  H142  1  0.81340000  0.03220000  0.47880000  1
  H  H143  1  0.82440000  0.46780000  0.02120000  1
  H  H144  1  0.77140000  0.09760000  0.54880000  1
  H  H145  1  0.91780000  0.40240000  0.95120000  1
  H  H146  1  0.12120000  0.55660000  0.39080000  1
  H  H147  1  0.56860000  0.94340000  0.10920000  1
  H  H148  1  0.63480000  0.09440000  0.86280000  1
  H  H149  1  0.09200000  0.40560000  0.63720000  1
  H  H150  1  0.76040000  0.63180000  0.09420000  1
  H  H151  1  0.98640000  0.86820000  0.40580000  1
  H  H152  1  0.60780000  0.63180000  0.40580000  1
  H  H153  1  0.14540000  0.86820000  0.09420000  1
  H  H154  1  0.27080000  0.09440000  0.63720000  1
  H  H155  1  0.50240000  0.40560000  0.86280000  1
  H  H156  1  0.32220000  0.55660000  0.10920000  1
  H  H157  1  0.48800000  0.94340000  0.39080000  1
  H  H158  1  0.13100000  0.09760000  0.95120000  1
  H  H159  1  0.67980000  0.40240000  0.54880000  1
  H  H160  1  0.15440000  0.03220000  0.02120000  1
  H  H161  1  0.70780000  0.46780000  0.47880000  1
  H  H162  1  0.44660000  0.00760000  0.46260000  1
  H  H163  1  0.41680000  0.49240000  0.03740000  1
  H  H164  1  0.70020000  0.55740000  0.44980000  1
  H  H165  1  0.20740000  0.94260000  0.05020000  1
  H  H166  1  0.74270000  0.71640000  0.28060000  1
  H  H167  1  0.23970000  0.78360000  0.21940000  1
  H  H168  1  0.76030000  0.21640000  0.78060000  1
  H  H169  1  0.25730000  0.28360000  0.71940000  1
  H  H170  1  0.79260000  0.05740000  0.94980000  1
  H  H171  1  0.29980000  0.44260000  0.55020000  1
  H  H172  1  0.58320000  0.50760000  0.96260000  1
  H  H173  1  0.55340000  0.99240000  0.53740000  1
  H  H174  1  0.29220000  0.53220000  0.52120000  1
  H  H175  1  0.84560000  0.96780000  0.97880000  1
  H  H176  1  0.32020000  0.59760000  0.45120000  1
  H  H177  1  0.86900000  0.90240000  0.04880000  1
  H  H178  1  0.51200000  0.05660000  0.60920000  1
  H  H179  1  0.67780000  0.44340000  0.89080000  1
  H  H180  1  0.49760000  0.59440000  0.13720000  1
  H  H181  1  0.72920000  0.90560000  0.36280000  1
  H  H182  1  0.85460000  0.13180000  0.90580000  1
  H  H183  1  0.39220000  0.36820000  0.59420000  1
  H  H184  1  0.01360000  0.13180000  0.59420000  1
  H  H185  1  0.23960000  0.36820000  0.90580000  1
  H  H186  1  0.90800000  0.59440000  0.36280000  1
  H  H187  1  0.36520000  0.90560000  0.13720000  1
  H  H188  1  0.43140000  0.05660000  0.89080000  1
  H  H189  1  0.87880000  0.44340000  0.60920000  1
  H  H190  1  0.08220000  0.59760000  0.04880000  1
  H  H191  1  0.22860000  0.90240000  0.45120000  1
  H  H192  1  0.17560000  0.53220000  0.97880000  1
  H  H193  1  0.18660000  0.96780000  0.52120000  1
  H  H194  1  0.90920000  0.50760000  0.53740000  1
  H  H195  1  0.45420000  0.99240000  0.96260000  1
  H  H196  1  0.15000000  0.05740000  0.55020000  1
  H  H197  1  0.25760000  0.44260000  0.94980000  1
  H  H198  1  0.02330000  0.21640000  0.71940000  1
  H  H199  1  0.45910000  0.28360000  0.78060000  1
  N  N200  1  0.19166000  0.06404000  0.56504000  1
  N  N201  1  0.32074000  0.43596000  0.93496000  1
  N  N202  1  0.74430000  0.06404000  0.93496000  1
  N  N203  1  0.24330000  0.43596000  0.56504000  1
  N  N204  1  0.75670000  0.56404000  0.43496000  1
  N  N205  1  0.25570000  0.93596000  0.06504000  1
  N  N206  1  0.67926000  0.56404000  0.06504000  1
  N  N207  1  0.80834000  0.93596000  0.43496000  1
  O  O208  1  0.53500000  0.16850000  0.78990000  1
  O  O209  1  0.99340000  0.33150000  0.71010000  1
  O  O210  1  0.48292000  0.70186000  0.36090000  1
  O  O211  1  0.04568000  0.79814000  0.13910000  1
  O  O212  1  0.64601000  0.16732000  0.61606000  1
  O  O213  1  0.92939000  0.33268000  0.88394000  1
  O  O214  1  0.14960000  0.61544000  0.17596000  1
  O  O215  1  0.44100000  0.88456000  0.32404000  1
  O  O216  1  0.09914000  0.74544000  0.20068000  1
  O  O217  1  0.54526000  0.75456000  0.29932000  1
  O  O218  1  0.60146000  0.04210000  0.93978000  1
  O  O219  1  0.08334000  0.45790000  0.56022000  1
  O  O220  1  0.14955000  0.17302000  0.76508000  1
  O  O221  1  0.58765000  0.32698000  0.73492000  1
  O  O222  1  0.67743000  0.17302000  0.73492000  1
  O  O223  1  0.08537000  0.32698000  0.76508000  1
  O  O224  1  0.35644000  0.04210000  0.56022000  1
  O  O225  1  0.45876000  0.45790000  0.93978000  1
  O  O226  1  0.15542000  0.74544000  0.29932000  1
  O  O227  1  0.70018000  0.75456000  0.20068000  1
  O  O228  1  0.23496000  0.61544000  0.32404000  1
  O  O229  1  0.67444000  0.88456000  0.17596000  1
  O  O230  1  0.18667000  0.16732000  0.88394000  1
  O  O231  1  0.73793000  0.33268000  0.61606000  1
  O  O232  1  0.81522000  0.70186000  0.13910000  1
  O  O233  1  0.15618000  0.79814000  0.36090000  1
  O  O234  1  0.29650000  0.16850000  0.71010000  1
  O  O235  1  0.67510000  0.33150000  0.78990000  1
  O  O236  1  0.32490000  0.66850000  0.21010000  1
  O  O237  1  0.70350000  0.83150000  0.28990000  1
  O  O238  1  0.84382000  0.20186000  0.63910000  1
  O  O239  1  0.18478000  0.29814000  0.86090000  1
  O  O240  1  0.26207000  0.66732000  0.38394000  1
  O  O241  1  0.81333000  0.83268000  0.11606000  1
  O  O242  1  0.32556000  0.11544000  0.82404000  1
  O  O243  1  0.76504000  0.38456000  0.67596000  1
  O  O244  1  0.29982000  0.24544000  0.79932000  1
  O  O245  1  0.84458000  0.25456000  0.70068000  1
  O  O246  1  0.54124000  0.54210000  0.06022000  1
  O  O247  1  0.64356000  0.95790000  0.43978000  1
  O  O248  1  0.91463000  0.67302000  0.23492000  1
  O  O249  1  0.32257000  0.82698000  0.26508000  1
  O  O250  1  0.41235000  0.67302000  0.26508000  1
  O  O251  1  0.85045000  0.82698000  0.23492000  1
  O  O252  1  0.91666000  0.54210000  0.43978000  1
  O  O253  1  0.39854000  0.95790000  0.06022000  1
  O  O254  1  0.45474000  0.24544000  0.70068000  1
  O  O255  1  0.90086000  0.25456000  0.79932000  1
  O  O256  1  0.55900000  0.11544000  0.67596000  1
  O  O257  1  0.85040000  0.38456000  0.82404000  1
  O  O258  1  0.07061000  0.66732000  0.11606000  1
  O  O259  1  0.35399000  0.83268000  0.38394000  1
  O  O260  1  0.95432000  0.20186000  0.86090000  1
  O  O261  1  0.51708000  0.29814000  0.63910000  1
  O  O262  1  0.00660000  0.66850000  0.28990000  1
  O  O263  1  0.46500000  0.83150000  0.21010000  1
