# generated using pymatgen
data_Fe3H9C24N3O13
_symmetry_space_group_name_H-M   'P 1'
_cell_length_a   21.87200000
_cell_length_b   21.87200000
_cell_length_c   21.87200000
_cell_angle_alpha   90.00000000
_cell_angle_beta   90.00000000
_cell_angle_gamma   90.00000000
_symmetry_Int_Tables_number   1
_chemical_formula_structural   Fe3H9C24N3O13
_chemical_formula_sum   'Fe24 H72 C192 N24 O104'
_cell_volume   10463.22324685
_cell_formula_units_Z   8
loop_
 _symmetry_equiv_pos_site_id
 _symmetry_equiv_pos_as_xyz
  1  'x, y, z'
loop_
 _atom_site_type_symbol
 _atom_site_label
 _atom_site_symmetry_multiplicity
 _atom_site_fract_x
 _atom_site_fract_y
 _atom_site_fract_z
 _atom_site_occupancy
  Fe  Fe0  1  0.17949000  0.23908000  0.69653000  1
  Fe  Fe1  1  0.17949000  0.76092000  0.30347000  1
  Fe  Fe2  1  0.19653000  0.26092000  0.32051000  1
  Fe  Fe3  1  0.19653000  0.73908000  0.67949000  1
  Fe  Fe4  1  0.23908000  0.30347000  0.82051000  1
  Fe  Fe5  1  0.23908000  0.69653000  0.17949000  1
  Fe  Fe6  1  0.26092000  0.32051000  0.19653000  1
  Fe  Fe7  1  0.26092000  0.67949000  0.80347000  1
  Fe  Fe8  1  0.30347000  0.17949000  0.76092000  1
  Fe  Fe9  1  0.30347000  0.82051000  0.23908000  1
  Fe  Fe10  1  0.32051000  0.19653000  0.26092000  1
  Fe  Fe11  1  0.32051000  0.80347000  0.73908000  1
  Fe  Fe12  1  0.67949000  0.19653000  0.73908000  1
  Fe  Fe13  1  0.67949000  0.80347000  0.26092000  1
  Fe  Fe14  1  0.69653000  0.17949000  0.23908000  1
  Fe  Fe15  1  0.69653000  0.82051000  0.76092000  1
  Fe  Fe16  1  0.73908000  0.32051000  0.80347000  1
  Fe  Fe17  1  0.73908000  0.67949000  0.19653000  1
  Fe  Fe18  1  0.76092000  0.30347000  0.17949000  1
  Fe  Fe19  1  0.76092000  0.69653000  0.82051000  1
  Fe  Fe20  1  0.80347000  0.26092000  0.67949000  1
  Fe  Fe21  1  0.80347000  0.73908000  0.32051000  1
  Fe  Fe22  1  0.82051000  0.23908000  0.30347000  1
  Fe  Fe23  1  0.82051000  0.76092000  0.69653000  1
  H  H24  1  0.00860000  0.27460000  0.24460000  1
  H  H25  1  0.00860000  0.72540000  0.75540000  1
  H  H26  1  0.07480000  0.29500000  0.91700000  1
  H  H27  1  0.07480000  0.70500000  0.08300000  1
  H  H28  1  0.08300000  0.07480000  0.70500000  1
  H  H29  1  0.08300000  0.92520000  0.29500000  1
  H  H30  1  0.09300000  0.10940000  0.30870000  1
  H  H31  1  0.09300000  0.89060000  0.69130000  1
  H  H32  1  0.10940000  0.30870000  0.09300000  1
  H  H33  1  0.10940000  0.69130000  0.90700000  1
  H  H34  1  0.19130000  0.39060000  0.59300000  1
  H  H35  1  0.19130000  0.60940000  0.40700000  1
  H  H36  1  0.20500000  0.42520000  0.41700000  1
  H  H37  1  0.20500000  0.57480000  0.58300000  1
  H  H38  1  0.22540000  0.49140000  0.74460000  1
  H  H39  1  0.22540000  0.50860000  0.25540000  1
  H  H40  1  0.24460000  0.00860000  0.27460000  1
  H  H41  1  0.24460000  0.99140000  0.72540000  1
  H  H42  1  0.25540000  0.22540000  0.50860000  1
  H  H43  1  0.25540000  0.77460000  0.49140000  1
  H  H44  1  0.27460000  0.24460000  0.00860000  1
  H  H45  1  0.27460000  0.75540000  0.99140000  1
  H  H46  1  0.29500000  0.08300000  0.92520000  1
  H  H47  1  0.29500000  0.91700000  0.07480000  1
  H  H48  1  0.30870000  0.09300000  0.10940000  1
  H  H49  1  0.30870000  0.90700000  0.89060000  1
  H  H50  1  0.39060000  0.40700000  0.80870000  1
  H  H51  1  0.39060000  0.59300000  0.19130000  1
  H  H52  1  0.40700000  0.19130000  0.60940000  1
  H  H53  1  0.40700000  0.80870000  0.39060000  1
  H  H54  1  0.41700000  0.20500000  0.42520000  1
  H  H55  1  0.41700000  0.79500000  0.57480000  1
  H  H56  1  0.42520000  0.41700000  0.20500000  1
  H  H57  1  0.42520000  0.58300000  0.79500000  1
  H  H58  1  0.49140000  0.25540000  0.77460000  1
  H  H59  1  0.49140000  0.74460000  0.22540000  1
  H  H60  1  0.50860000  0.25540000  0.22540000  1
  H  H61  1  0.50860000  0.74460000  0.77460000  1
  H  H62  1  0.57480000  0.41700000  0.79500000  1
  H  H63  1  0.57480000  0.58300000  0.20500000  1
  H  H64  1  0.58300000  0.20500000  0.57480000  1
  H  H65  1  0.58300000  0.79500000  0.42520000  1
  H  H66  1  0.59300000  0.19130000  0.39060000  1
  H  H67  1  0.59300000  0.80870000  0.60940000  1
  H  H68  1  0.60940000  0.40700000  0.19130000  1
  H  H69  1  0.60940000  0.59300000  0.80870000  1
  H  H70  1  0.69130000  0.09300000  0.89060000  1
  H  H71  1  0.69130000  0.90700000  0.10940000  1
  H  H72  1  0.70500000  0.08300000  0.07480000  1
  H  H73  1  0.70500000  0.91700000  0.92520000  1
  H  H74  1  0.72540000  0.24460000  0.99140000  1
  H  H75  1  0.72540000  0.75540000  0.00860000  1
  H  H76  1  0.74460000  0.22540000  0.49140000  1
  H  H77  1  0.74460000  0.77460000  0.50860000  1
  H  H78  1  0.75540000  0.00860000  0.72540000  1
  H  H79  1  0.75540000  0.99140000  0.27460000  1
  H  H80  1  0.77460000  0.49140000  0.25540000  1
  H  H81  1  0.77460000  0.50860000  0.74460000  1
  H  H82  1  0.79500000  0.42520000  0.58300000  1
  H  H83  1  0.79500000  0.57480000  0.41700000  1
  H  H84  1  0.80870000  0.39060000  0.40700000  1
  H  H85  1  0.80870000  0.60940000  0.59300000  1
  H  H86  1  0.89060000  0.30870000  0.90700000  1
  H  H87  1  0.89060000  0.69130000  0.09300000  1
  H  H88  1  0.90700000  0.10940000  0.69130000  1
  H  H89  1  0.90700000  0.89060000  0.30870000  1
  H  H90  1  0.91700000  0.07480000  0.29500000  1
  H  H91  1  0.91700000  0.92520000  0.70500000  1
  H  H92  1  0.92520000  0.29500000  0.08300000  1
  H  H93  1  0.92520000  0.70500000  0.91700000  1
  H  H94  1  0.99140000  0.27460000  0.75540000  1
  H  H95  1  0.99140000  0.72540000  0.24460000  1
  C  C96  1  0.01040000  0.28310000  0.20250000  1
  C  C97  1  0.01040000  0.71690000  0.79750000  1
  C  C98  1  0.01460000  0.30270000  0.07940000  1
  C  C99  1  0.01460000  0.69730000  0.92060000  1
  C  C100  1  0.03880000  0.29440000  0.89350000  1
  C  C101  1  0.03880000  0.70560000  0.10650000  1
  C  C102  1  0.04260000  0.28480000  0.83080000  1
  C  C103  1  0.04260000  0.71520000  0.16920000  1
  C  C104  1  0.06800000  0.29380000  0.17480000  1
  C  C105  1  0.06800000  0.70620000  0.82520000  1
  C  C106  1  0.07170000  0.30280000  0.11280000  1
  C  C107  1  0.07170000  0.69720000  0.88720000  1
  C  C108  1  0.07940000  0.01460000  0.30270000  1
  C  C109  1  0.07940000  0.98540000  0.69730000  1
  C  C110  1  0.10440000  0.27620000  0.80320000  1
  C  C111  1  0.10440000  0.72380000  0.19680000  1
  C  C112  1  0.10650000  0.03880000  0.70560000  1
  C  C113  1  0.10650000  0.96120000  0.29440000  1
  C  C114  1  0.11280000  0.07170000  0.30280000  1
  C  C115  1  0.11280000  0.92830000  0.69720000  1
  C  C116  1  0.12580000  0.29390000  0.20760000  1
  C  C117  1  0.12580000  0.70610000  0.79240000  1
  C  C118  1  0.16920000  0.04260000  0.71520000  1
  C  C119  1  0.16920000  0.95740000  0.28480000  1
  C  C120  1  0.17480000  0.06800000  0.29380000  1
  C  C121  1  0.17480000  0.93200000  0.70620000  1
  C  C122  1  0.19680000  0.10440000  0.72380000  1
  C  C123  1  0.19680000  0.89560000  0.27620000  1
  C  C124  1  0.19720000  0.42830000  0.61280000  1
  C  C125  1  0.19720000  0.57170000  0.38720000  1
  C  C126  1  0.19730000  0.48540000  0.57940000  1
  C  C127  1  0.19730000  0.51460000  0.42060000  1
  C  C128  1  0.20250000  0.01040000  0.28310000  1
  C  C129  1  0.20250000  0.98960000  0.71690000  1
  C  C130  1  0.20560000  0.46120000  0.39350000  1
  C  C131  1  0.20560000  0.53880000  0.60650000  1
  C  C132  1  0.20610000  0.37420000  0.70760000  1
  C  C133  1  0.20610000  0.62580000  0.29240000  1
  C  C134  1  0.20620000  0.43200000  0.67480000  1
  C  C135  1  0.20620000  0.56800000  0.32520000  1
  C  C136  1  0.20760000  0.12580000  0.29390000  1
  C  C137  1  0.20760000  0.87420000  0.70610000  1
  C  C138  1  0.21520000  0.45740000  0.33080000  1
  C  C139  1  0.21520000  0.54260000  0.66920000  1
  C  C140  1  0.21690000  0.48960000  0.70250000  1
  C  C141  1  0.21690000  0.51040000  0.29750000  1
  C  C142  1  0.22380000  0.39560000  0.30320000  1
  C  C143  1  0.22380000  0.60440000  0.69680000  1
  C  C144  1  0.27620000  0.19680000  0.89560000  1
  C  C145  1  0.27620000  0.80320000  0.10440000  1
  C  C146  1  0.28310000  0.20250000  0.01040000  1
  C  C147  1  0.28310000  0.79750000  0.98960000  1
  C  C148  1  0.28480000  0.16920000  0.95740000  1
  C  C149  1  0.28480000  0.83080000  0.04260000  1
  C  C150  1  0.29240000  0.20610000  0.62580000  1
  C  C151  1  0.29240000  0.79390000  0.37420000  1
  C  C152  1  0.29380000  0.17480000  0.06800000  1
  C  C153  1  0.29380000  0.82520000  0.93200000  1
  C  C154  1  0.29390000  0.20760000  0.12580000  1
  C  C155  1  0.29390000  0.79240000  0.87420000  1
  C  C156  1  0.29440000  0.10650000  0.96120000  1
  C  C157  1  0.29440000  0.89350000  0.03880000  1
  C  C158  1  0.29750000  0.21690000  0.51040000  1
  C  C159  1  0.29750000  0.78310000  0.48960000  1
  C  C160  1  0.30270000  0.07940000  0.01460000  1
  C  C161  1  0.30270000  0.92060000  0.98540000  1
  C  C162  1  0.30280000  0.11280000  0.07170000  1
  C  C163  1  0.30280000  0.88720000  0.92830000  1
  C  C164  1  0.30320000  0.22380000  0.39560000  1
  C  C165  1  0.30320000  0.77620000  0.60440000  1
  C  C166  1  0.32520000  0.20620000  0.56800000  1
  C  C167  1  0.32520000  0.79380000  0.43200000  1
  C  C168  1  0.33080000  0.21520000  0.45740000  1
  C  C169  1  0.33080000  0.78480000  0.54260000  1
  C  C170  1  0.37420000  0.29240000  0.79390000  1
  C  C171  1  0.37420000  0.70760000  0.20610000  1
  C  C172  1  0.38720000  0.19720000  0.57170000  1
  C  C173  1  0.38720000  0.80280000  0.42830000  1
  C  C174  1  0.39350000  0.20560000  0.46120000  1
  C  C175  1  0.39350000  0.79440000  0.53880000  1
  C  C176  1  0.39560000  0.30320000  0.22380000  1
  C  C177  1  0.39560000  0.69680000  0.77620000  1
  C  C178  1  0.42060000  0.19730000  0.51460000  1
  C  C179  1  0.42060000  0.80270000  0.48540000  1
  C  C180  1  0.42830000  0.38720000  0.80280000  1
  C  C181  1  0.42830000  0.61280000  0.19720000  1
  C  C182  1  0.43200000  0.32520000  0.79380000  1
  C  C183  1  0.43200000  0.67480000  0.20620000  1
  C  C184  1  0.45740000  0.33080000  0.21520000  1
  C  C185  1  0.45740000  0.66920000  0.78480000  1
  C  C186  1  0.46120000  0.39350000  0.20560000  1
  C  C187  1  0.46120000  0.60650000  0.79440000  1
  C  C188  1  0.48540000  0.42060000  0.80270000  1
  C  C189  1  0.48540000  0.57940000  0.19730000  1
  C  C190  1  0.48960000  0.29750000  0.78310000  1
  C  C191  1  0.48960000  0.70250000  0.21690000  1
  C  C192  1  0.51040000  0.29750000  0.21690000  1
  C  C193  1  0.51040000  0.70250000  0.78310000  1
  C  C194  1  0.51460000  0.42060000  0.19730000  1
  C  C195  1  0.51460000  0.57940000  0.80270000  1
  C  C196  1  0.53880000  0.39350000  0.79440000  1
  C  C197  1  0.53880000  0.60650000  0.20560000  1
  C  C198  1  0.54260000  0.33080000  0.78480000  1
  C  C199  1  0.54260000  0.66920000  0.21520000  1
  C  C200  1  0.56800000  0.32520000  0.20620000  1
  C  C201  1  0.56800000  0.67480000  0.79380000  1
  C  C202  1  0.57170000  0.38720000  0.19720000  1
  C  C203  1  0.57170000  0.61280000  0.80280000  1
  C  C204  1  0.57940000  0.19730000  0.48540000  1
  C  C205  1  0.57940000  0.80270000  0.51460000  1
  C  C206  1  0.60440000  0.30320000  0.77620000  1
  C  C207  1  0.60440000  0.69680000  0.22380000  1
  C  C208  1  0.60650000  0.20560000  0.53880000  1
  C  C209  1  0.60650000  0.79440000  0.46120000  1
  C  C210  1  0.61280000  0.19720000  0.42830000  1
  C  C211  1  0.61280000  0.80280000  0.57170000  1
  C  C212  1  0.62580000  0.29240000  0.20610000  1
  C  C213  1  0.62580000  0.70760000  0.79390000  1
  C  C214  1  0.66920000  0.21520000  0.54260000  1
  C  C215  1  0.66920000  0.78480000  0.45740000  1
  C  C216  1  0.67480000  0.20620000  0.43200000  1
  C  C217  1  0.67480000  0.79380000  0.56800000  1
  C  C218  1  0.69680000  0.22380000  0.60440000  1
  C  C219  1  0.69680000  0.77620000  0.39560000  1
  C  C220  1  0.69720000  0.11280000  0.92830000  1
  C  C221  1  0.69720000  0.88720000  0.07170000  1
  C  C222  1  0.69730000  0.07940000  0.98540000  1
  C  C223  1  0.69730000  0.92060000  0.01460000  1
  C  C224  1  0.70250000  0.21690000  0.48960000  1
  C  C225  1  0.70250000  0.78310000  0.51040000  1
  C  C226  1  0.70560000  0.10650000  0.03880000  1
  C  C227  1  0.70560000  0.89350000  0.96120000  1
  C  C228  1  0.70610000  0.20760000  0.87420000  1
  C  C229  1  0.70610000  0.79240000  0.12580000  1
  C  C230  1  0.70620000  0.17480000  0.93200000  1
  C  C231  1  0.70620000  0.82520000  0.06800000  1
  C  C232  1  0.70760000  0.20610000  0.37420000  1
  C  C233  1  0.70760000  0.79390000  0.62580000  1
  C  C234  1  0.71520000  0.16920000  0.04260000  1
  C  C235  1  0.71520000  0.83080000  0.95740000  1
  C  C236  1  0.71690000  0.20250000  0.98960000  1
  C  C237  1  0.71690000  0.79750000  0.01040000  1
  C  C238  1  0.72380000  0.19680000  0.10440000  1
  C  C239  1  0.72380000  0.80320000  0.89560000  1
  C  C240  1  0.77620000  0.39560000  0.69680000  1
  C  C241  1  0.77620000  0.60440000  0.30320000  1
  C  C242  1  0.78310000  0.48960000  0.29750000  1
  C  C243  1  0.78310000  0.51040000  0.70250000  1
  C  C244  1  0.78480000  0.45740000  0.66920000  1
  C  C245  1  0.78480000  0.54260000  0.33080000  1
  C  C246  1  0.79240000  0.12580000  0.70610000  1
  C  C247  1  0.79240000  0.87420000  0.29390000  1
  C  C248  1  0.79380000  0.43200000  0.32520000  1
  C  C249  1  0.79380000  0.56800000  0.67480000  1
  C  C250  1  0.79390000  0.37420000  0.29240000  1
  C  C251  1  0.79390000  0.62580000  0.70760000  1
  C  C252  1  0.79440000  0.46120000  0.60650000  1
  C  C253  1  0.79440000  0.53880000  0.39350000  1
  C  C254  1  0.79750000  0.01040000  0.71690000  1
  C  C255  1  0.79750000  0.98960000  0.28310000  1
  C  C256  1  0.80270000  0.48540000  0.42060000  1
  C  C257  1  0.80270000  0.51460000  0.57940000  1
  C  C258  1  0.80280000  0.42830000  0.38720000  1
  C  C259  1  0.80280000  0.57170000  0.61280000  1
  C  C260  1  0.80320000  0.10440000  0.27620000  1
  C  C261  1  0.80320000  0.89560000  0.72380000  1
  C  C262  1  0.82520000  0.06800000  0.70620000  1
  C  C263  1  0.82520000  0.93200000  0.29380000  1
  C  C264  1  0.83080000  0.04260000  0.28480000  1
  C  C265  1  0.83080000  0.95740000  0.71520000  1
  C  C266  1  0.87420000  0.29390000  0.79240000  1
  C  C267  1  0.87420000  0.70610000  0.20760000  1
  C  C268  1  0.88720000  0.07170000  0.69720000  1
  C  C269  1  0.88720000  0.92830000  0.30280000  1
  C  C270  1  0.89350000  0.03880000  0.29440000  1
  C  C271  1  0.89350000  0.96120000  0.70560000  1
  C  C272  1  0.89560000  0.27620000  0.19680000  1
  C  C273  1  0.89560000  0.72380000  0.80320000  1
  C  C274  1  0.92060000  0.01460000  0.69730000  1
  C  C275  1  0.92060000  0.98540000  0.30270000  1
  C  C276  1  0.92830000  0.30280000  0.88720000  1
  C  C277  1  0.92830000  0.69720000  0.11280000  1
  C  C278  1  0.93200000  0.29380000  0.82520000  1
  C  C279  1  0.93200000  0.70620000  0.17480000  1
  C  C280  1  0.95740000  0.28480000  0.16920000  1
  C  C281  1  0.95740000  0.71520000  0.83080000  1
  C  C282  1  0.96120000  0.29440000  0.10650000  1
  C  C283  1  0.96120000  0.70560000  0.89350000  1
  C  C284  1  0.98540000  0.30270000  0.92060000  1
  C  C285  1  0.98540000  0.69730000  0.07940000  1
  C  C286  1  0.98960000  0.28310000  0.79750000  1
  C  C287  1  0.98960000  0.71690000  0.20250000  1
  N  N288  1  0.01260000  0.02410000  0.30490000  1
  N  N289  1  0.01260000  0.97590000  0.69510000  1
  N  N290  1  0.02410000  0.30490000  0.01260000  1
  N  N291  1  0.02410000  0.69510000  0.98740000  1
  N  N292  1  0.19510000  0.47590000  0.51260000  1
  N  N293  1  0.19510000  0.52410000  0.48740000  1
  N  N294  1  0.30490000  0.01260000  0.02410000  1
  N  N295  1  0.30490000  0.98740000  0.97590000  1
  N  N296  1  0.47590000  0.48740000  0.80490000  1
  N  N297  1  0.47590000  0.51260000  0.19510000  1
  N  N298  1  0.48740000  0.19510000  0.52410000  1
  N  N299  1  0.48740000  0.80490000  0.47590000  1
  N  N300  1  0.51260000  0.19510000  0.47590000  1
  N  N301  1  0.51260000  0.80490000  0.52410000  1
  N  N302  1  0.52410000  0.48740000  0.19510000  1
  N  N303  1  0.52410000  0.51260000  0.80490000  1
  N  N304  1  0.69510000  0.01260000  0.97590000  1
  N  N305  1  0.69510000  0.98740000  0.02410000  1
  N  N306  1  0.80490000  0.47590000  0.48740000  1
  N  N307  1  0.80490000  0.52410000  0.51260000  1
  N  N308  1  0.97590000  0.30490000  0.98740000  1
  N  N309  1  0.97590000  0.69510000  0.01260000  1
  N  N310  1  0.98740000  0.02410000  0.69510000  1
  N  N311  1  0.98740000  0.97590000  0.30490000  1
  O  O312  1  0.10730000  0.25470000  0.75010000  1
  O  O313  1  0.10730000  0.74530000  0.24990000  1
  O  O314  1  0.12620000  0.27410000  0.26340000  1
  O  O315  1  0.12620000  0.72590000  0.73660000  1
  O  O316  1  0.15020000  0.29560000  0.83460000  1
  O  O317  1  0.15020000  0.70440000  0.16540000  1
  O  O318  1  0.16540000  0.15020000  0.70440000  1
  O  O319  1  0.16540000  0.84980000  0.29560000  1
  O  O320  1  0.17120000  0.31430000  0.18090000  1
  O  O321  1  0.17120000  0.68570000  0.81910000  1
  O  O322  1  0.18090000  0.17120000  0.31430000  1
  O  O323  1  0.18090000  0.82880000  0.68570000  1
  O  O324  1  0.18570000  0.32880000  0.68090000  1
  O  O325  1  0.18570000  0.67120000  0.31910000  1
  O  O326  1  0.20440000  0.34980000  0.33460000  1
  O  O327  1  0.20440000  0.65020000  0.66540000  1
  O  O328  1  0.22590000  0.37380000  0.76340000  1
  O  O329  1  0.22590000  0.62620000  0.23660000  1
  O  O330  1  0.23660000  0.22590000  0.62620000  1
  O  O331  1  0.23660000  0.77410000  0.37380000  1
  O  O332  1  0.23990000  0.23990000  0.76010000  1
  O  O333  1  0.23990000  0.76010000  0.23990000  1
  O  O334  1  0.24530000  0.39270000  0.25010000  1
  O  O335  1  0.24530000  0.60730000  0.74990000  1
  O  O336  1  0.24990000  0.10730000  0.74530000  1
  O  O337  1  0.24990000  0.89270000  0.25470000  1
  O  O338  1  0.25010000  0.24530000  0.39270000  1
  O  O339  1  0.25010000  0.75470000  0.60730000  1
  O  O340  1  0.25470000  0.24990000  0.89270000  1
  O  O341  1  0.25470000  0.75010000  0.10730000  1
  O  O342  1  0.26010000  0.26010000  0.26010000  1
  O  O343  1  0.26010000  0.73990000  0.73990000  1
  O  O344  1  0.26340000  0.12620000  0.27410000  1
  O  O345  1  0.26340000  0.87380000  0.72590000  1
  O  O346  1  0.27410000  0.26340000  0.12620000  1
  O  O347  1  0.27410000  0.73660000  0.87380000  1
  O  O348  1  0.29560000  0.16540000  0.84980000  1
  O  O349  1  0.29560000  0.83460000  0.15020000  1
  O  O350  1  0.31430000  0.18090000  0.17120000  1
  O  O351  1  0.31430000  0.81910000  0.82880000  1
  O  O352  1  0.31910000  0.18570000  0.67120000  1
  O  O353  1  0.31910000  0.81430000  0.32880000  1
  O  O354  1  0.32880000  0.31910000  0.81430000  1
  O  O355  1  0.32880000  0.68090000  0.18570000  1
  O  O356  1  0.33460000  0.20440000  0.34980000  1
  O  O357  1  0.33460000  0.79560000  0.65020000  1
  O  O358  1  0.34980000  0.33460000  0.20440000  1
  O  O359  1  0.34980000  0.66540000  0.79560000  1
  O  O360  1  0.37380000  0.23660000  0.77410000  1
  O  O361  1  0.37380000  0.76340000  0.22590000  1
  O  O362  1  0.39270000  0.25010000  0.24530000  1
  O  O363  1  0.39270000  0.74990000  0.75470000  1
  O  O364  1  0.60730000  0.25010000  0.75470000  1
  O  O365  1  0.60730000  0.74990000  0.24530000  1
  O  O366  1  0.62620000  0.23660000  0.22590000  1
  O  O367  1  0.62620000  0.76340000  0.77410000  1
  O  O368  1  0.65020000  0.33460000  0.79560000  1
  O  O369  1  0.65020000  0.66540000  0.20440000  1
  O  O370  1  0.66540000  0.20440000  0.65020000  1
  O  O371  1  0.66540000  0.79560000  0.34980000  1
  O  O372  1  0.67120000  0.31910000  0.18570000  1
  O  O373  1  0.67120000  0.68090000  0.81430000  1
  O  O374  1  0.68090000  0.18570000  0.32880000  1
  O  O375  1  0.68090000  0.81430000  0.67120000  1
  O  O376  1  0.68570000  0.18090000  0.82880000  1
  O  O377  1  0.68570000  0.81910000  0.17120000  1
  O  O378  1  0.70440000  0.16540000  0.15020000  1
  O  O379  1  0.70440000  0.83460000  0.84980000  1
  O  O380  1  0.72590000  0.26340000  0.87380000  1
  O  O381  1  0.72590000  0.73660000  0.12620000  1
  O  O382  1  0.73660000  0.12620000  0.72590000  1
  O  O383  1  0.73660000  0.87380000  0.27410000  1
  O  O384  1  0.73990000  0.26010000  0.73990000  1
  O  O385  1  0.73990000  0.73990000  0.26010000  1
  O  O386  1  0.74530000  0.24990000  0.10730000  1
  O  O387  1  0.74530000  0.75010000  0.89270000  1
  O  O388  1  0.74990000  0.24530000  0.60730000  1
  O  O389  1  0.74990000  0.75470000  0.39270000  1
  O  O390  1  0.75010000  0.10730000  0.25470000  1
  O  O391  1  0.75010000  0.89270000  0.74530000  1
  O  O392  1  0.75470000  0.39270000  0.74990000  1
  O  O393  1  0.75470000  0.60730000  0.25010000  1
  O  O394  1  0.76010000  0.23990000  0.23990000  1
  O  O395  1  0.76010000  0.76010000  0.76010000  1
  O  O396  1  0.76340000  0.22590000  0.37380000  1
  O  O397  1  0.76340000  0.77410000  0.62620000  1
  O  O398  1  0.77410000  0.37380000  0.23660000  1
  O  O399  1  0.77410000  0.62620000  0.76340000  1
  O  O400  1  0.79560000  0.34980000  0.66540000  1
  O  O401  1  0.79560000  0.65020000  0.33460000  1
  O  O402  1  0.81430000  0.32880000  0.31910000  1
  O  O403  1  0.81430000  0.67120000  0.68090000  1
  O  O404  1  0.81910000  0.17120000  0.68570000  1
  O  O405  1  0.81910000  0.82880000  0.31430000  1
  O  O406  1  0.82880000  0.31430000  0.81910000  1
  O  O407  1  0.82880000  0.68570000  0.18090000  1
  O  O408  1  0.83460000  0.15020000  0.29560000  1
  O  O409  1  0.83460000  0.84980000  0.70440000  1
  O  O410  1  0.84980000  0.29560000  0.16540000  1
  O  O411  1  0.84980000  0.70440000  0.83460000  1
  O  O412  1  0.87380000  0.27410000  0.73660000  1
  O  O413  1  0.87380000  0.72590000  0.26340000  1
  O  O414  1  0.89270000  0.25470000  0.24990000  1
  O  O415  1  0.89270000  0.74530000  0.75010000  1
