# generated using pymatgen
data_CuH24C33(N2Cl)2
_symmetry_space_group_name_H-M   'P 1'
_cell_length_a   11.75260000
_cell_length_b   11.75260000
_cell_length_c   11.83230000
_cell_angle_alpha   91.78120000
_cell_angle_beta   91.78120000
_cell_angle_gamma   105.18700000
_symmetry_Int_Tables_number   1
_chemical_formula_structural   CuH24C33(N2Cl)2
_chemical_formula_sum   'Cu2 H48 C66 N8 Cl4'
_cell_volume   1575.17680346
_cell_formula_units_Z   2
loop_
 _symmetry_equiv_pos_site_id
 _symmetry_equiv_pos_as_xyz
  1  'x, y, z'
loop_
 _atom_site_type_symbol
 _atom_site_label
 _atom_site_symmetry_multiplicity
 _atom_site_fract_x
 _atom_site_fract_y
 _atom_site_fract_z
 _atom_site_occupancy
  Cu  Cu0  1  0.26878000  0.87055000  0.46983000  1
  Cu  Cu1  1  0.87055000  0.26878000  0.96983000  1
  H  H2  1  0.47810000  0.96850000  0.10680000  1
  H  H3  1  0.28840000  0.94300000  0.71340000  1
  H  H4  1  0.64430000  0.92290000  0.70270000  1
  H  H5  1  0.43460000  0.87440000  0.27490000  1
  H  H6  1  0.29770000  0.86250000  0.88800000  1
  H  H7  1  0.69570000  0.84210000  0.02780000  1
  H  H8  1  0.03910000  0.78630000  0.56800000  1
  H  H9  1  0.42600000  0.77400000  0.98830000  1
  H  H10  1  0.52060000  0.74200000  0.68570000  1
  H  H11  1  0.11830000  0.73350000  0.25360000  1
  H  H12  1  0.46910000  0.69730000  0.15860000  1
  H  H13  1  0.67410000  0.69690000  0.46560000  1
  H  H14  1  0.84210000  0.69570000  0.52780000  1
  H  H15  1  0.69690000  0.67410000  0.96560000  1
  H  H16  1  0.92290000  0.64430000  0.20270000  1
  H  H17  1  0.20820000  0.62800000  0.56130000  1
  H  H18  1  0.47190000  0.62750000  0.42340000  1
  H  H19  1  0.45120000  0.53980000  0.64420000  1
  H  H20  1  0.21700000  0.53820000  0.73220000  1
  H  H21  1  0.14930000  0.52810000  0.27590000  1
  H  H22  1  0.74200000  0.52060000  0.18570000  1
  H  H23  1  0.14260000  0.49320000  0.92900000  1
  H  H24  1  0.96850000  0.47810000  0.60680000  1
  H  H25  1  0.62750000  0.47190000  0.92340000  1
  H  H26  1  0.69730000  0.46910000  0.65860000  1
  H  H27  1  0.02560000  0.46800000  0.42500000  1
  H  H28  1  0.53980000  0.45120000  0.14420000  1
  H  H29  1  0.87440000  0.43460000  0.77490000  1
  H  H30  1  0.77400000  0.42600000  0.48830000  1
  H  H31  1  0.18470000  0.41450000  0.10010000  1
  H  H32  1  0.36420000  0.38300000  0.91140000  1
  H  H33  1  0.38300000  0.36420000  0.41140000  1
  H  H34  1  0.25690000  0.30110000  0.55760000  1
  H  H35  1  0.86250000  0.29770000  0.38800000  1
  H  H36  1  0.94300000  0.28840000  0.21340000  1
  H  H37  1  0.30110000  0.25690000  0.05760000  1
  H  H38  1  0.53820000  0.21700000  0.23220000  1
  H  H39  1  0.62800000  0.20820000  0.06130000  1
  H  H40  1  0.11020000  0.20180000  0.64970000  1
  H  H41  1  0.41450000  0.18470000  0.60010000  1
  H  H42  1  0.01320000  0.16740000  0.81720000  1
  H  H43  1  0.52810000  0.14930000  0.77590000  1
  H  H44  1  0.49320000  0.14260000  0.42900000  1
  H  H45  1  0.73350000  0.11830000  0.75360000  1
  H  H46  1  0.20180000  0.11020000  0.14970000  1
  H  H47  1  0.78630000  0.03910000  0.06800000  1
  H  H48  1  0.46800000  0.02560000  0.92500000  1
  H  H49  1  0.16740000  0.01320000  0.31720000  1
  C  C50  1  0.41459000  0.98053000  0.14908000  1
  C  C51  1  0.67369000  0.94393000  0.77828000  1
  C  C52  1  0.38800000  0.92442000  0.24984000  1
  C  C53  1  0.70435000  0.89665000  0.96906000  1
  C  C54  1  0.27409000  0.85985000  0.71730000  1
  C  C55  1  0.66352000  0.85684000  0.85850000  1
  C  C56  1  0.28049000  0.81219000  0.82183000  1
  C  C57  1  0.01504000  0.75714000  0.49288000  1
  C  C58  1  0.61598000  0.72938000  0.83073000  1
  C  C59  1  0.06108000  0.72690000  0.30968000  1
  C  C60  1  0.89665000  0.70435000  0.46906000  1
  C  C61  1  0.37744000  0.70066000  0.01054000  1
  C  C62  1  0.26189000  0.69105000  0.83069000  1
  C  C63  1  0.54234000  0.68764000  0.73415000  1
  C  C64  1  0.22761000  0.67611000  0.62875000  1
  C  C65  1  0.94393000  0.67369000  0.27828000  1
  C  C66  1  0.85684000  0.66352000  0.35850000  1
  C  C67  1  0.40328000  0.65542000  0.11202000  1
  C  C68  1  0.64693000  0.64715000  0.90022000  1
  C  C69  1  0.64715000  0.64693000  0.40022000  1
  C  C70  1  0.28130000  0.64060000  0.94011000  1
  C  C71  1  0.23291000  0.62163000  0.73060000  1
  C  C72  1  0.72938000  0.61598000  0.33073000  1
  C  C73  1  0.52661000  0.60591000  0.37520000  1
  C  C74  1  0.50131000  0.56733000  0.70933000  1
  C  C75  1  0.33175000  0.54747000  0.14566000  1
  C  C76  1  0.68764000  0.54234000  0.23415000  1
  C  C77  1  0.20922000  0.53416000  0.97512000  1
  C  C78  1  0.48649000  0.53317000  0.27946000  1
  C  C79  1  0.60591000  0.52661000  0.87520000  1
  C  C80  1  0.56733000  0.50131000  0.20933000  1
  C  C81  1  0.23401000  0.48717000  0.07726000  1
  C  C82  1  0.53317000  0.48649000  0.77946000  1
  C  C83  1  0.17253000  0.48393000  0.33395000  1
  C  C84  1  0.28120000  0.45604000  0.32979000  1
  C  C85  1  0.09835000  0.44703000  0.42287000  1
  C  C86  1  0.98053000  0.41459000  0.64908000  1
  C  C87  1  0.65542000  0.40328000  0.61202000  1
  C  C88  1  0.92442000  0.38800000  0.74984000  1
  C  C89  1  0.31082000  0.38616000  0.41420000  1
  C  C90  1  0.12826000  0.37986000  0.50934000  1
  C  C91  1  0.70066000  0.37744000  0.51054000  1
  C  C92  1  0.23541000  0.34879000  0.50170000  1
  C  C93  1  0.05532000  0.34790000  0.60933000  1
  C  C94  1  0.54747000  0.33175000  0.64566000  1
  C  C95  1  0.38616000  0.31082000  0.91420000  1
  C  C96  1  0.64060000  0.28130000  0.44011000  1
  C  C97  1  0.45604000  0.28120000  0.82979000  1
  C  C98  1  0.81219000  0.28049000  0.32183000  1
  C  C99  1  0.85985000  0.27409000  0.21730000  1
  C  C100  1  0.69105000  0.26189000  0.33069000  1
  C  C101  1  0.06400000  0.25246000  0.67430000  1
  C  C102  1  0.34879000  0.23541000  0.00170000  1
  C  C103  1  0.48717000  0.23401000  0.57726000  1
  C  C104  1  0.62163000  0.23291000  0.23060000  1
  C  C105  1  0.00519000  0.23209000  0.77440000  1
  C  C106  1  0.67611000  0.22761000  0.12875000  1
  C  C107  1  0.53416000  0.20922000  0.47512000  1
  C  C108  1  0.48393000  0.17253000  0.83395000  1
  C  C109  1  0.37986000  0.12826000  0.00934000  1
  C  C110  1  0.44703000  0.09835000  0.92287000  1
  C  C111  1  0.25246000  0.06400000  0.17430000  1
  C  C112  1  0.72690000  0.06108000  0.80968000  1
  C  C113  1  0.34790000  0.05532000  0.10933000  1
  C  C114  1  0.75714000  0.01504000  0.99288000  1
  C  C115  1  0.23209000  0.00519000  0.27440000  1
  N  N116  1  0.29896000  0.93752000  0.31407000  1
  N  N117  1  0.24852000  0.79316000  0.62104000  1
  N  N118  1  0.09797000  0.76937000  0.41476000  1
  N  N119  1  0.36324000  0.49826000  0.24643000  1
  N  N120  1  0.49826000  0.36324000  0.74643000  1
  N  N121  1  0.93752000  0.29896000  0.81407000  1
  N  N122  1  0.79316000  0.24852000  0.12104000  1
  N  N123  1  0.76937000  0.09797000  0.91476000  1
  Cl  Cl124  1  0.46618000  0.88430000  0.50463000  1
  Cl  Cl125  1  0.88430000  0.46618000  0.00463000  1
  Cl  Cl126  1  0.03529000  0.19547000  0.04406000  1
  Cl  Cl127  1  0.19547000  0.03529000  0.54406000  1
