# generated using pymatgen
data_FeH5C8O5
_symmetry_space_group_name_H-M   'P 1'
_cell_length_a   6.89848410
_cell_length_b   11.25770000
_cell_length_c   11.25770000
_cell_angle_alpha   90.86570000
_cell_angle_beta   107.52005683
_cell_angle_gamma   107.52005683
_symmetry_Int_Tables_number   1
_chemical_formula_structural   FeH5C8O5
_chemical_formula_sum   'Fe2 H10 C16 O10'
_cell_volume   789.66062036
_cell_formula_units_Z   2
loop_
 _symmetry_equiv_pos_site_id
 _symmetry_equiv_pos_as_xyz
  1  'x, y, z'
loop_
 _atom_site_type_symbol
 _atom_site_label
 _atom_site_symmetry_multiplicity
 _atom_site_fract_x
 _atom_site_fract_y
 _atom_site_fract_z
 _atom_site_occupancy
  C  C0  1  0.36968000  0.99851500  0.73528500  1
  C  C1  1  0.64058000  0.99958500  0.93627500  1
  C  C2  1  0.70345000  0.56395500  0.50030500  1
  C  C3  1  0.43714000  0.99927500  0.87230500  1
  C  C4  1  0.64058000  0.43627500  0.49958500  1
  C  C5  1  0.63032000  0.76471500  0.50148500  1
  C  C6  1  0.70345000  0.00030500  0.06395500  1
  C  C7  1  0.56286000  0.62769500  0.50072500  1
  C  C8  1  0.43714000  0.37230500  0.49927500  1
  C  C9  1  0.29655000  0.99969500  0.93604500  1
  C  C10  1  0.36968000  0.23528500  0.49851500  1
  C  C11  1  0.35942000  0.56372500  0.50041500  1
  C  C12  1  0.56286000  0.00072500  0.12769500  1
  C  C13  1  0.29655000  0.43604500  0.49969500  1
  C  C14  1  0.35942000  0.00041500  0.06372500  1
  C  C15  1  0.63032000  0.00148500  0.26471500  1
  Fe  Fe16  1  1.00000000  1.00000000  0.50000000  1
  Fe  Fe17  1  0.50000000  0.00000000  0.50000000  1
  H  H18  1  0.74114000  0.99928500  0.89067500  1
  H  H19  1  0.84898000  0.60971500  0.50052500  1
  H  H20  1  0.74114000  0.39067500  0.49928500  1
  H  H21  1  0.84898000  0.00052500  0.10971500  1
  H  H22  1  0.86862000  0.13757000  0.63757000  1
  H  H23  1  0.13138000  0.86243000  0.36243000  1
  H  H24  1  0.15102000  0.99947500  0.89028500  1
  H  H25  1  0.25886000  0.60932500  0.50071500  1
  H  H26  1  0.15102000  0.39028500  0.49947500  1
  H  H27  1  0.25886000  0.00071500  0.10932500  1
  O  O28  1  0.50150000  0.00420500  0.32405500  1
  O  O29  1  0.18257000  0.00056500  0.67625500  1
  O  O30  1  0.81743000  0.82374500  0.49943500  1
  O  O31  1  0.81330000  0.06154000  0.56154000  1
  O  O32  1  0.49850000  0.17594500  0.49579500  1
  O  O33  1  0.50150000  0.82405500  0.50420500  1
  O  O34  1  0.18670000  0.93846000  0.43846000  1
  O  O35  1  0.81743000  0.99943500  0.32374500  1
  O  O36  1  0.18257000  0.17625500  0.50056500  1
  O  O37  1  0.49850000  0.99579500  0.67594500  1
