# generated using pymatgen
data_ZnH20C28(NO2)2
_symmetry_space_group_name_H-M   'P 1'
_cell_length_a   5.88880000
_cell_length_b   15.93715141
_cell_length_c   20.44850000
_cell_angle_alpha   102.01531268
_cell_angle_beta   90.00000000
_cell_angle_gamma   100.64659846
_symmetry_Int_Tables_number   1
_chemical_formula_structural   ZnH20C28(NO2)2
_chemical_formula_sum   'Zn2 H40 C56 N4 O8'
_cell_volume   1843.27221136
_cell_formula_units_Z   2
loop_
 _symmetry_equiv_pos_site_id
 _symmetry_equiv_pos_as_xyz
  1  'x, y, z'
loop_
 _atom_site_type_symbol
 _atom_site_label
 _atom_site_symmetry_multiplicity
 _atom_site_fract_x
 _atom_site_fract_y
 _atom_site_fract_z
 _atom_site_occupancy
  C  C0  1  0.59831000  0.98662000  0.43787000  1
  C  C1  1  0.38831000  0.98662000  0.93787000  1
  C  C2  1  0.59610000  0.97540000  0.55342000  1
  C  C3  1  0.37930000  0.97540000  0.05342000  1
  C  C4  1  0.71160000  0.97420000  0.37163000  1
  C  C5  1  0.26260000  0.97420000  0.87163000  1
  C  C6  1  0.69348000  0.96176000  0.49148000  1
  C  C7  1  0.26828000  0.96176000  0.99148000  1
  C  C8  1  0.72385000  0.88110000  0.73758000  1
  C  C9  1  0.15725000  0.88110000  0.23758000  1
  C  C10  1  0.88061000  0.84142000  0.15177000  1
  C  C11  1  0.96081000  0.84142000  0.65177000  1
  C  C12  1  0.54781000  0.81302000  0.71029000  1
  C  C13  1  0.26521000  0.81302000  0.21029000  1
  C  C14  1  0.79236000  0.77232000  0.62175000  1
  C  C15  1  0.97996000  0.77232000  0.12175000  1
  C  C16  1  0.57809000  0.75678000  0.65048000  1
  C  C17  1  0.17869000  0.75678000  0.15048000  1
  C  C18  1  0.38553000  0.68586000  0.62182000  1
  C  C19  1  0.30033000  0.68586000  0.12182000  1
  C  C20  1  0.37631000  0.63702000  0.56177000  1
  C  C21  1  0.26071000  0.63702000  0.06177000  1
  C  C22  1  0.38557000  0.56674000  0.03085000  1
  C  C23  1  0.18117000  0.56674000  0.53085000  1
  C  C24  1  0.57673000  0.54986000  0.06262000  1
  C  C25  1  0.97313000  0.54986000  0.56262000  1
  C  C26  1  0.31017000  0.51674000  0.96814000  1
  C  C27  1  0.20657000  0.51674000  0.46814000  1
  C  C28  1  0.68983000  0.48326000  0.03186000  1
  C  C29  1  0.79343000  0.48326000  0.53186000  1
  C  C30  1  0.42327000  0.45014000  0.93738000  1
  C  C31  1  0.02687000  0.45014000  0.43738000  1
  C  C32  1  0.61443000  0.43326000  0.96915000  1
  C  C33  1  0.81883000  0.43326000  0.46915000  1
  C  C34  1  0.62369000  0.36298000  0.43823000  1
  C  C35  1  0.73929000  0.36298000  0.93823000  1
  C  C36  1  0.61447000  0.31414000  0.37818000  1
  C  C37  1  0.69967000  0.31414000  0.87818000  1
  C  C38  1  0.42191000  0.24322000  0.34952000  1
  C  C39  1  0.82131000  0.24322000  0.84952000  1
  C  C40  1  0.20764000  0.22768000  0.37825000  1
  C  C41  1  0.02004000  0.22768000  0.87825000  1
  C  C42  1  0.45219000  0.18698000  0.28971000  1
  C  C43  1  0.73479000  0.18698000  0.78971000  1
  C  C44  1  0.11939000  0.15858000  0.84823000  1
  C  C45  1  0.03919000  0.15858000  0.34823000  1
  C  C46  1  0.27615000  0.11890000  0.26242000  1
  C  C47  1  0.84275000  0.11890000  0.76242000  1
  C  C48  1  0.30652000  0.03824000  0.50852000  1
  C  C49  1  0.73172000  0.03824000  0.00852000  1
  C  C50  1  0.28840000  0.02580000  0.62837000  1
  C  C51  1  0.73740000  0.02580000  0.12837000  1
  C  C52  1  0.40390000  0.02460000  0.44658000  1
  C  C53  1  0.62070000  0.02460000  0.94658000  1
  C  C54  1  0.40169000  0.01338000  0.56213000  1
  C  C55  1  0.61169000  0.01338000  0.06213000  1
  H  H56  1  0.66250000  0.95880000  0.59000000  1
  H  H57  1  0.29630000  0.95880000  0.09000000  1
  H  H58  1  0.82600000  0.93520000  0.48550000  1
  H  H59  1  0.10920000  0.93520000  0.98550000  1
  H  H60  1  0.69910000  0.91920000  0.77820000  1
  H  H61  1  0.22010000  0.91920000  0.27820000  1
  H  H62  1  0.74580000  0.85100000  0.13120000  1
  H  H63  1  0.10520000  0.85100000  0.63120000  1
  H  H64  1  0.40580000  0.80440000  0.73230000  1
  H  H65  1  0.39860000  0.80440000  0.23230000  1
  H  H66  1  0.82200000  0.73500000  0.58130000  1
  H  H67  1  0.91300000  0.73500000  0.08130000  1
  H  H68  1  0.41700000  0.67460000  0.14910000  1
  H  H69  1  0.25760000  0.67460000  0.64910000  1
  H  H70  1  0.50700000  0.64740000  0.53530000  1
  H  H71  1  0.14040000  0.64740000  0.03530000  1
  H  H72  1  0.63030000  0.58400000  0.10550000  1
  H  H73  1  0.95370000  0.58400000  0.60550000  1
  H  H74  1  0.34720000  0.52780000  0.44590000  1
  H  H75  1  0.18060000  0.52780000  0.94590000  1
  H  H76  1  0.65280000  0.47220000  0.55410000  1
  H  H77  1  0.81940000  0.47220000  0.05410000  1
  H  H78  1  0.36970000  0.41600000  0.89450000  1
  H  H79  1  0.04630000  0.41600000  0.39450000  1
  H  H80  1  0.49300000  0.35260000  0.46470000  1
  H  H81  1  0.85960000  0.35260000  0.96470000  1
  H  H82  1  0.58300000  0.32540000  0.85090000  1
  H  H83  1  0.74240000  0.32540000  0.35090000  1
  H  H84  1  0.17800000  0.26500000  0.41870000  1
  H  H85  1  0.08700000  0.26500000  0.91870000  1
  H  H86  1  0.59420000  0.19560000  0.26770000  1
  H  H87  1  0.60140000  0.19560000  0.76770000  1
  H  H88  1  0.25420000  0.14900000  0.86880000  1
  H  H89  1  0.89480000  0.14900000  0.36880000  1
  H  H90  1  0.30090000  0.08080000  0.22180000  1
  H  H91  1  0.77990000  0.08080000  0.72180000  1
  H  H92  1  0.17400000  0.06480000  0.51450000  1
  H  H93  1  0.89080000  0.06480000  0.01450000  1
  H  H94  1  0.33750000  0.04120000  0.41000000  1
  H  H95  1  0.70370000  0.04120000  0.91000000  1
  N  N96  1  0.92840000  0.89600000  0.70930000  1
  N  N97  1  0.96760000  0.89600000  0.20930000  1
  N  N98  1  0.07160000  0.10400000  0.29070000  1
  N  N99  1  0.03240000  0.10400000  0.79070000  1
  O  O100  1  0.60904000  0.99488000  0.32359000  1
  O  O101  1  0.38584000  0.99488000  0.82359000  1
  O  O102  1  0.89620000  0.94780000  0.36596000  1
  O  O103  1  0.05160000  0.94780000  0.86596000  1
  O  O104  1  0.10380000  0.05220000  0.63404000  1
  O  O105  1  0.94840000  0.05220000  0.13404000  1
  O  O106  1  0.39096000  0.00512000  0.67641000  1
  O  O107  1  0.61416000  0.00512000  0.17641000  1
  Zn  Zn108  1  0.82114000  1.00000000  0.25000000  1
  Zn  Zn109  1  0.17886000  1.00000000  0.75000000  1
