# generated using pymatgen
data_Zn5H20C32(NO)12
_symmetry_space_group_name_H-M   'P 1'
_cell_length_a   10.19200000
_cell_length_b   17.76400000
_cell_length_c   24.43700000
_cell_angle_alpha   90.00000000
_cell_angle_beta   91.19000000
_cell_angle_gamma   90.00000000
_symmetry_Int_Tables_number   1
_chemical_formula_structural   Zn5H20C32(NO)12
_chemical_formula_sum   'Zn20 H80 C128 N48 O48'
_cell_volume   4423.38143693
_cell_formula_units_Z   4
loop_
 _symmetry_equiv_pos_site_id
 _symmetry_equiv_pos_as_xyz
  1  'x, y, z'
loop_
 _atom_site_type_symbol
 _atom_site_label
 _atom_site_symmetry_multiplicity
 _atom_site_fract_x
 _atom_site_fract_y
 _atom_site_fract_z
 _atom_site_occupancy
  Zn  Zn0  1  0.11189000  0.10263000  0.53810000  1
  Zn  Zn1  1  0.11253000  0.43746000  0.16669000  1
  Zn  Zn2  1  0.13066000  0.24458000  0.12818000  1
  Zn  Zn3  1  0.14532000  0.04929000  0.09530000  1
  Zn  Zn4  1  0.14863000  0.39805000  0.72525000  1
  Zn  Zn5  1  0.35137000  0.89805000  0.77475000  1
  Zn  Zn6  1  0.35468000  0.54929000  0.40470000  1
  Zn  Zn7  1  0.36934000  0.74458000  0.37182000  1
  Zn  Zn8  1  0.38747000  0.93746000  0.33333333  1
  Zn  Zn9  1  0.38811000  0.60263000  0.96190000  1
  Zn  Zn10  1  0.61189000  0.39737000  0.03810000  1
  Zn  Zn11  1  0.61253000  0.06254000  0.66666667  1
  Zn  Zn12  1  0.63066000  0.25542000  0.62818000  1
  Zn  Zn13  1  0.64532000  0.45071000  0.59530000  1
  Zn  Zn14  1  0.64863000  0.10195000  0.22525000  1
  Zn  Zn15  1  0.85137000  0.60195000  0.27475000  1
  Zn  Zn16  1  0.85468000  0.95071000  0.90470000  1
  Zn  Zn17  1  0.86934000  0.75542000  0.87182000  1
  Zn  Zn18  1  0.88747000  0.56254000  0.83331000  1
  Zn  Zn19  1  0.88811000  0.89737000  0.46190000  1
  H  H20  1  0.03200000  0.39280000  0.34600000  1
  H  H21  1  0.03270000  0.33320000  0.43070000  1
  H  H22  1  0.04820000  0.13320000  0.35620000  1
  H  H23  1  0.05420000  0.19220000  0.27200000  1
  H  H24  1  0.07330000  0.51720000  0.34100000  1
  H  H25  1  0.07380000  0.72830000  0.30280000  1
  H  H26  1  0.09240000  0.77410000  0.43220000  1
  H  H27  1  0.09930000  0.68110000  0.04240000  1
  H  H28  1  0.10210000  0.98170000  0.38450000  1
  H  H29  1  0.11240000  0.81050000  0.04500000  1
  H  H30  1  0.13300000  0.67460000  0.20620000  1
  H  H31  1  0.13920000  0.80400000  0.20880000  1
  H  H32  1  0.14180000  0.98830000  0.85060000  1
  H  H33  1  0.14620000  0.77720000  0.80940000  1
  H  H34  1  0.16090000  0.73350000  0.94420000  1
  H  H35  1  0.17250000  0.52890000  0.88890000  1
  H  H36  1  0.20100000  0.09090000  0.91520000  1
  H  H37  1  0.20650000  0.14660000  0.83010000  1
  H  H38  1  0.21500000  0.29590000  0.98450000  1
  H  H39  1  0.22010000  0.35060000  0.89870000  1
  H  H40  1  0.27990000  0.85060000  0.60130000  1
  H  H41  1  0.28500000  0.79590000  0.51550000  1
  H  H42  1  0.29350000  0.64660000  0.66990000  1
  H  H43  1  0.29900000  0.59090000  0.58480000  1
  H  H44  1  0.32750000  0.02890000  0.61110000  1
  H  H45  1  0.33910000  0.23350000  0.55580000  1
  H  H46  1  0.35380000  0.27720000  0.69060000  1
  H  H47  1  0.35820000  0.48830000  0.64940000  1
  H  H48  1  0.36080000  0.30400000  0.29120000  1
  H  H49  1  0.36700000  0.17460000  0.29380000  1
  H  H50  1  0.38760000  0.31050000  0.45500000  1
  H  H51  1  0.39790000  0.48170000  0.11550000  1
  H  H52  1  0.40070000  0.18110000  0.45760000  1
  H  H53  1  0.40760000  0.27410000  0.06780000  1
  H  H54  1  0.42620000  0.22830000  0.19720000  1
  H  H55  1  0.42670000  0.01720000  0.15900000  1
  H  H56  1  0.44580000  0.69220000  0.22800000  1
  H  H57  1  0.45180000  0.63320000  0.14380000  1
  H  H58  1  0.46730000  0.83320000  0.06930000  1
  H  H59  1  0.46800000  0.89280000  0.15400000  1
  H  H60  1  0.53200000  0.10720000  0.84600000  1
  H  H61  1  0.53270000  0.16680000  0.93070000  1
  H  H62  1  0.54820000  0.36680000  0.85620000  1
  H  H63  1  0.55420000  0.30780000  0.77200000  1
  H  H64  1  0.57330000  0.98280000  0.84100000  1
  H  H65  1  0.57380000  0.77170000  0.80280000  1
  H  H66  1  0.59240000  0.72590000  0.93220000  1
  H  H67  1  0.59930000  0.81890000  0.54240000  1
  H  H68  1  0.60210000  0.51830000  0.88450000  1
  H  H69  1  0.61240000  0.68950000  0.54500000  1
  H  H70  1  0.63300000  0.82540000  0.70620000  1
  H  H71  1  0.63920000  0.69600000  0.70880000  1
  H  H72  1  0.64180000  0.51170000  0.35060000  1
  H  H73  1  0.64620000  0.72280000  0.30940000  1
  H  H74  1  0.66090000  0.76650000  0.44420000  1
  H  H75  1  0.67250000  0.97110000  0.38890000  1
  H  H76  1  0.70100000  0.40910000  0.41520000  1
  H  H77  1  0.70650000  0.35340000  0.33010000  1
  H  H78  1  0.71500000  0.20410000  0.48450000  1
  H  H79  1  0.72010000  0.14940000  0.39870000  1
  H  H80  1  0.77990000  0.64940000  0.10130000  1
  H  H81  1  0.78500000  0.70410000  0.01550000  1
  H  H82  1  0.79350000  0.85340000  0.16990000  1
  H  H83  1  0.79900000  0.90910000  0.08480000  1
  H  H84  1  0.82750000  0.47110000  0.11110000  1
  H  H85  1  0.83910000  0.26650000  0.05580000  1
  H  H86  1  0.85380000  0.22280000  0.19060000  1
  H  H87  1  0.85820000  0.01170000  0.14940000  1
  H  H88  1  0.86080000  0.19600000  0.79120000  1
  H  H89  1  0.86700000  0.32540000  0.79380000  1
  H  H90  1  0.88760000  0.18950000  0.95500000  1
  H  H91  1  0.89790000  0.01830000  0.61550000  1
  H  H92  1  0.90070000  0.31890000  0.95760000  1
  H  H93  1  0.90760000  0.22590000  0.56780000  1
  H  H94  1  0.92620000  0.27170000  0.69720000  1
  H  H95  1  0.92670000  0.48280000  0.65900000  1
  H  H96  1  0.94580000  0.80780000  0.72800000  1
  H  H97  1  0.95180000  0.86680000  0.64380000  1
  H  H98  1  0.96730000  0.66680000  0.56930000  1
  H  H99  1  0.96800000  0.60720000  0.65400000  1
  C  C100  1  0.03940000  0.30500000  0.39880000  1
  C  C101  1  0.03950000  0.34070000  0.34806000  1
  C  C102  1  0.04940000  0.22700000  0.40160000  1
  C  C103  1  0.04960000  0.18550000  0.35430000  1
  C  C104  1  0.05070000  0.29870000  0.30091000  1
  C  C105  1  0.05190000  0.22070000  0.30390000  1
  C  C106  1  0.06820000  0.18950000  0.45640000  1
  C  C107  1  0.07740000  0.33560000  0.24708000  1
  C  C108  1  0.09810000  0.56730000  0.33730000  1
  C  C109  1  0.09900000  0.68160000  0.31656000  1
  C  C110  1  0.10090000  0.58040000  0.12260000  1
  C  C111  1  0.10760000  0.70560000  0.07590000  1
  C  C112  1  0.11200000  0.66400000  0.12404000  1
  C  C113  1  0.11560000  0.78310000  0.07750000  1
  C  C114  1  0.11840000  0.81880000  0.41595000  1
  C  C115  1  0.11850000  0.93800000  0.84670000  1
  C  C116  1  0.12120000  0.82330000  0.82400000  1
  C  C117  1  0.12360000  0.93140000  0.39010000  1
  C  C118  1  0.12690000  0.70190000  0.17380000  1
  C  C119  1  0.12840000  0.82050000  0.12710000  1
  C  C120  1  0.13260000  0.77930000  0.17530000  1
  C  C121  1  0.13600000  0.90510000  0.13020000  1
  C  C122  1  0.13900000  0.68900000  0.92620000  1
  C  C123  1  0.14550000  0.57780000  0.89630000  1
  C  C124  1  0.17750000  0.15570000  0.01442000  1
  C  C125  1  0.18930000  0.29120000  0.79970000  1
  C  C126  1  0.20160000  0.18820000  0.95853000  1
  C  C127  1  0.20240000  0.14310000  0.91210000  1
  C  C128  1  0.20520000  0.17680000  0.86110000  1
  C  C129  1  0.20610000  0.25400000  0.85510000  1
  C  C130  1  0.21070000  0.26580000  0.95330000  1
  C  C131  1  0.21340000  0.29860000  0.90190000  1
  C  C132  1  0.28660000  0.79860000  0.59810000  1
  C  C133  1  0.28930000  0.76580000  0.54670000  1
  C  C134  1  0.29390000  0.75400000  0.64490000  1
  C  C135  1  0.29480000  0.67680000  0.63890000  1
  C  C136  1  0.29760000  0.64310000  0.58790000  1
  C  C137  1  0.29840000  0.68820000  0.54147000  1
  C  C138  1  0.31070000  0.79120000  0.70030000  1
  C  C139  1  0.32250000  0.65570000  0.48558000  1
  C  C140  1  0.35450000  0.07780000  0.60370000  1
  C  C141  1  0.36100000  0.18900000  0.57380000  1
  C  C142  1  0.36400000  0.40510000  0.36980000  1
  C  C143  1  0.36740000  0.27930000  0.32470000  1
  C  C144  1  0.37160000  0.32050000  0.37290000  1
  C  C145  1  0.37310000  0.20190000  0.32620000  1
  C  C146  1  0.37640000  0.43140000  0.10990000  1
  C  C147  1  0.37880000  0.32330000  0.67600000  1
  C  C148  1  0.38150000  0.43800000  0.65330000  1
  C  C149  1  0.38160000  0.31880000  0.08405000  1
  C  C150  1  0.38440000  0.28310000  0.42250000  1
  C  C151  1  0.38800000  0.16400000  0.37596000  1
  C  C152  1  0.39240000  0.20560000  0.42410000  1
  C  C153  1  0.39910000  0.08040000  0.37740000  1
  C  C154  1  0.40100000  0.18160000  0.18344000  1
  C  C155  1  0.40190000  0.06730000  0.16270000  1
  C  C156  1  0.42260000  0.83560000  0.25292000  1
  C  C157  1  0.43180000  0.68950000  0.04360000  1
  C  C158  1  0.44810000  0.72070000  0.19610000  1
  C  C159  1  0.44930000  0.79870000  0.19909000  1
  C  C160  1  0.45040000  0.68550000  0.14570000  1
  C  C161  1  0.45060000  0.72700000  0.09840000  1
  C  C162  1  0.46050000  0.84070000  0.15194000  1
  C  C163  1  0.46060000  0.80500000  0.10120000  1
  C  C164  1  0.53940000  0.19500000  0.89880000  1
  C  C165  1  0.53950000  0.15930000  0.84806000  1
  C  C166  1  0.54940000  0.27300000  0.90160000  1
  C  C167  1  0.54960000  0.31450000  0.85430000  1
  C  C168  1  0.55070000  0.20130000  0.80091000  1
  C  C169  1  0.55190000  0.27930000  0.80390000  1
  C  C170  1  0.56820000  0.31050000  0.95640000  1
  C  C171  1  0.57740000  0.16440000  0.74708000  1
  C  C172  1  0.59810000  0.93270000  0.83730000  1
  C  C173  1  0.59900000  0.81840000  0.81656000  1
  C  C174  1  0.60090000  0.91960000  0.62260000  1
  C  C175  1  0.60760000  0.79440000  0.57590000  1
  C  C176  1  0.61200000  0.83600000  0.62404000  1
  C  C177  1  0.61560000  0.71690000  0.57750000  1
  C  C178  1  0.61840000  0.68120000  0.91595000  1
  C  C179  1  0.61850000  0.56200000  0.34670000  1
  C  C180  1  0.62120000  0.67670000  0.32400000  1
  C  C181  1  0.62360000  0.56860000  0.89010000  1
  C  C182  1  0.62690000  0.79810000  0.67380000  1
  C  C183  1  0.62840000  0.67950000  0.62710000  1
  C  C184  1  0.63260000  0.72070000  0.67530000  1
  C  C185  1  0.63600000  0.59490000  0.63020000  1
  C  C186  1  0.63900000  0.81100000  0.42620000  1
  C  C187  1  0.64550000  0.92220000  0.39630000  1
  C  C188  1  0.67750000  0.34430000  0.51442000  1
  C  C189  1  0.68930000  0.20880000  0.29970000  1
  C  C190  1  0.70160000  0.31180000  0.45853000  1
  C  C191  1  0.70240000  0.35690000  0.41210000  1
  C  C192  1  0.70520000  0.32320000  0.36110000  1
  C  C193  1  0.70610000  0.24600000  0.35510000  1
  C  C194  1  0.71070000  0.23420000  0.45330000  1
  C  C195  1  0.71340000  0.20140000  0.40190000  1
  C  C196  1  0.78660000  0.70140000  0.09810000  1
  C  C197  1  0.78930000  0.73420000  0.04670000  1
  C  C198  1  0.79390000  0.74600000  0.14490000  1
  C  C199  1  0.79480000  0.82320000  0.13890000  1
  C  C200  1  0.79760000  0.85690000  0.08790000  1
  C  C201  1  0.79840000  0.81180000  0.04147000  1
  C  C202  1  0.81070000  0.70880000  0.20030000  1
  C  C203  1  0.82250000  0.84430000  0.98558000  1
  C  C204  1  0.85450000  0.42220000  0.10370000  1
  C  C205  1  0.86100000  0.31100000  0.07380000  1
  C  C206  1  0.86400000  0.09490000  0.86980000  1
  C  C207  1  0.86740000  0.22070000  0.82470000  1
  C  C208  1  0.87160000  0.17950000  0.87290000  1
  C  C209  1  0.87310000  0.29810000  0.82620000  1
  C  C210  1  0.87640000  0.06860000  0.60990000  1
  C  C211  1  0.87880000  0.17670000  0.17600000  1
  C  C212  1  0.88150000  0.06200000  0.15330000  1
  C  C213  1  0.88160000  0.18120000  0.58405000  1
  C  C214  1  0.88440000  0.21690000  0.92250000  1
  C  C215  1  0.88800000  0.33600000  0.87596000  1
  C  C216  1  0.89240000  0.29440000  0.92410000  1
  C  C217  1  0.89910000  0.41960000  0.87740000  1
  C  C218  1  0.90100000  0.31840000  0.68344000  1
  C  C219  1  0.90190000  0.43270000  0.66270000  1
  C  C220  1  0.92260000  0.66440000  0.75292000  1
  C  C221  1  0.93180000  0.81050000  0.54360000  1
  C  C222  1  0.94810000  0.77930000  0.69610000  1
  C  C223  1  0.94930000  0.70130000  0.69909000  1
  C  C224  1  0.95040000  0.81450000  0.64570000  1
  C  C225  1  0.95060000  0.77300000  0.59840000  1
  C  C226  1  0.96050000  0.65930000  0.65194000  1
  C  C227  1  0.96060000  0.69500000  0.60120000  1
  N  N228  1  0.01220000  0.90850000  0.86718000  1
  N  N229  1  0.01310000  0.83380000  0.85199000  1
  N  N230  1  0.02620000  0.61900000  0.31039000  1
  N  N231  1  0.03030000  0.67950000  0.89692000  1
  N  N232  1  0.03530000  0.60700000  0.87775000  1
  N  N233  1  0.05080000  0.88330000  0.41939000  1
  N  N234  1  0.19040000  0.88710000  0.81912000  1
  N  N235  1  0.20810000  0.59550000  0.35806000  1
  N  N236  1  0.20910000  0.67000000  0.34399000  1
  N  N237  1  0.21510000  0.62680000  0.92722000  1
  N  N238  1  0.22500000  0.82550000  0.38736000  1
  N  N239  1  0.22840000  0.89900000  0.37040000  1
  N  N240  1  0.27160000  0.39900000  0.12960000  1
  N  N241  1  0.27500000  0.32550000  0.11264000  1
  N  N242  1  0.28490000  0.12680000  0.57278000  1
  N  N243  1  0.29090000  0.17000000  0.15601000  1
  N  N244  1  0.29190000  0.09550000  0.14194000  1
  N  N245  1  0.30960000  0.38710000  0.68088000  1
  N  N246  1  0.44920000  0.38330000  0.08061000  1
  N  N247  1  0.46470000  0.10700000  0.62225000  1
  N  N248  1  0.46970000  0.17950000  0.60308000  1
  N  N249  1  0.47380000  0.11900000  0.18961000  1
  N  N250  1  0.48690000  0.33380000  0.64801000  1
  N  N251  1  0.48780000  0.40850000  0.63282000  1
  N  N252  1  0.51220000  0.59150000  0.36718000  1
  N  N253  1  0.51310000  0.66620000  0.35199000  1
  N  N254  1  0.52620000  0.88100000  0.81039000  1
  N  N255  1  0.53030000  0.82050000  0.39692000  1
  N  N256  1  0.53530000  0.89300000  0.37775000  1
  N  N257  1  0.55080000  0.61670000  0.91939000  1
  N  N258  1  0.69040000  0.61290000  0.31912000  1
  N  N259  1  0.70810000  0.90450000  0.85806000  1
  N  N260  1  0.70910000  0.83000000  0.84399000  1
  N  N261  1  0.71510000  0.87320000  0.42722000  1
  N  N262  1  0.72500000  0.67450000  0.88736000  1
  N  N263  1  0.72840000  0.60100000  0.87040000  1
  N  N264  1  0.77160000  0.10100000  0.62960000  1
  N  N265  1  0.77500000  0.17450000  0.61264000  1
  N  N266  1  0.78490000  0.37320000  0.07278000  1
  N  N267  1  0.79090000  0.33000000  0.65601000  1
  N  N268  1  0.79190000  0.40450000  0.64194000  1
  N  N269  1  0.80960000  0.11290000  0.18088000  1
  N  N270  1  0.94920000  0.11670000  0.58061000  1
  N  N271  1  0.96470000  0.39300000  0.12225000  1
  N  N272  1  0.96970000  0.32050000  0.10308000  1
  N  N273  1  0.97380000  0.38100000  0.68961000  1
  N  N274  1  0.98690000  0.16620000  0.14801000  1
  N  N275  1  0.98780000  0.09150000  0.13282000  1
  O  O276  1  0.06870000  0.11650000  0.45803000  1
  O  O277  1  0.06880000  0.40721000  0.24299000  1
  O  O278  1  0.07100000  0.54774000  0.07962000  1
  O  O279  1  0.08870000  0.22720000  0.49826000  1
  O  O280  1  0.11320000  0.29596000  0.20843000  1
  O  O281  1  0.12440000  0.54650000  0.16856000  1
  O  O282  1  0.12780000  0.93680000  0.17450000  1
  O  O283  1  0.14650000  0.94038000  0.08543000  1
  O  O284  1  0.14900000  0.19980000  0.05103000  1
  O  O285  1  0.17190000  0.25320000  0.75790000  1
  O  O286  1  0.18260000  0.08490000  0.02050000  1
  O  O287  1  0.18860000  0.36310000  0.79967000  1
  O  O288  1  0.31140000  0.86310000  0.70033000  1
  O  O289  1  0.31740000  0.58490000  0.47950000  1
  O  O290  1  0.32810000  0.75320000  0.74210000  1
  O  O291  1  0.35100000  0.69980000  0.44897000  1
  O  O292  1  0.35350000  0.44038000  0.41457000  1
  O  O293  1  0.37220000  0.43680000  0.32550000  1
  O  O294  1  0.37560000  0.04650000  0.33144000  1
  O  O295  1  0.38680000  0.79596000  0.29157000  1
  O  O296  1  0.41130000  0.72720000  0.00174000  1
  O  O297  1  0.42900000  0.04774000  0.42038000  1
  O  O298  1  0.43120000  0.90721000  0.25701000  1
  O  O299  1  0.43130000  0.61650000  0.04197000  1
  O  O300  1  0.56870000  0.38350000  0.95803000  1
  O  O301  1  0.56880000  0.09279000  0.74299000  1
  O  O302  1  0.57100000  0.95226000  0.57962000  1
  O  O303  1  0.58870000  0.27280000  0.99826000  1
  O  O304  1  0.61320000  0.20404000  0.70843000  1
  O  O305  1  0.62440000  0.95350000  0.66856000  1
  O  O306  1  0.62780000  0.56320000  0.67450000  1
  O  O307  1  0.64650000  0.55962000  0.58543000  1
  O  O308  1  0.64900000  0.30020000  0.55103000  1
  O  O309  1  0.67190000  0.24680000  0.25790000  1
  O  O310  1  0.68260000  0.41510000  0.52050000  1
  O  O311  1  0.68860000  0.13690000  0.29967000  1
  O  O312  1  0.81140000  0.63690000  0.20033000  1
  O  O313  1  0.81740000  0.91510000  0.97950000  1
  O  O314  1  0.82810000  0.74680000  0.24210000  1
  O  O315  1  0.85100000  0.80020000  0.94897000  1
  O  O316  1  0.85350000  0.05962000  0.91457000  1
  O  O317  1  0.87220000  0.06320000  0.82550000  1
  O  O318  1  0.87560000  0.45350000  0.83144000  1
  O  O319  1  0.88680000  0.70404000  0.79157000  1
  O  O320  1  0.91130000  0.77280000  0.50174000  1
  O  O321  1  0.92900000  0.45226000  0.92038000  1
  O  O322  1  0.93120000  0.59279000  0.75701000  1
  O  O323  1  0.93130000  0.88350000  0.54197000  1
