# generated using pymatgen
data_LaH12(C7O2)3
_symmetry_space_group_name_H-M   'P 1'
_cell_length_a   8.84200000
_cell_length_b   14.31800000
_cell_length_c   14.49806918
_cell_angle_alpha   113.08388347
_cell_angle_beta   107.75485388
_cell_angle_gamma   90.00000000
_symmetry_Int_Tables_number   1
_chemical_formula_structural   LaH12(C7O2)3
_chemical_formula_sum   'La2 H24 C42 O12'
_cell_volume   1593.02338781
_cell_formula_units_Z   2
loop_
 _symmetry_equiv_pos_site_id
 _symmetry_equiv_pos_as_xyz
  1  'x, y, z'
loop_
 _atom_site_type_symbol
 _atom_site_label
 _atom_site_symmetry_multiplicity
 _atom_site_fract_x
 _atom_site_fract_y
 _atom_site_fract_z
 _atom_site_occupancy
  La  La0  1  0.95301000  0.99647000  0.45142000  1
  La  La1  1  0.50159000  0.00353000  0.54858000  1
  H  H2  1  0.56360000  0.60820000  0.51980000  1
  H  H3  1  0.59930000  0.76650000  0.51820000  1
  H  H4  1  0.38240000  0.71700000  0.21580000  1
  H  H5  1  0.31280000  0.56450000  0.07400000  1
  H  H6  1  0.23880000  0.43550000  0.92600000  1
  H  H7  1  0.16660000  0.28300000  0.78420000  1
  H  H8  1  0.65580000  0.47930000  0.24760000  1
  H  H9  1  0.77090000  0.21470000  0.33000000  1
  H  H10  1  0.97670000  0.55440000  0.53300000  1
  H  H11  1  0.96320000  0.71000000  0.51920000  1
  H  H12  1  0.77000000  0.36730000  0.31840000  1
  H  H13  1  0.71410000  0.64170000  0.25460000  1
  H  H14  1  0.04380000  0.39180000  0.48020000  1
  H  H15  1  0.08110000  0.23350000  0.48180000  1
  H  H16  1  0.40820000  0.52070000  0.75240000  1
  H  H17  1  0.45950000  0.35830000  0.74540000  1
  H  H18  1  0.92990000  0.72550000  0.20640000  1
  H  H19  1  0.45160000  0.63270000  0.68160000  1
  H  H20  1  0.44090000  0.78530000  0.67000000  1
  H  H21  1  0.85660000  0.56470000  0.06980000  1
  H  H22  1  0.78680000  0.43530000  0.93020000  1
  H  H23  1  0.72350000  0.27450000  0.79360000  1
  H  H24  1  0.44400000  0.29000000  0.48080000  1
  H  H25  1  0.44370000  0.44560000  0.46700000  1
  C  C26  1  0.82750000  0.30820000  0.82040000  1
  C  C27  1  0.07420000  0.54950000  0.04640000  1
  C  C28  1  0.51160000  0.30680000  0.44980000  1
  C  C29  1  0.51070000  0.40000000  0.44140000  1
  C  C30  1  0.02780000  0.45050000  0.95360000  1
  C  C31  1  0.27530000  0.68820000  0.18460000  1
  C  C32  1  0.59450000  0.61390000  0.46620000  1
  C  C33  1  0.23340000  0.59690000  0.09880000  1
  C  C34  1  0.61600000  0.70900000  0.46500000  1
  C  C35  1  0.94000000  0.26130000  0.77380000  1
  C  C36  1  0.61370000  0.13780000  0.42540000  1
  C  C37  1  0.61210000  0.23860000  0.41240000  1
  C  C38  1  0.88710000  0.16220000  0.67600000  1
  C  C39  1  0.61310000  0.42550000  0.39420000  1
  C  C40  1  0.61890000  0.52610000  0.38700000  1
  C  C41  1  0.13460000  0.40310000  0.90120000  1
  C  C42  1  0.66020000  0.72050000  0.38900000  1
  C  C43  1  0.09070000  0.31180000  0.81540000  1
  C  C44  1  0.70690000  0.82640000  0.39620000  1
  C  C45  1  0.65230000  0.53740000  0.30540000  1
  C  C46  1  0.70790000  0.26170000  0.35940000  1
  C  C47  1  0.70610000  0.35240000  0.35260000  1
  C  C48  1  0.68140000  0.63470000  0.30700000  1
  C  C49  1  0.06930000  0.60000000  0.55860000  1
  C  C50  1  0.06180000  0.69320000  0.55020000  1
  C  C51  1  0.12830000  0.38610000  0.53380000  1
  C  C52  1  0.19970000  0.76140000  0.58760000  1
  C  C53  1  0.21890000  0.57450000  0.60580000  1
  C  C54  1  0.18830000  0.86220000  0.57460000  1
  C  C55  1  0.15100000  0.29100000  0.53500000  1
  C  C56  1  0.23190000  0.47390000  0.61300000  1
  C  C57  1  0.34690000  0.46260000  0.69460000  1
  C  C58  1  0.27120000  0.27950000  0.61100000  1
  C  C59  1  0.37440000  0.36530000  0.69300000  1
  C  C60  1  0.35350000  0.64760000  0.64740000  1
  C  C61  1  0.31070000  0.17360000  0.60380000  1
  C  C62  1  0.34850000  0.73830000  0.64060000  1
  C  C63  1  0.00710000  0.69180000  0.17960000  1
  C  C64  1  0.96140000  0.59710000  0.09480000  1
  C  C65  1  0.21110000  0.83780000  0.32400000  1
  C  C66  1  0.16620000  0.73870000  0.22620000  1
  C  C67  1  0.86660000  0.40290000  0.90520000  1
  O  O68  1  0.50440000  0.11000000  0.45000000  1
  O  O69  1  0.75120000  0.11930000  0.64280000  1
  O  O70  1  0.70500000  0.90420000  0.47620000  1
  O  O71  1  0.73220000  0.08990000  0.41080000  1
  O  O72  1  0.99150000  0.12850000  0.63040000  1
  O  O73  1  0.75300000  0.83230000  0.32480000  1
  O  O74  1  0.05440000  0.89000000  0.55000000  1
  O  O75  1  0.22880000  0.09580000  0.52380000  1
  O  O76  1  0.32140000  0.91010000  0.58920000  1
  O  O77  1  0.10840000  0.88070000  0.35720000  1
  O  O78  1  0.42820000  0.16770000  0.67520000  1
  O  O79  1  0.36110000  0.87150000  0.36960000  1
