# generated using pymatgen
data_Zn5H8(C9O7)2
_symmetry_space_group_name_H-M   'P 1'
_cell_length_a   17.02078201
_cell_length_b   17.02078201
_cell_length_c   17.02078201
_cell_angle_alpha   105.88583529
_cell_angle_beta   105.88583529
_cell_angle_gamma   116.90786386
_symmetry_Int_Tables_number   1
_chemical_formula_structural   Zn5H8(C9O7)2
_chemical_formula_sum   'Zn20 H32 C72 O56'
_cell_volume   3747.36639487
_cell_formula_units_Z   4
loop_
 _symmetry_equiv_pos_site_id
 _symmetry_equiv_pos_as_xyz
  1  'x, y, z'
loop_
 _atom_site_type_symbol
 _atom_site_label
 _atom_site_symmetry_multiplicity
 _atom_site_fract_x
 _atom_site_fract_y
 _atom_site_fract_z
 _atom_site_occupancy
  C  C0  1  0.96430000  0.65100000  0.73050000  1
  C  C1  1  0.46430000  0.73380000  0.31330000  1
  C  C2  1  0.52231000  0.21430000  0.76621000  1
  C  C3  1  0.02231000  0.25610000  0.30801000  1
  C  C4  1  0.60264000  0.27850000  0.75694000  1
  C  C5  1  0.10264000  0.34570000  0.32414000  1
  C  C6  1  0.53880000  0.21390000  0.85010000  1
  C  C7  1  0.03880000  0.18870000  0.32490000  1
  C  C8  1  0.78040000  0.41600000  0.82180000  1
  C  C9  1  0.28040000  0.45860000  0.36440000  1
  C  C10  1  0.69720000  0.34330000  0.83250000  1
  C  C11  1  0.19720000  0.36470000  0.35390000  1
  C  C12  1  0.63330000  0.27610000  0.92520000  1
  C  C13  1  0.13330000  0.20810000  0.35720000  1
  C  C14  1  0.71260000  0.34250000  0.91670000  1
  C  C15  1  0.21260000  0.29590000  0.37010000  1
  C  C16  1  0.13560000  0.75800000  0.98460000  1
  C  C17  1  0.63560000  0.65100000  0.37760000  1
  C  C18  1  0.65100000  0.27340000  0.01540000  1
  C  C19  1  0.15100000  0.13560000  0.37760000  1
  C  C20  1  0.15100000  0.46430000  0.73050000  1
  C  C21  1  0.65100000  0.92050000  0.68670000  1
  C  C22  1  0.20810000  0.85090000  0.07480000  1
  C  C23  1  0.70810000  0.63330000  0.35720000  1
  C  C24  1  0.77850000  0.10264000  0.75694000  1
  C  C25  1  0.27850000  0.52156000  0.67586000  1
  C  C26  1  0.29590000  0.92580000  0.08330000  1
  C  C27  1  0.79590000  0.71260000  0.37010000  1
  C  C28  1  0.91600000  0.28040000  0.82180000  1
  C  C29  1  0.41600000  0.59420000  0.63560000  1
  C  C30  1  0.71430000  0.02231000  0.76621000  1
  C  C31  1  0.21430000  0.44809000  0.69199000  1
  C  C32  1  0.18870000  0.86380000  0.14990000  1
  C  C33  1  0.68870000  0.53880000  0.32490000  1
  C  C34  1  0.84330000  0.19720000  0.83250000  1
  C  C35  1  0.34330000  0.51080000  0.64610000  1
  C  C36  1  0.36470000  0.01080000  0.16750000  1
  C  C37  1  0.86470000  0.69720000  0.35390000  1
  C  C38  1  0.71390000  0.03880000  0.85010000  1
  C  C39  1  0.21390000  0.36380000  0.67510000  1
  C  C40  1  0.25610000  0.94809000  0.23379000  1
  C  C41  1  0.75610000  0.52231000  0.30801000  1
  C  C42  1  0.45860000  0.09420000  0.17820000  1
  C  C43  1  0.95860000  0.78040000  0.36440000  1
  C  C44  1  0.84250000  0.21260000  0.91670000  1
  C  C45  1  0.34250000  0.42580000  0.62990000  1
  C  C46  1  0.34570000  0.02156000  0.24306000  1
  C  C47  1  0.84570000  0.60264000  0.32414000  1
  C  C48  1  0.77610000  0.13330000  0.92520000  1
  C  C49  1  0.27610000  0.35090000  0.64280000  1
  C  C50  1  0.73380000  0.42050000  0.26950000  1
  C  C51  1  0.23380000  0.96430000  0.31330000  1
  C  C52  1  0.25800000  0.63560000  0.98460000  1
  C  C53  1  0.75800000  0.77340000  0.62240000  1
  C  C54  1  0.77340000  0.15100000  0.01540000  1
  C  C55  1  0.27340000  0.25800000  0.62240000  1
  C  C56  1  0.42580000  0.79590000  0.08330000  1
  C  C57  1  0.92580000  0.84250000  0.62990000  1
  C  C58  1  0.35090000  0.70810000  0.07480000  1
  C  C59  1  0.85090000  0.77610000  0.64280000  1
  C  C60  1  0.51080000  0.86470000  0.16750000  1
  C  C61  1  0.01080000  0.84330000  0.64610000  1
  C  C62  1  0.59420000  0.95860000  0.17820000  1
  C  C63  1  0.09420000  0.91600000  0.63560000  1
  C  C64  1  0.36380000  0.68870000  0.14990000  1
  C  C65  1  0.86380000  0.71390000  0.67510000  1
  C  C66  1  0.52156000  0.84570000  0.24306000  1
  C  C67  1  0.02156000  0.77850000  0.67586000  1
  C  C68  1  0.44809000  0.75610000  0.23379000  1
  C  C69  1  0.94809000  0.71430000  0.69199000  1
  C  C70  1  0.92050000  0.23380000  0.26950000  1
  C  C71  1  0.42050000  0.15100000  0.68670000  1
  H  H72  1  0.59310000  0.27800000  0.70030000  1
  H  H73  1  0.09310000  0.39280000  0.31510000  1
  H  H74  1  0.87650000  0.37650000  0.59860000  1
  H  H75  1  0.37650000  0.77790000  0.50000000  1
  H  H76  1  0.80890000  0.30890000  0.61760000  1
  H  H77  1  0.30890000  0.69130000  0.50000000  1
  H  H78  1  0.48560000  0.17120000  0.85660000  1
  H  H79  1  0.98560000  0.12900000  0.31440000  1
  H  H80  1  0.77570000  0.38610000  0.96700000  1
  H  H81  1  0.27570000  0.30870000  0.38960000  1
  H  H82  1  0.77800000  0.09310000  0.70030000  1
  H  H83  1  0.27800000  0.57770000  0.68490000  1
  H  H84  1  0.30870000  0.91910000  0.03300000  1
  H  H85  1  0.80870000  0.77570000  0.38960000  1
  H  H86  1  0.12900000  0.81460000  0.14340000  1
  H  H87  1  0.62900000  0.48560000  0.31440000  1
  H  H88  1  0.67120000  0.98560000  0.85660000  1
  H  H89  1  0.17120000  0.31460000  0.68560000  1
  H  H90  1  0.88610000  0.27570000  0.96700000  1
  H  H91  1  0.38610000  0.41910000  0.61040000  1
  H  H92  1  0.39280000  0.07770000  0.29970000  1
  H  H93  1  0.89280000  0.59310000  0.31510000  1
  H  H94  1  0.41910000  0.80870000  0.03300000  1
  H  H95  1  0.91910000  0.88610000  0.61040000  1
  H  H96  1  0.31460000  0.62900000  0.14340000  1
  H  H97  1  0.81460000  0.67120000  0.68560000  1
  H  H98  1  0.69130000  0.19130000  0.38240000  1
  H  H99  1  0.19130000  0.80890000  0.50000000  1
  H  H100  1  0.77790000  0.27790000  0.40140000  1
  H  H101  1  0.27790000  0.87650000  0.50000000  1
  H  H102  1  0.57770000  0.89280000  0.29970000  1
  H  H103  1  0.07770000  0.77800000  0.68490000  1
  O  O104  1  0.91900000  0.62690000  0.77730000  1
  O  O105  1  0.41900000  0.64170000  0.29210000  1
  O  O106  1  0.02409000  0.63213000  0.71782000  1
  O  O107  1  0.52409000  0.80627000  0.39196000  1
  O  O108  1  0.77040000  0.40130000  0.74330000  1
  O  O109  1  0.27040000  0.52710000  0.36910000  1
  O  O110  1  0.86350000  0.36350000  0.63940000  1
  O  O111  1  0.36350000  0.72410000  0.50000000  1
  O  O112  1  0.85640000  0.49170000  0.89430000  1
  O  O113  1  0.35640000  0.46210000  0.36470000  1
  O  O114  1  0.15421000  0.75186000  0.91825000  1
  O  O115  1  0.65421000  0.73596000  0.40235000  1
  O  O116  1  0.02054000  0.52054000  0.82088000  1
  O  O117  1  0.52054000  0.69966000  0.50000000  1
  O  O118  1  0.13213000  0.52409000  0.71782000  1
  O  O119  1  0.63213000  0.91431000  0.60804000  1
  O  O120  1  0.05768000  0.69254000  0.98146000  1
  O  O121  1  0.55768000  0.57622000  0.36514000  1
  O  O122  1  0.90130000  0.27040000  0.74330000  1
  O  O123  1  0.40130000  0.65800000  0.63090000  1
  O  O124  1  0.57622000  0.21108000  0.01854000  1
  O  O125  1  0.07622000  0.05768000  0.36514000  1
  O  O126  1  0.46210000  0.09740000  0.10570000  1
  O  O127  1  0.96210000  0.85640000  0.36470000  1
  O  O128  1  0.73596000  0.33361000  0.08175000  1
  O  O129  1  0.23596000  0.15421000  0.40235000  1
  O  O130  1  0.12690000  0.41900000  0.77730000  1
  O  O131  1  0.62690000  0.84960000  0.70790000  1
  O  O132  1  0.64170000  0.34960000  0.22270000  1
  O  O133  1  0.14170000  0.91900000  0.29210000  1
  O  O134  1  0.25186000  0.65421000  0.91825000  1
  O  O135  1  0.75186000  0.83361000  0.59765000  1
  O  O136  1  0.99170000  0.35640000  0.89430000  1
  O  O137  1  0.49170000  0.59740000  0.63530000  1
  O  O138  1  0.19254000  0.55768000  0.98146000  1
  O  O139  1  0.69254000  0.71108000  0.63486000  1
  O  O140  1  0.52710000  0.15800000  0.25670000  1
  O  O141  1  0.02710000  0.77040000  0.36910000  1
  O  O142  1  0.71108000  0.07622000  0.01854000  1
  O  O143  1  0.21108000  0.19254000  0.63486000  1
  O  O144  1  0.80627000  0.41431000  0.28218000  1
  O  O145  1  0.30627000  0.02409000  0.39196000  1
  O  O146  1  0.69966000  0.19966000  0.17912000  1
  O  O147  1  0.19966000  0.02054000  0.50000000  1
  O  O148  1  0.83361000  0.23596000  0.08175000  1
  O  O149  1  0.33361000  0.25186000  0.59765000  1
  O  O150  1  0.59740000  0.96210000  0.10570000  1
  O  O151  1  0.09740000  0.99170000  0.63530000  1
  O  O152  1  0.72410000  0.22410000  0.36060000  1
  O  O153  1  0.22410000  0.86350000  0.50000000  1
  O  O154  1  0.65800000  0.02710000  0.25670000  1
  O  O155  1  0.15800000  0.90130000  0.63090000  1
  O  O156  1  0.91431000  0.30627000  0.28218000  1
  O  O157  1  0.41431000  0.13213000  0.60804000  1
  O  O158  1  0.84960000  0.14170000  0.22270000  1
  O  O159  1  0.34960000  0.12690000  0.70790000  1
  Zn  Zn160  1  0.89023000  0.46644000  0.73739000  1
  Zn  Zn161  1  0.39023000  0.65284000  0.42379000  1
  Zn  Zn162  1  0.95184000  0.57491000  0.86197000  1
  Zn  Zn163  1  0.45184000  0.58987000  0.37693000  1
  Zn  Zn164  1  0.13433000  0.63433000  0.81262000  1
  Zn  Zn165  1  0.63433000  0.82171000  0.50000000  1
  Zn  Zn166  1  0.96644000  0.39023000  0.73739000  1
  Zn  Zn167  1  0.46644000  0.72905000  0.57621000  1
  Zn  Zn168  1  0.07491000  0.45184000  0.86197000  1
  Zn  Zn169  1  0.57491000  0.71294000  0.62307000  1
  Zn  Zn170  1  0.58987000  0.21294000  0.13803000  1
  Zn  Zn171  1  0.08987000  0.95184000  0.37693000  1
  Zn  Zn172  1  0.65284000  0.22905000  0.26261000  1
  Zn  Zn173  1  0.15284000  0.89023000  0.42379000  1
  Zn  Zn174  1  0.82171000  0.32171000  0.18738000  1
  Zn  Zn175  1  0.32171000  0.13433000  0.50000000  1
  Zn  Zn176  1  0.71294000  0.08987000  0.13803000  1
  Zn  Zn177  1  0.21294000  0.07491000  0.62307000  1
  Zn  Zn178  1  0.72905000  0.15284000  0.26261000  1
  Zn  Zn179  1  0.22905000  0.96644000  0.57621000  1
