# generated using pymatgen
data_CaH2(C3O2)2
_symmetry_space_group_name_H-M   'P 1'
_cell_length_a   9.92610000
_cell_length_b   9.92610000
_cell_length_c   18.28730000
_cell_angle_alpha   95.77710000
_cell_angle_beta   103.31320000
_cell_angle_gamma   112.97400000
_symmetry_Int_Tables_number   1
_chemical_formula_structural   CaH2(C3O2)2
_chemical_formula_sum   'Ca6 H12 C36 O24'
_cell_volume   1577.37693292
_cell_formula_units_Z   6
loop_
 _symmetry_equiv_pos_site_id
 _symmetry_equiv_pos_as_xyz
  1  'x, y, z'
loop_
 _atom_site_type_symbol
 _atom_site_label
 _atom_site_symmetry_multiplicity
 _atom_site_fract_x
 _atom_site_fract_y
 _atom_site_fract_z
 _atom_site_occupancy
  Ca  Ca0  1  0.79374000  0.54374000  0.25000000  1
  Ca  Ca1  1  0.70992000  0.54972000  0.45128000  1
  Ca  Ca2  1  0.59844000  0.25864000  0.04872000  1
  Ca  Ca3  1  0.40156000  0.74136000  0.95128000  1
  Ca  Ca4  1  0.29008000  0.45028000  0.54872000  1
  Ca  Ca5  1  0.20626000  0.45626000  0.75000000  1
  H  H6  1  0.95200000  0.62740000  0.71640000  1
  H  H7  1  0.86920000  0.67880000  0.92000000  1
  H  H8  1  0.74120000  0.05080000  0.42000000  1
  H  H9  1  0.61440000  0.18020000  0.22480000  1
  H  H10  1  0.58900000  0.76440000  0.21640000  1
  H  H11  1  0.54460000  0.61040000  0.72480000  1
  H  H12  1  0.45540000  0.38960000  0.27520000  1
  H  H13  1  0.41100000  0.23560000  0.78360000  1
  H  H14  1  0.38560000  0.81980000  0.77520000  1
  H  H15  1  0.25880000  0.94920000  0.58000000  1
  H  H16  1  0.13080000  0.32120000  0.08000000  1
  H  H17  1  0.04800000  0.37260000  0.28360000  1
  C  C18  1  0.93477000  0.65436000  0.82413000  1
  C  C19  1  0.90762000  0.32640000  0.13462000  1
  C  C20  1  0.88675000  0.63240000  0.74475000  1
  C  C21  1  0.83657000  0.66186000  0.86663000  1
  C  C22  1  0.74107000  0.61780000  0.70707000  1
  C  C23  1  0.72130000  0.29100000  0.37370000  1
  C  C24  1  0.70477000  0.03006000  0.36663000  1
  C  C25  1  0.69178000  0.77300000  0.36538000  1
  C  C26  1  0.69023000  0.64380000  0.82923000  1
  C  C27  1  0.68554000  0.59310000  0.62064000  1
  C  C28  1  0.68543000  0.13900000  0.32923000  1
  C  C29  1  0.66977000  0.88936000  0.32413000  1
  C  C30  1  0.64263000  0.62210000  0.74973000  1
  C  C31  1  0.62763000  0.10710000  0.24973000  1
  C  C32  1  0.61235000  0.85800000  0.24475000  1
  C  C33  1  0.58927000  0.96600000  0.20707000  1
  C  C34  1  0.58270000  0.65240000  0.87370000  1
  C  C35  1  0.52754000  0.93510000  0.12064000  1
  C  C36  1  0.47246000  0.06490000  0.87936000  1
  C  C37  1  0.41730000  0.34760000  0.12630000  1
  C  C38  1  0.41073000  0.03400000  0.79293000  1
  C  C39  1  0.38765000  0.14200000  0.75525000  1
  C  C40  1  0.37237000  0.89290000  0.75027000  1
  C  C41  1  0.35737000  0.37790000  0.25027000  1
  C  C42  1  0.33023000  0.11064000  0.67587000  1
  C  C43  1  0.31457000  0.86100000  0.67077000  1
  C  C44  1  0.31446000  0.40690000  0.37936000  1
  C  C45  1  0.30977000  0.35620000  0.17077000  1
  C  C46  1  0.30822000  0.22700000  0.63462000  1
  C  C47  1  0.29523000  0.96994000  0.63337000  1
  C  C48  1  0.27870000  0.70900000  0.62630000  1
  C  C49  1  0.25893000  0.38220000  0.29293000  1
  C  C50  1  0.16343000  0.33814000  0.13337000  1
  C  C51  1  0.11325000  0.36760000  0.25525000  1
  C  C52  1  0.09238000  0.67360000  0.86538000  1
  C  C53  1  0.06523000  0.34564000  0.17587000  1
  O  O54  1  0.84890000  0.26143000  0.06533000  1
  O  O55  1  0.83719000  0.37613000  0.17152000  1
  O  O56  1  0.77964000  0.59620000  0.58424000  1
  O  O57  1  0.73616000  0.30901000  0.44497000  1
  O  O58  1  0.73212000  0.39560000  0.33852000  1
  O  O59  1  0.70461000  0.66567000  0.32848000  1
  O  O60  1  0.69610000  0.78357000  0.43467000  1
  O  O61  1  0.63596000  0.70881000  0.94497000  1
  O  O62  1  0.55708000  0.39360000  0.16148000  1
  O  O63  1  0.54983000  0.57199000  0.59022000  1
  O  O64  1  0.51823000  0.04039000  0.09022000  1
  O  O65  1  0.51196000  0.19540000  0.91576000  1
  O  O66  1  0.48804000  0.80460000  0.08424000  1
  O  O67  1  0.48177000  0.95961000  0.90978000  1
  O  O68  1  0.45017000  0.42801000  0.40978000  1
  O  O69  1  0.44292000  0.60640000  0.83852000  1
  O  O70  1  0.36404000  0.29119000  0.05503000  1
  O  O71  1  0.30390000  0.21643000  0.56533000  1
  O  O72  1  0.29539000  0.33433000  0.67152000  1
  O  O73  1  0.26788000  0.60440000  0.66148000  1
  O  O74  1  0.26384000  0.69099000  0.55503000  1
  O  O75  1  0.22036000  0.40380000  0.41576000  1
  O  O76  1  0.16281000  0.62387000  0.82848000  1
  O  O77  1  0.15110000  0.73857000  0.93467000  1
