# generated using pymatgen
data_Co2P3(O5F)2
_symmetry_space_group_name_H-M   'P 1'
_cell_length_a   9.84820000
_cell_length_b   12.91450000
_cell_length_c   12.91450000
_cell_angle_alpha   90.00000000
_cell_angle_beta   90.00000000
_cell_angle_gamma   90.00000000
_symmetry_Int_Tables_number   1
_chemical_formula_structural   Co2P3(O5F)2
_chemical_formula_sum   'Co8 P12 O40 F8'
_cell_volume   1642.52524420
_cell_formula_units_Z   4
loop_
 _symmetry_equiv_pos_site_id
 _symmetry_equiv_pos_as_xyz
  1  'x, y, z'
loop_
 _atom_site_type_symbol
 _atom_site_label
 _atom_site_symmetry_multiplicity
 _atom_site_fract_x
 _atom_site_fract_y
 _atom_site_fract_z
 _atom_site_occupancy
  Co  Co0  1  0.86882000  0.05480000  0.86381000  1
  Co  Co1  1  0.13118000  0.13619000  0.05480000  1
  Co  Co2  1  0.63118000  0.36381000  0.55480000  1
  Co  Co3  1  0.36882000  0.44520000  0.36381000  1
  Co  Co4  1  0.36882000  0.55480000  0.63619000  1
  Co  Co5  1  0.63118000  0.63619000  0.44520000  1
  Co  Co6  1  0.13118000  0.86381000  0.94520000  1
  Co  Co7  1  0.86882000  0.94520000  0.13619000  1
  P  P8  1  0.18370000  0.07235000  0.82414000  1
  P  P9  1  0.75000000  0.13480000  0.63480000  1
  P  P10  1  0.81630000  0.17586000  0.07235000  1
  P  P11  1  0.31630000  0.32414000  0.57235000  1
  P  P12  1  0.25000000  0.36520000  0.13480000  1
  P  P13  1  0.68370000  0.42765000  0.32414000  1
  P  P14  1  0.68370000  0.57235000  0.67586000  1
  P  P15  1  0.25000000  0.63480000  0.86520000  1
  P  P16  1  0.31630000  0.67586000  0.42765000  1
  P  P17  1  0.81630000  0.82414000  0.92765000  1
  P  P18  1  0.75000000  0.86520000  0.36520000  1
  P  P19  1  0.18370000  0.92765000  0.17586000  1
  O  O20  1  0.21460000  0.04280000  0.15430000  1
  O  O21  1  0.78590000  0.08170000  0.13810000  1
  O  O22  1  0.03690000  0.08570000  0.78940000  1
  O  O23  1  0.74950000  0.10950000  0.74510000  1
  O  O24  1  0.93010000  0.11110000  0.61170000  1
  O  O25  1  0.56990000  0.11170000  0.61110000  1
  O  O26  1  0.21410000  0.13810000  0.91830000  1
  O  O27  1  0.78540000  0.15430000  0.95720000  1
  O  O28  1  0.96310000  0.21060000  0.08570000  1
  O  O29  1  0.75050000  0.24510000  0.60950000  1
  O  O30  1  0.25050000  0.25490000  0.10950000  1
  O  O31  1  0.46310000  0.28940000  0.58570000  1
  O  O32  1  0.28540000  0.34570000  0.45720000  1
  O  O33  1  0.71410000  0.36190000  0.41830000  1
  O  O34  1  0.06990000  0.38830000  0.11110000  1
  O  O35  1  0.43010000  0.38890000  0.11170000  1
  O  O36  1  0.24950000  0.39050000  0.24510000  1
  O  O37  1  0.53690000  0.41430000  0.28940000  1
  O  O38  1  0.28590000  0.41830000  0.63810000  1
  O  O39  1  0.71460000  0.45720000  0.65430000  1
  O  O40  1  0.71460000  0.54280000  0.34570000  1
  O  O41  1  0.28590000  0.58170000  0.36190000  1
  O  O42  1  0.53690000  0.58570000  0.71060000  1
  O  O43  1  0.24950000  0.60950000  0.75490000  1
  O  O44  1  0.43010000  0.61110000  0.88830000  1
  O  O45  1  0.06990000  0.61170000  0.88890000  1
  O  O46  1  0.71410000  0.63810000  0.58170000  1
  O  O47  1  0.28540000  0.65430000  0.54280000  1
  O  O48  1  0.46310000  0.71060000  0.41430000  1
  O  O49  1  0.25050000  0.74510000  0.89050000  1
  O  O50  1  0.75050000  0.75490000  0.39050000  1
  O  O51  1  0.96310000  0.78940000  0.91430000  1
  O  O52  1  0.78540000  0.84570000  0.04280000  1
  O  O53  1  0.21410000  0.86190000  0.08170000  1
  O  O54  1  0.56990000  0.88830000  0.38890000  1
  O  O55  1  0.93010000  0.88890000  0.38830000  1
  O  O56  1  0.74950000  0.89050000  0.25490000  1
  O  O57  1  0.03690000  0.91430000  0.21060000  1
  O  O58  1  0.78590000  0.91830000  0.86190000  1
  O  O59  1  0.21460000  0.95720000  0.84570000  1
  F  F60  1  0.28020000  0.10460000  0.73630000  1
  F  F61  1  0.21980000  0.23630000  0.60460000  1
  F  F62  1  0.71980000  0.26370000  0.10460000  1
  F  F63  1  0.78020000  0.39540000  0.23630000  1
  F  F64  1  0.78020000  0.60460000  0.76370000  1
  F  F65  1  0.71980000  0.73630000  0.89540000  1
  F  F66  1  0.21980000  0.76370000  0.39540000  1
  F  F67  1  0.28020000  0.89540000  0.26370000  1
