# generated using pymatgen
data_CuH6C13O4
_symmetry_space_group_name_H-M   'P 1'
_cell_length_a   17.07924127
_cell_length_b   17.07924127
_cell_length_c   17.07924127
_cell_angle_alpha   65.29881261
_cell_angle_beta   65.29881261
_cell_angle_gamma   65.29881261
_symmetry_Int_Tables_number   1
_chemical_formula_structural   CuH6C13O4
_chemical_formula_sum   'Cu6 H36 C78 O24'
_cell_volume   3929.37236107
_cell_formula_units_Z   6
loop_
 _symmetry_equiv_pos_site_id
 _symmetry_equiv_pos_as_xyz
  1  'x, y, z'
loop_
 _atom_site_type_symbol
 _atom_site_label
 _atom_site_symmetry_multiplicity
 _atom_site_fract_x
 _atom_site_fract_y
 _atom_site_fract_z
 _atom_site_occupancy
  C  C0  1  0.56490000  0.03515000  0.03515000  1
  C  C1  1  0.50570000  0.97425000  0.97425000  1
  C  C2  1  0.44640000  0.90910000  0.90910000  1
  C  C3  1  0.33244000  0.52354000  0.06344000  1
  C  C4  1  0.33244000  0.06344000  0.52354000  1
  C  C5  1  0.45358000  0.81818000  0.94778000  1
  C  C6  1  0.45358000  0.94778000  0.81818000  1
  C  C7  1  0.76583000  0.89723000  0.46363000  1
  C  C8  1  0.76583000  0.46363000  0.89723000  1
  C  C9  1  0.81818000  0.94778000  0.45358000  1
  C  C10  1  0.81818000  0.45358000  0.94778000  1
  C  C11  1  0.46363000  0.76583000  0.89723000  1
  C  C12  1  0.46363000  0.89723000  0.76583000  1
  C  C13  1  0.06344000  0.33244000  0.52354000  1
  C  C14  1  0.06344000  0.52354000  0.33244000  1
  C  C15  1  0.94015000  0.94015000  0.66340000  1
  C  C16  1  0.94015000  0.66340000  0.94015000  1
  C  C17  1  0.65070000  0.99345000  0.99345000  1
  C  C18  1  0.59280000  0.93175000  0.93175000  1
  C  C19  1  0.46831000  0.80696000  0.80696000  1
  C  C20  1  0.80696000  0.80696000  0.46831000  1
  C  C21  1  0.80696000  0.46831000  0.80696000  1
  C  C22  1  0.93175000  0.93175000  0.59280000  1
  C  C23  1  0.93175000  0.59280000  0.93175000  1
  C  C24  1  0.99345000  0.99345000  0.65070000  1
  C  C25  1  0.99345000  0.65070000  0.99345000  1
  C  C26  1  0.47646000  0.66756000  0.93656000  1
  C  C27  1  0.47646000  0.93656000  0.66756000  1
  C  C28  1  0.05222000  0.18182000  0.54642000  1
  C  C29  1  0.05222000  0.54642000  0.18182000  1
  C  C30  1  0.10277000  0.23417000  0.53637000  1
  C  C31  1  0.10277000  0.53637000  0.23417000  1
  C  C32  1  0.66340000  0.94015000  0.94015000  1
  C  C33  1  0.90910000  0.90910000  0.44640000  1
  C  C34  1  0.90910000  0.44640000  0.90910000  1
  C  C35  1  0.97425000  0.97425000  0.50570000  1
  C  C36  1  0.97425000  0.50570000  0.97425000  1
  C  C37  1  0.03515000  0.03515000  0.56490000  1
  C  C38  1  0.03515000  0.56490000  0.03515000  1
  C  C39  1  0.96485000  0.96485000  0.43510000  1
  C  C40  1  0.96485000  0.43510000  0.96485000  1
  C  C41  1  0.02575000  0.02575000  0.49430000  1
  C  C42  1  0.02575000  0.49430000  0.02575000  1
  C  C43  1  0.09090000  0.09090000  0.55360000  1
  C  C44  1  0.09090000  0.55360000  0.09090000  1
  C  C45  1  0.33660000  0.05985000  0.05985000  1
  C  C46  1  0.89723000  0.76583000  0.46363000  1
  C  C47  1  0.89723000  0.46363000  0.76583000  1
  C  C48  1  0.94778000  0.81818000  0.45358000  1
  C  C49  1  0.94778000  0.45358000  0.81818000  1
  C  C50  1  0.52354000  0.33244000  0.06344000  1
  C  C51  1  0.52354000  0.06344000  0.33244000  1
  C  C52  1  0.00655000  0.00655000  0.34930000  1
  C  C53  1  0.00655000  0.34930000  0.00655000  1
  C  C54  1  0.06825000  0.06825000  0.40720000  1
  C  C55  1  0.06825000  0.40720000  0.06825000  1
  C  C56  1  0.19304000  0.19304000  0.53169000  1
  C  C57  1  0.19304000  0.53169000  0.19304000  1
  C  C58  1  0.53169000  0.19304000  0.19304000  1
  C  C59  1  0.40720000  0.06825000  0.06825000  1
  C  C60  1  0.34930000  0.00655000  0.00655000  1
  C  C61  1  0.05985000  0.05985000  0.33660000  1
  C  C62  1  0.05985000  0.33660000  0.05985000  1
  C  C63  1  0.93656000  0.47646000  0.66756000  1
  C  C64  1  0.93656000  0.66756000  0.47646000  1
  C  C65  1  0.53637000  0.10277000  0.23417000  1
  C  C66  1  0.53637000  0.23417000  0.10277000  1
  C  C67  1  0.18182000  0.05222000  0.54642000  1
  C  C68  1  0.18182000  0.54642000  0.05222000  1
  C  C69  1  0.23417000  0.10277000  0.53637000  1
  C  C70  1  0.23417000  0.53637000  0.10277000  1
  C  C71  1  0.54642000  0.05222000  0.18182000  1
  C  C72  1  0.54642000  0.18182000  0.05222000  1
  C  C73  1  0.66756000  0.47646000  0.93656000  1
  C  C74  1  0.66756000  0.93656000  0.47646000  1
  C  C75  1  0.55360000  0.09090000  0.09090000  1
  C  C76  1  0.49430000  0.02575000  0.02575000  1
  C  C77  1  0.43510000  0.96485000  0.96485000  1
  Cu  Cu78  1  0.07548000  0.50226667  0.50226333  1
  Cu  Cu79  1  0.50226333  0.50226667  0.07548000  1
  Cu  Cu80  1  0.50226333  0.07548333  0.50226333  1
  Cu  Cu81  1  0.49773667  0.49773333  0.92452000  1
  Cu  Cu82  1  0.49773667  0.92451667  0.49773667  1
  Cu  Cu83  1  0.92452000  0.49773667  0.49773333  1
  H  H84  1  0.45170000  0.79120000  0.00820000  1
  H  H85  1  0.45170000  0.00820000  0.79120000  1
  H  H86  1  0.79120000  0.00820000  0.45170000  1
  H  H87  1  0.79120000  0.45170000  0.00820000  1
  H  H88  1  0.91090000  0.91090000  0.72160000  1
  H  H89  1  0.91090000  0.72160000  0.91090000  1
  H  H90  1  0.99180000  0.20880000  0.54830000  1
  H  H91  1  0.99180000  0.54830000  0.20880000  1
  H  H92  1  0.89695000  0.89695000  0.60270000  1
  H  H93  1  0.89695000  0.60270000  0.89695000  1
  H  H94  1  0.77290000  0.77290000  0.47490000  1
  H  H95  1  0.77290000  0.47490000  0.77290000  1
  H  H96  1  0.99910000  0.99910000  0.69970000  1
  H  H97  1  0.99910000  0.69970000  0.99910000  1
  H  H98  1  0.27840000  0.08910000  0.08910000  1
  H  H99  1  0.69970000  0.99910000  0.99910000  1
  H  H100  1  0.47490000  0.77290000  0.77290000  1
  H  H101  1  0.60270000  0.89695000  0.89695000  1
  H  H102  1  0.39730000  0.10305000  0.10305000  1
  H  H103  1  0.52510000  0.22710000  0.22710000  1
  H  H104  1  0.30030000  0.00090000  0.00090000  1
  H  H105  1  0.72160000  0.91090000  0.91090000  1
  H  H106  1  0.00090000  0.00090000  0.30030000  1
  H  H107  1  0.00090000  0.30030000  0.00090000  1
  H  H108  1  0.22710000  0.22710000  0.52510000  1
  H  H109  1  0.22710000  0.52510000  0.22710000  1
  H  H110  1  0.10305000  0.10305000  0.39730000  1
  H  H111  1  0.10305000  0.39730000  0.10305000  1
  H  H112  1  0.00820000  0.79120000  0.45170000  1
  H  H113  1  0.00820000  0.45170000  0.79120000  1
  H  H114  1  0.08910000  0.08910000  0.27840000  1
  H  H115  1  0.08910000  0.27840000  0.08910000  1
  H  H116  1  0.20880000  0.99180000  0.54830000  1
  H  H117  1  0.20880000  0.54830000  0.99180000  1
  H  H118  1  0.54830000  0.99180000  0.20880000  1
  H  H119  1  0.54830000  0.20880000  0.99180000  1
  O  O120  1  0.98455000  0.36815000  0.51815000  1
  O  O121  1  0.98455000  0.51815000  0.36815000  1
  O  O122  1  0.37343000  0.52193000  0.11043000  1
  O  O123  1  0.37343000  0.11043000  0.52193000  1
  O  O124  1  0.36815000  0.51815000  0.98455000  1
  O  O125  1  0.36815000  0.98455000  0.51815000  1
  O  O126  1  0.48185000  0.63185000  0.01545000  1
  O  O127  1  0.48185000  0.01545000  0.63185000  1
  O  O128  1  0.11043000  0.37343000  0.52193000  1
  O  O129  1  0.11043000  0.52193000  0.37343000  1
  O  O130  1  0.47807000  0.62657000  0.88957000  1
  O  O131  1  0.47807000  0.88957000  0.62657000  1
  O  O132  1  0.52193000  0.37343000  0.11043000  1
  O  O133  1  0.52193000  0.11043000  0.37343000  1
  O  O134  1  0.88957000  0.47807000  0.62657000  1
  O  O135  1  0.88957000  0.62657000  0.47807000  1
  O  O136  1  0.51815000  0.36815000  0.98455000  1
  O  O137  1  0.51815000  0.98455000  0.36815000  1
  O  O138  1  0.63185000  0.48185000  0.01545000  1
  O  O139  1  0.63185000  0.01545000  0.48185000  1
  O  O140  1  0.62657000  0.47807000  0.88957000  1
  O  O141  1  0.62657000  0.88957000  0.47807000  1
  O  O142  1  0.01545000  0.48185000  0.63185000  1
  O  O143  1  0.01545000  0.63185000  0.48185000  1
