# generated using pymatgen
data_CoHC4O3
_symmetry_space_group_name_H-M   'P 1'
_cell_length_a   6.76770000
_cell_length_b   15.10740000
_cell_length_c   15.10739244
_cell_angle_alpha   117.81080530
_cell_angle_beta   98.58769451
_cell_angle_gamma   98.58780000
_symmetry_Int_Tables_number   1
_chemical_formula_structural   CoHC4O3
_chemical_formula_sum   'Co6 H6 C24 O18'
_cell_volume   1307.84920296
_cell_formula_units_Z   6
loop_
 _symmetry_equiv_pos_site_id
 _symmetry_equiv_pos_as_xyz
  1  'x, y, z'
loop_
 _atom_site_type_symbol
 _atom_site_label
 _atom_site_symmetry_multiplicity
 _atom_site_fract_x
 _atom_site_fract_y
 _atom_site_fract_z
 _atom_site_occupancy
  Co  Co0  1  0.39660000  0.57700000  0.28080000  1
  Co  Co1  1  0.81960000  0.42300000  0.70380000  1
  Co  Co2  1  0.81960000  0.70380000  0.42300000  1
  Co  Co3  1  0.11580000  0.29620000  0.71920000  1
  Co  Co4  1  0.11580000  0.71920000  0.29620000  1
  Co  Co5  1  0.39660000  0.28080000  0.57700000  1
  H  H6  1  0.52665000  0.00000000  0.42595000  1
  H  H7  1  0.73240000  0.48060000  0.48060000  1
  H  H8  1  0.25180000  0.51940000  1.00000000  1
  H  H9  1  0.10070000  0.57405000  0.57405000  1
  H  H10  1  0.52665000  0.42595000  1.00000000  1
  H  H11  1  0.25180000  0.00000000  0.51940000  1
  C  C12  1  0.50530000  0.56290000  0.46400000  1
  C  C13  1  0.94240000  0.43710000  0.90110000  1
  C  C14  1  0.59070000  0.50205000  0.50205000  1
  C  C15  1  0.08865000  0.49795000  1.00000000  1
  C  C16  1  0.56020000  0.81460000  0.35560000  1
  C  C17  1  0.74560000  0.18540000  0.54100000  1
  C  C18  1  0.68905000  1.00000000  0.44215000  1
  C  C19  1  0.73300000  0.90690000  0.41210000  1
  C  C20  1  0.82610000  0.09310000  0.50520000  1
  C  C21  1  0.94240000  0.90110000  0.43710000  1
  C  C22  1  0.04130000  0.09890000  0.53600000  1
  C  C23  1  0.74560000  0.54100000  0.18540000  1
  C  C24  1  0.20460000  0.45900000  0.64440000  1
  C  C25  1  0.08865000  0.00000000  0.49795000  1
  C  C26  1  0.24690000  0.55785000  0.55785000  1
  C  C27  1  0.68905000  0.44215000  0.00000000  1
  C  C28  1  0.82610000  0.50520000  0.09310000  1
  C  C29  1  0.32090000  0.49480000  0.58790000  1
  C  C30  1  0.20460000  0.64440000  0.45900000  1
  C  C31  1  0.56020000  0.35560000  0.81460000  1
  C  C32  1  0.32090000  0.58790000  0.49480000  1
  C  C33  1  0.73300000  0.41210000  0.90690000  1
  C  C34  1  0.04130000  0.53600000  0.09890000  1
  C  C35  1  0.50530000  0.46400000  0.56290000  1
  O  O36  1  0.38460000  0.82740000  0.32840000  1
  O  O37  1  0.55720000  0.17260000  0.50100000  1
  O  O38  1  0.58210000  0.58650000  0.40380000  1
  O  O39  1  0.99560000  0.41350000  0.81730000  1
  O  O40  1  0.59380000  0.72830000  0.34140000  1
  O  O41  1  0.86550000  0.27170000  0.61310000  1
  O  O42  1  0.55720000  0.50100000  0.17260000  1
  O  O43  1  0.05620000  0.49900000  0.67160000  1
  O  O44  1  0.05620000  0.67160000  0.49900000  1
  O  O45  1  0.38460000  0.32840000  0.82740000  1
  O  O46  1  0.99560000  0.81730000  0.41350000  1
  O  O47  1  0.17830000  0.18270000  0.59620000  1
  O  O48  1  0.86550000  0.61310000  0.27170000  1
  O  O49  1  0.25240000  0.38690000  0.65860000  1
  O  O50  1  0.25240000  0.65860000  0.38690000  1
  O  O51  1  0.59380000  0.34140000  0.72830000  1
  O  O52  1  0.17830000  0.59620000  0.18270000  1
  O  O53  1  0.58210000  0.40380000  0.58650000  1
