# generated using pymatgen
data_ZnH3C5N4
_symmetry_space_group_name_H-M   'P 1'
_cell_length_a   9.57000000
_cell_length_b   11.64890000
_cell_length_c   11.64888684
_cell_angle_alpha   80.28594689
_cell_angle_beta   65.74694372
_cell_angle_gamma   65.74690000
_symmetry_Int_Tables_number   1
_chemical_formula_structural   ZnH3C5N4
_chemical_formula_sum   'Zn4 H12 C20 N16'
_cell_volume   1079.50156545
_cell_formula_units_Z   4
loop_
 _symmetry_equiv_pos_site_id
 _symmetry_equiv_pos_as_xyz
  1  'x, y, z'
loop_
 _atom_site_type_symbol
 _atom_site_label
 _atom_site_symmetry_multiplicity
 _atom_site_fract_x
 _atom_site_fract_y
 _atom_site_fract_z
 _atom_site_occupancy
  Zn  Zn0  1  0.30292000  0.83255000  0.47529000  1
  Zn  Zn1  1  0.86453000  0.52471000  0.83255000  1
  Zn  Zn2  1  0.22179000  0.47529000  0.16745000  1
  Zn  Zn3  1  0.61076000  0.16745000  0.52471000  1
  H  H4  1  0.26260000  0.33630000  0.65930000  1
  H  H5  1  0.58790000  0.82020000  0.23080000  1
  H  H6  1  0.07810000  0.65930000  0.66370000  1
  H  H7  1  0.40110000  0.34070000  0.33630000  1
  H  H8  1  0.25820000  0.66370000  0.34070000  1
  H  H9  1  0.56850000  0.43390000  0.94950000  1
  H  H10  1  0.99760000  0.05050000  0.43390000  1
  H  H11  1  0.59190000  0.76920000  0.82020000  1
  H  H12  1  0.63890000  0.17980000  0.76920000  1
  H  H13  1  0.18130000  0.23080000  0.17980000  1
  H  H14  1  0.48200000  0.94950000  0.56610000  1
  H  H15  1  0.95190000  0.56610000  0.05050000  1
  C  C16  1  0.44390000  0.00560000  0.50860000  1
  C  C17  1  0.39260000  0.16650000  0.39270000  1
  C  C18  1  0.55360000  0.76340000  0.21340000  1
  C  C19  1  0.33230000  0.08450000  0.37330000  1
  C  C20  1  0.36460000  0.28130000  0.32730000  1
  C  C21  1  0.58320000  0.62670000  0.08450000  1
  C  C22  1  0.97320000  0.71870000  0.67270000  1
  C  C23  1  0.35410000  0.67270000  0.28130000  1
  C  C24  1  0.44090000  0.60730000  0.16650000  1
  C  C25  1  0.95180000  0.83350000  0.60730000  1
  C  C26  1  0.55050000  0.49140000  0.00560000  1
  C  C27  1  0.23300000  0.21340000  0.23660000  1
  C  C28  1  0.95810000  0.99440000  0.49140000  1
  C  C29  1  0.68300000  0.78660000  0.76340000  1
  C  C30  1  0.79010000  0.91550000  0.62670000  1
  C  C31  1  0.53040000  0.23660000  0.78660000  1
  C  C32  1  0.29440000  0.37330000  0.91550000  1
  C  C33  1  0.21470000  0.39270000  0.83350000  1
  C  C34  1  0.04750000  0.50860000  0.99440000  1
  C  C35  1  0.30810000  0.32730000  0.71870000  1
  N  N36  1  0.46540000  0.11570000  0.47770000  1
  N  N37  1  0.05690000  0.47770000  0.88430000  1
  N  N38  1  0.36360000  0.98390000  0.45010000  1
  N  N39  1  0.64290000  0.70300000  0.10460000  1
  N  N40  1  0.41540000  0.74880000  0.30160000  1
  N  N41  1  0.65250000  0.54990000  0.98390000  1
  N  N42  1  0.83580000  0.69840000  0.74880000  1
  N  N43  1  0.05880000  0.88430000  0.52230000  1
  N  N44  1  0.25250000  0.10460000  0.29700000  1
  N  N45  1  0.41890000  0.52230000  0.11570000  1
  N  N46  1  0.28300000  0.30160000  0.25120000  1
  N  N47  1  0.65410000  0.89540000  0.70300000  1
  N  N48  1  0.79760000  0.01610000  0.54990000  1
  N  N49  1  0.45050000  0.29700000  0.89540000  1
  N  N50  1  0.18630000  0.45010000  0.01610000  1
  N  N51  1  0.46580000  0.25120000  0.69840000  1
