# generated using pymatgen
data_Cu4MoH16C26(S2N7)2
_symmetry_space_group_name_H-M   'P 1'
_cell_length_a   13.65700000
_cell_length_b   13.65700000
_cell_length_c   28.34806132
_cell_angle_alpha   103.93852403
_cell_angle_beta   103.93852403
_cell_angle_gamma   90.00000000
_symmetry_Int_Tables_number   1
_chemical_formula_structural   Cu4MoH16C26(S2N7)2
_chemical_formula_sum   'Cu16 Mo4 H64 C104 S16 N56'
_cell_volume   4971.05502997
_cell_formula_units_Z   4
loop_
 _symmetry_equiv_pos_site_id
 _symmetry_equiv_pos_as_xyz
  1  'x, y, z'
loop_
 _atom_site_type_symbol
 _atom_site_label
 _atom_site_symmetry_multiplicity
 _atom_site_fract_x
 _atom_site_fract_y
 _atom_site_fract_z
 _atom_site_occupancy
  C  C0  1  0.94647000  0.96317000  0.87314000  1
  C  C1  1  0.44647000  0.90997000  0.87314000  1
  C  C2  1  0.07333000  0.59003000  0.12686000  1
  C  C3  1  0.57333000  0.53683000  0.12686000  1
  C  C4  1  0.50180000  0.46940000  0.91680000  1
  C  C5  1  0.00180000  0.44740000  0.91680000  1
  C  C6  1  0.58500000  0.05260000  0.08320000  1
  C  C7  1  0.08500000  0.03060000  0.08320000  1
  C  C8  1  0.20899000  0.09039000  0.17458000  1
  C  C9  1  0.70899000  0.08419000  0.17458000  1
  C  C10  1  0.03441000  0.41581000  0.82542000  1
  C  C11  1  0.53441000  0.40961000  0.82542000  1
  C  C12  1  0.18270000  0.05450000  0.08620000  1
  C  C13  1  0.68270000  0.03170000  0.08620000  1
  C  C14  1  0.09650000  0.46830000  0.91380000  1
  C  C15  1  0.59650000  0.44550000  0.91380000  1
  C  C16  1  0.77319000  0.66469000  0.24698000  1
  C  C17  1  0.52621000  0.91771000  0.75302000  1
  C  C18  1  0.24693000  0.08543000  0.13326000  1
  C  C19  1  0.74693000  0.04783000  0.13326000  1
  C  C20  1  0.11367000  0.45217000  0.86674000  1
  C  C21  1  0.61367000  0.41457000  0.86674000  1
  C  C22  1  0.21911000  0.04371000  0.04022000  1
  C  C23  1  0.71911000  0.99651000  0.04022000  1
  C  C24  1  0.17889000  0.50349000  0.95978000  1
  C  C25  1  0.67889000  0.45629000  0.95978000  1
  C  C26  1  0.33531000  0.52621000  0.25302000  1
  C  C27  1  0.08229000  0.77319000  0.74698000  1
  C  C28  1  0.53683000  0.55353000  0.62686000  1
  C  C29  1  0.03683000  0.07333000  0.62686000  1
  C  C30  1  0.90997000  0.42667000  0.37314000  1
  C  C31  1  0.40997000  0.94647000  0.37314000  1
  C  C32  1  0.45629000  0.28089000  0.45978000  1
  C  C33  1  0.95629000  0.17889000  0.45978000  1
  C  C34  1  0.99651000  0.32111000  0.54022000  1
  C  C35  1  0.49651000  0.21911000  0.54022000  1
  C  C36  1  0.41457000  0.25307000  0.36674000  1
  C  C37  1  0.91457000  0.11367000  0.36674000  1
  C  C38  1  0.04783000  0.38633000  0.63326000  1
  C  C39  1  0.54783000  0.24693000  0.63326000  1
  C  C40  1  0.44550000  0.31730000  0.41380000  1
  C  C41  1  0.94550000  0.09650000  0.41380000  1
  C  C42  1  0.03170000  0.40350000  0.58620000  1
  C  C43  1  0.53170000  0.18270000  0.58620000  1
  C  C44  1  0.03060000  0.99820000  0.58320000  1
  C  C45  1  0.53060000  0.58500000  0.58320000  1
  C  C46  1  0.44740000  0.91500000  0.41680000  1
  C  C47  1  0.94740000  0.50180000  0.41680000  1
  C  C48  1  0.40961000  0.29101000  0.32542000  1
  C  C49  1  0.90961000  0.03441000  0.32542000  1
  C  C50  1  0.08419000  0.46559000  0.67458000  1
  C  C51  1  0.58419000  0.20899000  0.67458000  1
  C  C52  1  0.09039000  0.96559000  0.67458000  1
  C  C53  1  0.59039000  0.70899000  0.67458000  1
  C  C54  1  0.41581000  0.79101000  0.32542000  1
  C  C55  1  0.91581000  0.53441000  0.32542000  1
  C  C56  1  0.46940000  0.41500000  0.41680000  1
  C  C57  1  0.96940000  0.00180000  0.41680000  1
  C  C58  1  0.05260000  0.49820000  0.58320000  1
  C  C59  1  0.55260000  0.08500000  0.58320000  1
  C  C60  1  0.05450000  0.90350000  0.58620000  1
  C  C61  1  0.55450000  0.68270000  0.58620000  1
  C  C62  1  0.46830000  0.81730000  0.41380000  1
  C  C63  1  0.96830000  0.59650000  0.41380000  1
  C  C64  1  0.08543000  0.88633000  0.63326000  1
  C  C65  1  0.58543000  0.74693000  0.63326000  1
  C  C66  1  0.45217000  0.75307000  0.36674000  1
  C  C67  1  0.95217000  0.61367000  0.36674000  1
  C  C68  1  0.04371000  0.82111000  0.54022000  1
  C  C69  1  0.54371000  0.71911000  0.54022000  1
  C  C70  1  0.50349000  0.78089000  0.45978000  1
  C  C71  1  0.00349000  0.67889000  0.45978000  1
  C  C72  1  0.96317000  0.92667000  0.37314000  1
  C  C73  1  0.46317000  0.44647000  0.37314000  1
  C  C74  1  0.59003000  0.05353000  0.62686000  1
  C  C75  1  0.09003000  0.57333000  0.62686000  1
  C  C76  1  0.66469000  0.47379000  0.74698000  1
  C  C77  1  0.91771000  0.22681000  0.25302000  1
  C  C78  1  0.28089000  0.00349000  0.95978000  1
  C  C79  1  0.78089000  0.95629000  0.95978000  1
  C  C80  1  0.32111000  0.54371000  0.04022000  1
  C  C81  1  0.82111000  0.49651000  0.04022000  1
  C  C82  1  0.25307000  0.95217000  0.86674000  1
  C  C83  1  0.75307000  0.91457000  0.86674000  1
  C  C84  1  0.38633000  0.58543000  0.13326000  1
  C  C85  1  0.88633000  0.54783000  0.13326000  1
  C  C86  1  0.22681000  0.33531000  0.75302000  1
  C  C87  1  0.47379000  0.08229000  0.24698000  1
  C  C88  1  0.31730000  0.96830000  0.91380000  1
  C  C89  1  0.81730000  0.94550000  0.91380000  1
  C  C90  1  0.40350000  0.55450000  0.08620000  1
  C  C91  1  0.90350000  0.53170000  0.08620000  1
  C  C92  1  0.29101000  0.91581000  0.82542000  1
  C  C93  1  0.79101000  0.90961000  0.82542000  1
  C  C94  1  0.46559000  0.59039000  0.17458000  1
  C  C95  1  0.96559000  0.58419000  0.17458000  1
  C  C96  1  0.99820000  0.55260000  0.08320000  1
  C  C97  1  0.49820000  0.53060000  0.08320000  1
  C  C98  1  0.91500000  0.96940000  0.91680000  1
  C  C99  1  0.41500000  0.94740000  0.91680000  1
  C  C100  1  0.55353000  0.09003000  0.12686000  1
  C  C101  1  0.05353000  0.03683000  0.12686000  1
  C  C102  1  0.42667000  0.46317000  0.87314000  1
  C  C103  1  0.92667000  0.40997000  0.87314000  1
  Cu  Cu104  1  0.94169000  0.94591000  0.76400000  1
  Cu  Cu105  1  0.44169000  0.81809000  0.76400000  1
  Cu  Cu106  1  0.17769000  0.68191000  0.23600000  1
  Cu  Cu107  1  0.67769000  0.55409000  0.23600000  1
  Cu  Cu108  1  0.55409000  0.55831000  0.73600000  1
  Cu  Cu109  1  0.05409000  0.17769000  0.73600000  1
  Cu  Cu110  1  0.81809000  0.32231000  0.26400000  1
  Cu  Cu111  1  0.31809000  0.94169000  0.26400000  1
  Cu  Cu112  1  0.94591000  0.82231000  0.26400000  1
  Cu  Cu113  1  0.44591000  0.44169000  0.26400000  1
  Cu  Cu114  1  0.68191000  0.05831000  0.73600000  1
  Cu  Cu115  1  0.18191000  0.67769000  0.73600000  1
  Cu  Cu116  1  0.55831000  0.18191000  0.23600000  1
  Cu  Cu117  1  0.05831000  0.05409000  0.23600000  1
  Cu  Cu118  1  0.32231000  0.44591000  0.76400000  1
  Cu  Cu119  1  0.82231000  0.31809000  0.76400000  1
  H  H120  1  0.48630000  0.48640000  0.94780000  1
  H  H121  1  0.98630000  0.46140000  0.94780000  1
  H  H122  1  0.53850000  0.03860000  0.05220000  1
  H  H123  1  0.03850000  0.01360000  0.05220000  1
  H  H124  1  0.01280000  0.98460000  0.87600000  1
  H  H125  1  0.51280000  0.89140000  0.87600000  1
  H  H126  1  0.13680000  0.60860000  0.12400000  1
  H  H127  1  0.63680000  0.51540000  0.12400000  1
  H  H128  1  0.25290000  0.11250000  0.20620000  1
  H  H129  1  0.75290000  0.09370000  0.20620000  1
  H  H130  1  0.04670000  0.40630000  0.79380000  1
  H  H131  1  0.54670000  0.38750000  0.79380000  1
  H  H132  1  0.51540000  0.48720000  0.62400000  1
  H  H133  1  0.01540000  0.13680000  0.62400000  1
  H  H134  1  0.89140000  0.36320000  0.37600000  1
  H  H135  1  0.39140000  0.01280000  0.37600000  1
  H  H136  1  0.39860000  0.18500000  0.36300000  1
  H  H137  1  0.89860000  0.17800000  0.36300000  1
  H  H138  1  0.03560000  0.32200000  0.63700000  1
  H  H139  1  0.53560000  0.31500000  0.63700000  1
  H  H140  1  0.01360000  0.01370000  0.55220000  1
  H  H141  1  0.51360000  0.53850000  0.55220000  1
  H  H142  1  0.46140000  0.96150000  0.44780000  1
  H  H143  1  0.96140000  0.48630000  0.44780000  1
  H  H144  1  0.38750000  0.24710000  0.29380000  1
  H  H145  1  0.88750000  0.04670000  0.29380000  1
  H  H146  1  0.09370000  0.45330000  0.70620000  1
  H  H147  1  0.59370000  0.25290000  0.70620000  1
  H  H148  1  0.31500000  0.10140000  0.13700000  1
  H  H149  1  0.81500000  0.03560000  0.13700000  1
  H  H150  1  0.17800000  0.46440000  0.86300000  1
  H  H151  1  0.67800000  0.39860000  0.86300000  1
  H  H152  1  0.18500000  0.96440000  0.86300000  1
  H  H153  1  0.68500000  0.89860000  0.86300000  1
  H  H154  1  0.32200000  0.60140000  0.13700000  1
  H  H155  1  0.82200000  0.53560000  0.13700000  1
  H  H156  1  0.11250000  0.95330000  0.70620000  1
  H  H157  1  0.61250000  0.75290000  0.70620000  1
  H  H158  1  0.40630000  0.74710000  0.29380000  1
  H  H159  1  0.90630000  0.54670000  0.29380000  1
  H  H160  1  0.48640000  0.46150000  0.44780000  1
  H  H161  1  0.98640000  0.98630000  0.44780000  1
  H  H162  1  0.03860000  0.51370000  0.55220000  1
  H  H163  1  0.53860000  0.03850000  0.55220000  1
  H  H164  1  0.10140000  0.82200000  0.63700000  1
  H  H165  1  0.60140000  0.81500000  0.63700000  1
  H  H166  1  0.46440000  0.68500000  0.36300000  1
  H  H167  1  0.96440000  0.67800000  0.36300000  1
  H  H168  1  0.98460000  0.86320000  0.37600000  1
  H  H169  1  0.48460000  0.51280000  0.37600000  1
  H  H170  1  0.60860000  0.98720000  0.62400000  1
  H  H171  1  0.10860000  0.63680000  0.62400000  1
  H  H172  1  0.24710000  0.90630000  0.79380000  1
  H  H173  1  0.74710000  0.88750000  0.79380000  1
  H  H174  1  0.45330000  0.61250000  0.20620000  1
  H  H175  1  0.95330000  0.59370000  0.20620000  1
  H  H176  1  0.48720000  0.10860000  0.12400000  1
  H  H177  1  0.98720000  0.01540000  0.12400000  1
  H  H178  1  0.36320000  0.48460000  0.87600000  1
  H  H179  1  0.86320000  0.39140000  0.87600000  1
  H  H180  1  0.01370000  0.53860000  0.05220000  1
  H  H181  1  0.51370000  0.51360000  0.05220000  1
  H  H182  1  0.96150000  0.98640000  0.94780000  1
  H  H183  1  0.46150000  0.96140000  0.94780000  1
  Mo  Mo184  1  0.37500000  0.62500000  0.75000000  1
  Mo  Mo185  1  0.87500000  0.12500000  0.75000000  1
  Mo  Mo186  1  0.12500000  0.87500000  0.25000000  1
  Mo  Mo187  1  0.62500000  0.37500000  0.25000000  1
  N  N188  1  0.44227000  0.43457000  0.82814000  1
  N  N189  1  0.94227000  0.39357000  0.82814000  1
  N  N190  1  0.61413000  0.10643000  0.17186000  1
  N  N191  1  0.11413000  0.06543000  0.17186000  1
  N  N192  1  0.27319000  0.58229000  0.24698000  1
  N  N193  1  0.02621000  0.83531000  0.75302000  1
  N  N194  1  0.14977000  0.02677000  0.99654000  1
  N  N195  1  0.64977000  0.96977000  0.99654000  1
  N  N196  1  0.15323000  0.53023000  0.00346000  1
  N  N197  1  0.65323000  0.47323000  0.00346000  1
  N  N198  1  0.18220000  0.00590000  0.95500000  1
  N  N199  1  0.68220000  0.94910000  0.95500000  1
  N  N200  1  0.22720000  0.55090000  0.04500000  1
  N  N201  1  0.72720000  0.49410000  0.04500000  1
  N  N202  1  0.83531000  0.72681000  0.25302000  1
  N  N203  1  0.58229000  0.97379000  0.74698000  1
  N  N204  1  0.47323000  0.35023000  0.50346000  1
  N  N205  1  0.97323000  0.15323000  0.50346000  1
  N  N206  1  0.96977000  0.34677000  0.49654000  1
  N  N207  1  0.46977000  0.14977000  0.49654000  1
  N  N208  1  0.49410000  0.31780000  0.54500000  1
  N  N209  1  0.99410000  0.22720000  0.54500000  1
  N  N210  1  0.94910000  0.27280000  0.45500000  1
  N  N211  1  0.44910000  0.18220000  0.45500000  1
  N  N212  1  0.06543000  0.05773000  0.67186000  1
  N  N213  1  0.56543000  0.61413000  0.67186000  1
  N  N214  1  0.39357000  0.88587000  0.32814000  1
  N  N215  1  0.89357000  0.44227000  0.32814000  1
  N  N216  1  0.43457000  0.38587000  0.32814000  1
  N  N217  1  0.93457000  0.94227000  0.32814000  1
  N  N218  1  0.10643000  0.55773000  0.67186000  1
  N  N219  1  0.60643000  0.11413000  0.67186000  1
  N  N220  1  0.00590000  0.77280000  0.45500000  1
  N  N221  1  0.50590000  0.68220000  0.45500000  1
  N  N222  1  0.55090000  0.81780000  0.54500000  1
  N  N223  1  0.05090000  0.72720000  0.54500000  1
  N  N224  1  0.02677000  0.84677000  0.49654000  1
  N  N225  1  0.52677000  0.64977000  0.49654000  1
  N  N226  1  0.53023000  0.85023000  0.50346000  1
  N  N227  1  0.03023000  0.65323000  0.50346000  1
  N  N228  1  0.16469000  0.27319000  0.74698000  1
  N  N229  1  0.41771000  0.02621000  0.25302000  1
  N  N230  1  0.31780000  0.05090000  0.04500000  1
  N  N231  1  0.81780000  0.99410000  0.04500000  1
  N  N232  1  0.27280000  0.50590000  0.95500000  1
  N  N233  1  0.77280000  0.44910000  0.95500000  1
  N  N234  1  0.35023000  0.03023000  0.00346000  1
  N  N235  1  0.85023000  0.97323000  0.00346000  1
  N  N236  1  0.34677000  0.52677000  0.99654000  1
  N  N237  1  0.84677000  0.46977000  0.99654000  1
  N  N238  1  0.72681000  0.41771000  0.75302000  1
  N  N239  1  0.97379000  0.16469000  0.24698000  1
  N  N240  1  0.05773000  0.60643000  0.17186000  1
  N  N241  1  0.55773000  0.56543000  0.17186000  1
  N  N242  1  0.88587000  0.93457000  0.82814000  1
  N  N243  1  0.38587000  0.89357000  0.82814000  1
  S  S244  1  0.39586000  0.47319000  0.70328000  1
  S  S245  1  0.89586000  0.23009000  0.70328000  1
  S  S246  1  0.69258000  0.26991000  0.29672000  1
  S  S247  1  0.19258000  0.02681000  0.29672000  1
  S  S248  1  0.02681000  0.10414000  0.79672000  1
  S  S249  1  0.52681000  0.69258000  0.79672000  1
  S  S250  1  0.23009000  0.80742000  0.20328000  1
  S  S251  1  0.73009000  0.39586000  0.20328000  1
  S  S252  1  0.47319000  0.30742000  0.20328000  1
  S  S253  1  0.97319000  0.89586000  0.20328000  1
  S  S254  1  0.26991000  0.60414000  0.79672000  1
  S  S255  1  0.76991000  0.19258000  0.79672000  1
  S  S256  1  0.10414000  0.76991000  0.29672000  1
  S  S257  1  0.60414000  0.52681000  0.29672000  1
  S  S258  1  0.80742000  0.97319000  0.70328000  1
  S  S259  1  0.30742000  0.73009000  0.70328000  1
