# generated using pymatgen
data_AgH12(C3N)6
_symmetry_space_group_name_H-M   'P 1'
_cell_length_a   13.80924290
_cell_length_b   13.80924290
_cell_length_c   24.58933571
_cell_angle_alpha   102.10910182
_cell_angle_beta   101.80067705
_cell_angle_gamma   105.20731704
_symmetry_Int_Tables_number   1
_chemical_formula_structural   AgH12(C3N)6
_chemical_formula_sum   'Ag8 H96 C144 N48'
_cell_volume   4253.52273567
_cell_formula_units_Z   8
loop_
 _symmetry_equiv_pos_site_id
 _symmetry_equiv_pos_as_xyz
  1  'x, y, z'
loop_
 _atom_site_type_symbol
 _atom_site_label
 _atom_site_symmetry_multiplicity
 _atom_site_fract_x
 _atom_site_fract_y
 _atom_site_fract_z
 _atom_site_occupancy
  Ag  Ag0  1  0.61333000  0.93463000  0.63278000  1
  Ag  Ag1  1  0.69815000  0.51945000  0.13278000  1
  Ag  Ag2  1  0.42322000  0.69929000  0.63319000  1
  Ag  Ag3  1  0.93390000  0.70997000  0.13319000  1
  Ag  Ag4  1  0.57678000  0.30071000  0.36681000  1
  Ag  Ag5  1  0.06610000  0.29003000  0.86681000  1
  Ag  Ag6  1  0.38667000  0.06537000  0.36722000  1
  Ag  Ag7  1  0.30185000  0.48055000  0.86722000  1
  C  C8  1  0.07510000  0.97880000  0.90610000  1
  C  C9  1  0.92730000  0.33100000  0.40610000  1
  C  C10  1  0.11850000  0.10680000  0.99470000  1
  C  C11  1  0.88790000  0.37620000  0.49470000  1
  C  C12  1  0.35950000  0.30670000  0.99760000  1
  C  C13  1  0.69090000  0.13810000  0.49760000  1
  C  C14  1  0.37910000  0.94200000  0.61750000  1
  C  C15  1  0.67550000  0.73840000  0.11750000  1
  C  C16  1  0.34320000  0.18730000  0.90970000  1
  C  C17  1  0.40650000  0.87390000  0.53300000  1
  C  C18  1  0.65910000  0.62650000  0.03300000  1
  C  C19  1  0.72240000  0.06650000  0.40970000  1
  C  C20  1  0.10640000  0.00580000  0.96520000  1
  C  C21  1  0.95940000  0.35880000  0.46520000  1
  C  C22  1  0.21200000  0.63610000  0.53670000  1
  C  C23  1  0.90060000  0.82470000  0.03670000  1
  C  C24  1  0.17360000  0.68270000  0.62190000  1
  C  C25  1  0.93920000  0.94830000  0.12190000  1
  C  C26  1  0.36040000  0.20870000  0.96810000  1
  C  C27  1  0.75940000  0.10770000  0.46810000  1
  C  C28  1  0.12630000  0.93150000  0.99940000  1
  C  C29  1  0.06790000  0.37310000  0.49940000  1
  C  C30  1  0.38000000  0.13310000  0.00070000  1
  C  C31  1  0.86760000  0.12070000  0.50070000  1
  C  C32  1  0.46670000  0.87740000  0.75770000  1
  C  C33  1  0.88030000  0.79100000  0.25770000  1
  C  C34  1  0.63410000  0.31060000  0.02670000  1
  C  C35  1  0.71610000  0.89260000  0.52670000  1
  C  C36  1  0.22180000  0.04450000  0.17930000  1
  C  C37  1  0.13480000  0.45750000  0.67930000  1
  C  C38  1  0.18090000  0.40860000  0.58650000  1
  C  C39  1  0.17790000  0.90560000  0.08650000  1
  C  C40  1  0.23340000  0.37650000  0.50550000  1
  C  C41  1  0.12900000  0.77210000  0.00550000  1
  C  C42  1  0.29510000  0.34050000  0.41740000  1
  C  C43  1  0.07690000  0.62230000  0.91740000  1
  C  C44  1  0.51380000  0.64880000  0.52160000  1
  C  C45  1  0.87280000  0.50780000  0.02160000  1
  C  C46  1  0.68930000  0.55820000  0.25890000  1
  C  C47  1  0.70070000  0.06960000  0.75890000  1
  C  C48  1  0.50080000  0.92010000  0.81650000  1
  C  C49  1  0.89640000  0.81570000  0.31650000  1
  C  C50  1  0.61890000  0.20970000  0.99560000  1
  C  C51  1  0.78590000  0.87670000  0.49560000  1
  C  C52  1  0.31460000  0.82040000  0.91420000  1
  C  C53  1  0.09380000  0.09960000  0.41420000  1
  C  C54  1  0.37710000  0.97070000  0.00360000  1
  C  C55  1  0.03290000  0.12650000  0.50360000  1
  C  C56  1  0.43480000  0.10200000  0.08600000  1
  C  C57  1  0.98400000  0.15120000  0.58600000  1
  C  C58  1  0.26360000  0.08030000  0.23870000  1
  C  C59  1  0.15840000  0.47510000  0.73870000  1
  C  C60  1  0.21960000  0.94700000  0.15060000  1
  C  C61  1  0.20360000  0.43100000  0.65060000  1
  C  C62  1  0.31530000  0.36340000  0.47590000  1
  C  C63  1  0.11250000  0.66060000  0.97590000  1
  C  C64  1  0.50100000  0.24890000  0.17670000  1
  C  C65  1  0.92780000  0.17570000  0.67670000  1
  C  C66  1  0.37140000  0.32280000  0.39140000  1
  C  C67  1  0.06860000  0.52000000  0.89140000  1
  C  C68  1  0.70590000  0.57820000  0.31790000  1
  C  C69  1  0.73970000  0.11200000  0.81790000  1
  C  C70  1  0.58570000  0.63000000  0.49170000  1
  C  C71  1  0.86170000  0.40600000  0.99170000  1
  C  C72  1  0.35720000  0.85960000  0.97320000  1
  C  C73  1  0.11360000  0.11600000  0.47320000  1
  C  C74  1  0.30090000  0.71720000  0.88790000  1
  C  C75  1  0.17070000  0.08700000  0.38790000  1
  C  C76  1  0.47870000  0.14360000  0.14970000  1
  C  C77  1  0.00610000  0.17100000  0.64970000  1
  C  C78  1  0.53950000  0.28480000  0.23550000  1
  C  C79  1  0.95070000  0.19600000  0.73550000  1
  C  C80  1  0.46050000  0.71520000  0.76450000  1
  C  C81  1  0.04930000  0.80400000  0.26450000  1
  C  C82  1  0.52130000  0.85640000  0.85030000  1
  C  C83  1  0.99390000  0.82900000  0.35030000  1
  C  C84  1  0.69910000  0.28280000  0.11210000  1
  C  C85  1  0.82930000  0.91300000  0.61210000  1
  C  C86  1  0.64280000  0.14040000  0.02680000  1
  C  C87  1  0.88640000  0.88400000  0.52680000  1
  C  C88  1  0.41430000  0.37000000  0.50830000  1
  C  C89  1  0.13830000  0.59400000  0.00830000  1
  C  C90  1  0.29410000  0.42180000  0.68210000  1
  C  C91  1  0.26030000  0.88800000  0.18210000  1
  C  C92  1  0.62860000  0.67720000  0.60860000  1
  C  C93  1  0.93140000  0.48000000  0.10860000  1
  C  C94  1  0.49900000  0.75110000  0.82330000  1
  C  C95  1  0.07220000  0.82430000  0.32330000  1
  C  C96  1  0.68470000  0.63660000  0.52410000  1
  C  C97  1  0.88750000  0.33940000  0.02410000  1
  C  C98  1  0.78040000  0.05300000  0.84940000  1
  C  C99  1  0.79640000  0.56900000  0.34940000  1
  C  C100  1  0.73640000  0.91970000  0.76130000  1
  C  C101  1  0.84160000  0.52490000  0.26130000  1
  C  C102  1  0.56520000  0.89800000  0.91400000  1
  C  C103  1  0.01600000  0.84880000  0.41400000  1
  C  C104  1  0.62290000  0.02930000  0.99640000  1
  C  C105  1  0.96710000  0.87350000  0.49640000  1
  C  C106  1  0.68540000  0.17960000  0.08580000  1
  C  C107  1  0.90620000  0.90040000  0.58580000  1
  C  C108  1  0.38110000  0.79030000  0.00440000  1
  C  C109  1  0.21410000  0.12330000  0.50440000  1
  C  C110  1  0.49920000  0.07990000  0.18350000  1
  C  C111  1  0.10360000  0.18430000  0.68350000  1
  C  C112  1  0.31070000  0.44180000  0.74110000  1
  C  C113  1  0.29930000  0.93040000  0.24110000  1
  C  C114  1  0.48620000  0.35120000  0.47840000  1
  C  C115  1  0.12720000  0.49220000  0.97840000  1
  C  C116  1  0.70490000  0.65950000  0.58260000  1
  C  C117  1  0.92310000  0.37770000  0.08260000  1
  C  C118  1  0.76660000  0.62350000  0.49450000  1
  C  C119  1  0.87100000  0.22790000  0.99450000  1
  C  C120  1  0.81910000  0.59140000  0.41350000  1
  C  C121  1  0.82210000  0.09440000  0.91350000  1
  C  C122  1  0.77820000  0.95550000  0.82070000  1
  C  C123  1  0.86520000  0.54250000  0.32070000  1
  C  C124  1  0.36590000  0.68940000  0.97330000  1
  C  C125  1  0.28390000  0.10740000  0.47330000  1
  C  C126  1  0.53330000  0.12260000  0.24230000  1
  C  C127  1  0.11970000  0.20900000  0.74230000  1
  C  C128  1  0.62000000  0.86690000  0.99930000  1
  C  C129  1  0.13240000  0.87930000  0.49930000  1
  C  C130  1  0.87370000  0.06850000  0.00060000  1
  C  C131  1  0.93210000  0.62690000  0.50060000  1
  C  C132  1  0.63960000  0.79130000  0.03190000  1
  C  C133  1  0.24060000  0.89230000  0.53190000  1
  C  C134  1  0.82640000  0.31730000  0.37810000  1
  C  C135  1  0.06080000  0.05170000  0.87810000  1
  C  C136  1  0.78800000  0.36390000  0.46330000  1
  C  C137  1  0.09940000  0.17530000  0.96330000  1
  C  C138  1  0.89360000  0.99420000  0.03480000  1
  C  C139  1  0.04060000  0.64120000  0.53480000  1
  C  C140  1  0.59350000  0.12610000  0.46700000  1
  C  C141  1  0.65680000  0.81270000  0.09030000  1
  C  C142  1  0.27760000  0.93350000  0.59030000  1
  C  C143  1  0.34090000  0.37350000  0.96700000  1
  C  C144  1  0.62090000  0.05800000  0.38250000  1
  C  C145  1  0.32450000  0.26160000  0.88250000  1
  C  C146  1  0.64050000  0.69330000  0.00240000  1
  C  C147  1  0.30910000  0.86190000  0.50240000  1
  C  C148  1  0.88150000  0.89320000  0.00530000  1
  C  C149  1  0.11210000  0.62380000  0.50530000  1
  C  C150  1  0.92490000  0.02120000  0.09390000  1
  C  C151  1  0.07270000  0.66900000  0.59390000  1
  H  H152  1  0.06340000  0.91070000  0.88490000  1
  H  H153  1  0.97420000  0.32150000  0.38490000  1
  H  H154  1  0.13890000  0.12850000  0.03500000  1
  H  H155  1  0.90650000  0.39610000  0.53500000  1
  H  H156  1  0.37160000  0.32530000  0.03750000  1
  H  H157  1  0.71220000  0.16590000  0.53750000  1
  H  H158  1  0.40340000  0.97080000  0.65740000  1
  H  H159  1  0.68660000  0.75400000  0.15740000  1
  H  H160  1  0.34390000  0.12360000  0.88830000  1
  H  H161  1  0.76470000  0.04440000  0.38830000  1
  H  H162  1  0.45120000  0.85430000  0.51250000  1
  H  H163  1  0.65820000  0.56130000  0.01250000  1
  H  H164  1  0.19460000  0.70590000  0.66210000  1
  H  H165  1  0.95620000  0.96750000  0.16210000  1
  H  H166  1  0.25960000  0.62400000  0.51640000  1
  H  H167  1  0.89240000  0.75680000  0.01640000  1
  H  H168  1  0.61500000  0.35520000  0.00620000  1
  H  H169  1  0.65100000  0.89120000  0.50620000  1
  H  H170  1  0.19540000  0.08610000  0.15910000  1
  H  H171  1  0.07300000  0.46370000  0.65910000  1
  H  H172  1  0.45630000  0.92210000  0.73520000  1
  H  H173  1  0.81310000  0.77890000  0.23520000  1
  H  H174  1  0.23050000  0.33670000  0.39500000  1
  H  H175  1  0.05830000  0.66450000  0.89500000  1
  H  H176  1  0.62750000  0.56300000  0.23770000  1
  H  H177  1  0.67470000  0.11020000  0.73770000  1
  H  H178  1  0.44820000  0.64490000  0.50030000  1
  H  H179  1  0.85540000  0.55210000  0.00030000  1
  H  H180  1  0.29520000  0.86300000  0.89220000  1
  H  H181  1  0.02920000  0.09700000  0.39220000  1
  H  H182  1  0.48990000  0.29440000  0.15490000  1
  H  H183  1  0.86050000  0.16500000  0.65490000  1
  H  H184  1  0.50990000  0.99010000  0.83300000  1
  H  H185  1  0.84290000  0.82310000  0.33300000  1
  H  H186  1  0.59370000  0.18820000  0.95550000  1
  H  H187  1  0.76730000  0.86180000  0.45550000  1
  H  H188  1  0.26450000  0.14650000  0.25780000  1
  H  H189  1  0.11130000  0.49330000  0.75780000  1
  H  H190  1  0.65800000  0.59730000  0.33590000  1
  H  H191  1  0.73860000  0.17790000  0.83590000  1
  H  H192  1  0.35590000  0.30640000  0.35130000  1
  H  H193  1  0.04490000  0.49540000  0.85130000  1
  H  H194  1  0.56850000  0.61360000  0.45150000  1
  H  H195  1  0.83790000  0.38300000  0.95150000  1
  H  H196  1  0.27250000  0.69220000  0.84810000  1
  H  H197  1  0.15590000  0.07560000  0.34810000  1
  H  H198  1  0.55750000  0.35600000  0.25290000  1
  H  H199  1  0.89690000  0.19540000  0.75290000  1
  H  H200  1  0.44250000  0.64400000  0.74710000  1
  H  H201  1  0.10310000  0.80460000  0.24710000  1
  H  H202  1  0.72750000  0.30780000  0.15190000  1
  H  H203  1  0.84410000  0.92440000  0.65190000  1
  H  H204  1  0.43150000  0.38640000  0.54850000  1
  H  H205  1  0.16210000  0.61700000  0.04850000  1
  H  H206  1  0.64410000  0.69360000  0.64870000  1
  H  H207  1  0.95510000  0.50460000  0.14870000  1
  H  H208  1  0.34200000  0.40270000  0.66410000  1
  H  H209  1  0.26140000  0.82210000  0.16410000  1
  H  H210  1  0.73550000  0.85350000  0.74220000  1
  H  H211  1  0.88870000  0.50670000  0.24220000  1
  H  H212  1  0.40630000  0.81180000  0.04450000  1
  H  H213  1  0.23270000  0.13820000  0.54450000  1
  H  H214  1  0.49010000  0.00990000  0.16700000  1
  H  H215  1  0.15710000  0.17690000  0.66700000  1
  H  H216  1  0.51010000  0.70560000  0.84510000  1
  H  H217  1  0.13950000  0.83500000  0.34510000  1
  H  H218  1  0.70480000  0.13700000  0.10780000  1
  H  H219  1  0.97080000  0.90300000  0.60780000  1
  H  H220  1  0.55180000  0.35510000  0.49970000  1
  H  H221  1  0.14460000  0.44790000  0.99970000  1
  H  H222  1  0.37250000  0.43700000  0.76230000  1
  H  H223  1  0.32530000  0.88980000  0.26230000  1
  H  H224  1  0.76950000  0.66330000  0.60500000  1
  H  H225  1  0.94170000  0.33550000  0.10500000  1
  H  H226  1  0.54370000  0.07790000  0.26480000  1
  H  H227  1  0.18690000  0.22110000  0.76480000  1
  H  H228  1  0.80460000  0.91390000  0.84090000  1
  H  H229  1  0.92700000  0.53630000  0.34090000  1
  H  H230  1  0.38500000  0.64480000  0.99380000  1
  H  H231  1  0.34900000  0.10880000  0.49380000  1
  H  H232  1  0.74040000  0.37600000  0.48360000  1
  H  H233  1  0.10760000  0.24320000  0.98360000  1
  H  H234  1  0.80540000  0.29410000  0.33790000  1
  H  H235  1  0.04380000  0.03250000  0.83790000  1
  H  H236  1  0.54880000  0.14570000  0.48750000  1
  H  H237  1  0.34180000  0.43870000  0.98750000  1
  H  H238  1  0.65610000  0.87640000  0.11170000  1
  H  H239  1  0.23530000  0.95560000  0.61170000  1
  H  H240  1  0.59660000  0.02920000  0.34260000  1
  H  H241  1  0.31340000  0.24600000  0.84260000  1
  H  H242  1  0.62840000  0.67470000  0.96250000  1
  H  H243  1  0.28780000  0.83410000  0.46250000  1
  H  H244  1  0.86110000  0.87150000  0.96500000  1
  H  H245  1  0.09350000  0.60390000  0.46500000  1
  H  H246  1  0.93660000  0.08930000  0.11510000  1
  H  H247  1  0.02580000  0.67850000  0.61510000  1
  N  N248  1  0.44300000  0.91130000  0.58970000  1
  N  N249  1  0.67840000  0.64670000  0.08970000  1
  N  N250  1  0.24370000  0.66420000  0.59430000  1
  N  N251  1  0.93010000  0.85060000  0.09430000  1
  N  N252  1  0.16030000  0.97220000  0.05690000  1
  N  N253  1  0.08470000  0.39660000  0.55690000  1
  N  N254  1  0.13730000  0.35910000  0.47200000  1
  N  N255  1  0.11290000  0.83470000  0.97200000  1
  N  N256  1  0.35890000  0.03370000  0.97120000  1
  N  N257  1  0.93750000  0.11230000  0.47120000  1
  N  N258  1  0.41830000  0.17140000  0.05770000  1
  N  N259  1  0.88630000  0.13940000  0.55770000  1
  N  N260  1  0.44720000  0.77820000  0.73040000  1
  N  N261  1  0.95220000  0.78320000  0.23040000  1
  N  N262  1  0.67380000  0.34830000  0.08330000  1
  N  N263  1  0.73500000  0.90950000  0.58330000  1
  N  N264  1  0.25910000  0.40160000  0.56310000  1
  N  N265  1  0.16150000  0.80400000  0.06310000  1
  N  N266  1  0.53370000  0.67180000  0.57870000  1
  N  N267  1  0.90690000  0.54500000  0.07870000  1
  N  N268  1  0.69730000  0.97630000  0.73000000  1
  N  N269  1  0.75370000  0.53270000  0.23000000  1
  N  N270  1  0.41480000  0.00120000  0.06160000  1
  N  N271  1  0.06040000  0.14680000  0.56160000  1
  N  N272  1  0.58520000  0.99880000  0.93840000  1
  N  N273  1  0.93960000  0.85320000  0.43840000  1
  N  N274  1  0.30270000  0.02370000  0.27000000  1
  N  N275  1  0.24630000  0.46730000  0.77000000  1
  N  N276  1  0.46630000  0.32820000  0.42130000  1
  N  N277  1  0.09310000  0.45500000  0.92130000  1
  N  N278  1  0.74090000  0.59840000  0.43690000  1
  N  N279  1  0.83850000  0.19600000  0.93690000  1
  N  N280  1  0.32620000  0.65170000  0.91670000  1
  N  N281  1  0.26500000  0.09050000  0.41670000  1
  N  N282  1  0.55280000  0.22180000  0.26960000  1
  N  N283  1  0.04780000  0.21680000  0.76960000  1
  N  N284  1  0.58170000  0.82860000  0.94230000  1
  N  N285  1  0.11370000  0.86060000  0.44230000  1
  N  N286  1  0.64110000  0.96630000  0.02880000  1
  N  N287  1  0.06250000  0.88770000  0.52880000  1
  N  N288  1  0.86270000  0.64090000  0.52800000  1
  N  N289  1  0.88710000  0.16530000  0.02800000  1
  N  N290  1  0.83970000  0.02780000  0.94310000  1
  N  N291  1  0.91530000  0.60340000  0.44310000  1
  N  N292  1  0.75630000  0.33580000  0.40570000  1
  N  N293  1  0.06990000  0.14940000  0.90570000  1
  N  N294  1  0.55700000  0.08870000  0.41030000  1
  N  N295  1  0.32160000  0.35330000  0.91030000  1
