# generated using pymatgen
data_Cu2H(C2N3)3
_symmetry_space_group_name_H-M   'P 1'
_cell_length_a   9.62540000
_cell_length_b   13.03360033
_cell_length_c   15.76022688
_cell_angle_alpha   68.54275527
_cell_angle_beta   72.21957648
_cell_angle_gamma   68.33042594
_symmetry_Int_Tables_number   1
_chemical_formula_structural   Cu2H(C2N3)3
_chemical_formula_sum   'Cu8 H4 C24 N36'
_cell_volume   1676.62139028
_cell_formula_units_Z   4
loop_
 _symmetry_equiv_pos_site_id
 _symmetry_equiv_pos_as_xyz
  1  'x, y, z'
loop_
 _atom_site_type_symbol
 _atom_site_label
 _atom_site_symmetry_multiplicity
 _atom_site_fract_x
 _atom_site_fract_y
 _atom_site_fract_z
 _atom_site_occupancy
  C  C0  1  0.70330000  0.87910000  0.04210000  1
  C  C1  1  0.37550000  0.37910000  0.54210000  1
  C  C2  1  0.99460000  0.21880000  0.50860000  1
  C  C3  1  0.27800000  0.71880000  0.00860000  1
  C  C4  1  0.88080000  0.04230000  0.67990000  1
  C  C5  1  0.39700000  0.54230000  0.17990000  1
  C  C6  1  0.99180000  0.10720000  0.50720000  1
  C  C7  1  0.39380000  0.60720000  0.00720000  1
  C  C8  1  0.94020000  0.02510000  0.58570000  1
  C  C9  1  0.44900000  0.52510000  0.08570000  1
  C  C10  1  0.05050000  0.08000000  0.42260000  1
  C  C11  1  0.44690000  0.58000000  0.92260000  1
  C  C12  1  0.94950000  0.92000000  0.57740000  1
  C  C13  1  0.55310000  0.42000000  0.07740000  1
  C  C14  1  0.05980000  0.97490000  0.41430000  1
  C  C15  1  0.55100000  0.47490000  0.91430000  1
  C  C16  1  0.00820000  0.89280000  0.49280000  1
  C  C17  1  0.60620000  0.39280000  0.99280000  1
  C  C18  1  0.11920000  0.95770000  0.32010000  1
  C  C19  1  0.60300000  0.45770000  0.82010000  1
  C  C20  1  0.00540000  0.78120000  0.49140000  1
  C  C21  1  0.72200000  0.28120000  0.99140000  1
  C  C22  1  0.29670000  0.12090000  0.95790000  1
  C  C23  1  0.62450000  0.62090000  0.45790000  1
  Cu  Cu24  1  0.66176000  0.29439000  0.62207000  1
  Cu  Cu25  1  0.42178000  0.79439000  0.12207000  1
  Cu  Cu26  1  0.86175000  0.95035000  0.96609000  1
  Cu  Cu27  1  0.22181000  0.45035000  0.46609000  1
  Cu  Cu28  1  0.13825000  0.04965000  0.03391000  1
  Cu  Cu29  1  0.77819000  0.54965000  0.53391000  1
  Cu  Cu30  1  0.33824000  0.70561000  0.37793000  1
  Cu  Cu31  1  0.57822000  0.20561000  0.87793000  1
  H  H32  1  0.08450000  0.13410000  0.37010000  1
  H  H33  1  0.41130000  0.63410000  0.87010000  1
  H  H34  1  0.91550000  0.86590000  0.62990000  1
  H  H35  1  0.58870000  0.36590000  0.12990000  1
  N  N36  1  0.60180000  0.84390000  0.07490000  1
  N  N37  1  0.47940000  0.34390000  0.57490000  1
  N  N38  1  0.92977000  0.38906000  0.51920000  1
  N  N39  1  0.16197000  0.88906000  0.01920000  1
  N  N40  1  0.75283000  0.10934000  0.79380000  1
  N  N41  1  0.34403000  0.60934000  0.29380000  1
  N  N42  1  0.07569000  0.36062000  0.48260000  1
  N  N43  1  0.08109000  0.86062000  0.98260000  1
  N  N44  1  0.87485000  0.30110000  0.53680000  1
  N  N45  1  0.28725000  0.80110000  0.03680000  1
  N  N46  1  0.77245000  0.13400000  0.70130000  1
  N  N47  1  0.39225000  0.63400000  0.20130000  1
  N  N48  1  0.84572000  0.00796000  0.82560000  1
  N  N49  1  0.32072000  0.50796000  0.32560000  1
  N  N50  1  0.12087000  0.25276000  0.47450000  1
  N  N51  1  0.15187000  0.75276000  0.97450000  1
  N  N52  1  0.92676000  0.96208000  0.75600000  1
  N  N53  1  0.35516000  0.46208000  0.25600000  1
  N  N54  1  0.07324000  0.03792000  0.24400000  1
  N  N55  1  0.64484000  0.53792000  0.74400000  1
  N  N56  1  0.87913000  0.74724000  0.52550000  1
  N  N57  1  0.84813000  0.24724000  0.02550000  1
  N  N58  1  0.15428000  0.99204000  0.17440000  1
  N  N59  1  0.67928000  0.49204000  0.67440000  1
  N  N60  1  0.22755000  0.86600000  0.29870000  1
  N  N61  1  0.60775000  0.36600000  0.79870000  1
  N  N62  1  0.12515000  0.69890000  0.46320000  1
  N  N63  1  0.71275000  0.19890000  0.96320000  1
  N  N64  1  0.92431000  0.63938000  0.51740000  1
  N  N65  1  0.91891000  0.13938000  0.01740000  1
  N  N66  1  0.24717000  0.89066000  0.20620000  1
  N  N67  1  0.65597000  0.39066000  0.70620000  1
  N  N68  1  0.07023000  0.61094000  0.48080000  1
  N  N69  1  0.83803000  0.11094000  0.98080000  1
  N  N70  1  0.39820000  0.15610000  0.92510000  1
  N  N71  1  0.52060000  0.65610000  0.42510000  1
