# generated using pymatgen
data_Cd2H3C9N4O5
_symmetry_space_group_name_H-M   'P 1'
_cell_length_a   7.18700000
_cell_length_b   10.46220000
_cell_length_c   13.45440000
_cell_angle_alpha   112.69400000
_cell_angle_beta   90.00000000
_cell_angle_gamma   90.00000000
_symmetry_Int_Tables_number   1
_chemical_formula_structural   Cd2H3C9N4O5
_chemical_formula_sum   'Cd4 H6 C18 N8 O10'
_cell_volume   933.33666245
_cell_formula_units_Z   2
loop_
 _symmetry_equiv_pos_site_id
 _symmetry_equiv_pos_as_xyz
  1  'x, y, z'
loop_
 _atom_site_type_symbol
 _atom_site_label
 _atom_site_symmetry_multiplicity
 _atom_site_fract_x
 _atom_site_fract_y
 _atom_site_fract_z
 _atom_site_occupancy
  Cd  Cd0  1  0.00000000  0.00000000  0.00000000  1
  Cd  Cd1  1  0.50000000  0.00000000  0.00000000  1
  Cd  Cd2  1  0.25000000  0.85630000  0.72512000  1
  Cd  Cd3  1  0.75000000  0.14370000  0.27488000  1
  H  H4  1  0.75000000  0.96870000  0.54650000  1
  H  H5  1  0.75000000  0.65360000  0.25740000  1
  H  H6  1  0.75000000  0.57850000  0.52900000  1
  H  H7  1  0.25000000  0.42150000  0.47100000  1
  H  H8  1  0.25000000  0.34640000  0.74260000  1
  H  H9  1  0.25000000  0.03130000  0.45350000  1
  C  C10  1  0.75000000  0.92890000  0.34100000  1
  C  C11  1  0.75000000  0.87360000  0.50700000  1
  C  C12  1  0.75000000  0.83610000  0.67740000  1
  C  C13  1  0.75000000  0.82040000  0.39200000  1
  C  C14  1  0.75000000  0.78570000  0.55730000  1
  C  C15  1  0.75000000  0.68580000  0.33220000  1
  C  C16  1  0.75000000  0.64060000  0.49480000  1
  C  C17  1  0.75000000  0.59220000  0.38550000  1
  C  C18  1  0.25000000  0.56400000  0.67910000  1
  C  C19  1  0.75000000  0.43600000  0.32090000  1
  C  C20  1  0.25000000  0.40780000  0.61450000  1
  C  C21  1  0.25000000  0.35940000  0.50520000  1
  C  C22  1  0.25000000  0.31420000  0.66780000  1
  C  C23  1  0.25000000  0.21430000  0.44270000  1
  C  C24  1  0.25000000  0.17960000  0.60800000  1
  C  C25  1  0.25000000  0.16390000  0.32260000  1
  C  C26  1  0.25000000  0.12640000  0.49300000  1
  C  C27  1  0.25000000  0.07110000  0.65900000  1
  N  N28  1  0.84280000  0.90360000  0.83820000  1
  N  N29  1  0.65720000  0.90360000  0.83820000  1
  N  N30  1  0.90360000  0.86450000  0.73940000  1
  N  N31  1  0.59640000  0.86450000  0.73940000  1
  N  N32  1  0.40360000  0.13550000  0.26060000  1
  N  N33  1  0.09640000  0.13550000  0.26060000  1
  N  N34  1  0.34280000  0.09640000  0.16180000  1
  N  N35  1  0.15720000  0.09640000  0.16180000  1
  O  O36  1  0.25000000  0.94360000  0.60150000  1
  O  O37  1  0.25000000  0.90250000  0.90240000  1
  O  O38  1  0.75000000  0.88570000  0.23730000  1
  O  O39  1  0.25000000  0.63500000  0.62260000  1
  O  O40  1  0.25000000  0.60560000  0.77670000  1
  O  O41  1  0.75000000  0.39440000  0.22330000  1
  O  O42  1  0.75000000  0.36500000  0.37740000  1
  O  O43  1  0.25000000  0.11430000  0.76270000  1
  O  O44  1  0.75000000  0.09750000  0.09760000  1
  O  O45  1  0.75000000  0.05640000  0.39850000  1
