# generated using pymatgen
data_LiH4C6NO2
_symmetry_space_group_name_H-M   'P 1'
_cell_length_a   10.80930000
_cell_length_b   10.82430000
_cell_length_c   14.34760000
_cell_angle_alpha   90.00000000
_cell_angle_beta   90.00000000
_cell_angle_gamma   103.55900000
_symmetry_Int_Tables_number   1
_chemical_formula_structural   LiH4C6NO2
_chemical_formula_sum   'Li8 H32 C48 N8 O16'
_cell_volume   1631.92635886
_cell_formula_units_Z   8
loop_
 _symmetry_equiv_pos_site_id
 _symmetry_equiv_pos_as_xyz
  1  'x, y, z'
loop_
 _atom_site_type_symbol
 _atom_site_label
 _atom_site_symmetry_multiplicity
 _atom_site_fract_x
 _atom_site_fract_y
 _atom_site_fract_z
 _atom_site_occupancy
  Li  Li0  1  0.97200000  0.73920000  0.01050000  1
  Li  Li1  1  0.78200000  0.76590000  0.13990000  1
  Li  Li2  1  0.72640000  0.25210000  0.64170000  1
  Li  Li3  1  0.53040000  0.25570000  0.51740000  1
  Li  Li4  1  0.46960000  0.74430000  0.01740000  1
  Li  Li5  1  0.27360000  0.74790000  0.14170000  1
  Li  Li6  1  0.21800000  0.23410000  0.63990000  1
  Li  Li7  1  0.02800000  0.26080000  0.51050000  1
  H  H8  1  0.94510000  0.45040000  0.32000000  1
  H  H9  1  0.92760000  0.59280000  0.20350000  1
  H  H10  1  0.90860000  0.04830000  0.19350000  1
  H  H11  1  0.90090000  0.19080000  0.31280000  1
  H  H12  1  0.85390000  0.32470000  0.83220000  1
  H  H13  1  0.84910000  0.93600000  0.95980000  1
  H  H14  1  0.84430000  0.46270000  0.95470000  1
  H  H15  1  0.82690000  0.07700000  0.84280000  1
  H  H16  1  0.70660000  0.93970000  0.33360000  1
  H  H17  1  0.68900000  0.07350000  0.45670000  1
  H  H18  1  0.62740000  0.86370000  0.85470000  1
  H  H19  1  0.62680000  0.51710000  0.43830000  1
  H  H20  1  0.62540000  0.00260000  0.73210000  1
  H  H21  1  0.62360000  0.66430000  0.32130000  1
  H  H22  1  0.61190000  0.46440000  0.68490000  1
  H  H23  1  0.58430000  0.59600000  0.80650000  1
  H  H24  1  0.41570000  0.40400000  0.30650000  1
  H  H25  1  0.38810000  0.53560000  0.18490000  1
  H  H26  1  0.37640000  0.33570000  0.82130000  1
  H  H27  1  0.37460000  0.99740000  0.23210000  1
  H  H28  1  0.37320000  0.48290000  0.93830000  1
  H  H29  1  0.37260000  0.13630000  0.35470000  1
  H  H30  1  0.31100000  0.92650000  0.95670000  1
  H  H31  1  0.29340000  0.06030000  0.83360000  1
  H  H32  1  0.17310000  0.92300000  0.34280000  1
  H  H33  1  0.15570000  0.53730000  0.45470000  1
  H  H34  1  0.15090000  0.06400000  0.45980000  1
  H  H35  1  0.14610000  0.67530000  0.33220000  1
  H  H36  1  0.09910000  0.80920000  0.81280000  1
  H  H37  1  0.09140000  0.95170000  0.69350000  1
  H  H38  1  0.07240000  0.40720000  0.70350000  1
  H  H39  1  0.05490000  0.54960000  0.82000000  1
  C  C40  1  0.96100000  0.05092000  0.24702000  1
  C  C41  1  0.95625000  0.02927000  0.75439000  1
  C  C42  1  0.95620000  0.13482000  0.31917000  1
  C  C43  1  0.94132000  0.11920000  0.67602000  1
  C  C44  1  0.89770000  0.93800000  0.90435000  1
  C  C45  1  0.88430000  0.02340000  0.83513000  1
  C  C46  1  0.87760000  0.49290000  0.32164000  1
  C  C47  1  0.86710000  0.57890000  0.25266000  1
  C  C48  1  0.80340000  0.38010000  0.47199000  1
  C  C49  1  0.80020000  0.38230000  0.82637000  1
  C  C50  1  0.79350000  0.46290000  0.90064000  1
  C  C51  1  0.78910000  0.46883000  0.39309000  1
  C  C52  1  0.71116000  0.54370000  0.89441000  1
  C  C53  1  0.69440000  0.62875000  0.97452000  1
  C  C54  1  0.69110000  0.53270000  0.39172000  1
  C  C55  1  0.68940000  0.61950000  0.32083000  1
  C  C56  1  0.65770000  0.46230000  0.74110000  1
  C  C57  1  0.64200000  0.54240000  0.81293000  1
  C  C58  1  0.63660000  0.97885000  0.33647000  1
  C  C59  1  0.62580000  0.05980000  0.40939000  1
  C  C60  1  0.55900000  0.90480000  0.85050000  1
  C  C61  1  0.55800000  0.98640000  0.77626000  1
  C  C62  1  0.55717000  0.87747000  0.18265000  1
  C  C63  1  0.54350000  0.95591000  0.26764000  1
  C  C64  1  0.45650000  0.04409000  0.76764000  1
  C  C65  1  0.44283000  0.12253000  0.68265000  1
  C  C66  1  0.44200000  0.01360000  0.27626000  1
  C  C67  1  0.44100000  0.09520000  0.35050000  1
  C  C68  1  0.37420000  0.94020000  0.90939000  1
  C  C69  1  0.36340000  0.02115000  0.83647000  1
  C  C70  1  0.35800000  0.45760000  0.31293000  1
  C  C71  1  0.34230000  0.53770000  0.24110000  1
  C  C72  1  0.31060000  0.38050000  0.82083000  1
  C  C73  1  0.30890000  0.46730000  0.89172000  1
  C  C74  1  0.30560000  0.37125000  0.47452000  1
  C  C75  1  0.28884000  0.45630000  0.39441000  1
  C  C76  1  0.21090000  0.53117000  0.89309000  1
  C  C77  1  0.20650000  0.53710000  0.40064000  1
  C  C78  1  0.19980000  0.61770000  0.32637000  1
  C  C79  1  0.19660000  0.61990000  0.97199000  1
  C  C80  1  0.13290000  0.42110000  0.75266000  1
  C  C81  1  0.12240000  0.50710000  0.82164000  1
  C  C82  1  0.11570000  0.97660000  0.33513000  1
  C  C83  1  0.10230000  0.06200000  0.40435000  1
  C  C84  1  0.05868000  0.88080000  0.17602000  1
  C  C85  1  0.04380000  0.86518000  0.81917000  1
  C  C86  1  0.04375000  0.97073000  0.25439000  1
  C  C87  1  0.03900000  0.94908000  0.74702000  1
  N  N88  1  0.97483000  0.85860000  0.89744000  1
  N  N89  1  0.77517000  0.64405000  0.25178000  1
  N  N90  1  0.73495000  0.38151000  0.74718000  1
  N  N91  1  0.53102000  0.11969000  0.41654000  1
  N  N92  1  0.46898000  0.88031000  0.91654000  1
  N  N93  1  0.26505000  0.61849000  0.24718000  1
  N  N94  1  0.22483000  0.35595000  0.75178000  1
  N  N95  1  0.02517000  0.14140000  0.39744000  1
  O  O96  1  0.96551000  0.84329000  0.12264000  1
  O  O97  1  0.90765000  0.35168000  0.47902000  1
  O  O98  1  0.83700000  0.14833000  0.67108000  1
  O  O99  1  0.78777000  0.66526000  0.02877000  1
  O  O100  1  0.70934000  0.34277000  0.52574000  1
  O  O101  1  0.66880000  0.87327000  0.16115000  1
  O  O102  1  0.58918000  0.65581000  0.98136000  1
  O  O103  1  0.54096000  0.17372000  0.63834000  1
  O  O104  1  0.45904000  0.82628000  0.13834000  1
  O  O105  1  0.41082000  0.34419000  0.48136000  1
  O  O106  1  0.33120000  0.12673000  0.66115000  1
  O  O107  1  0.29066000  0.65723000  0.02574000  1
  O  O108  1  0.21223000  0.33474000  0.52877000  1
  O  O109  1  0.16300000  0.85167000  0.17108000  1
  O  O110  1  0.09235000  0.64832000  0.97902000  1
  O  O111  1  0.03449000  0.15671000  0.62264000  1
