# generated using pymatgen
data_Cu3H4(C2N3)2
_symmetry_space_group_name_H-M   'P 1'
_cell_length_a   6.52700000
_cell_length_b   20.53947443
_cell_length_c   20.53947443
_cell_angle_alpha   88.55337037
_cell_angle_beta   80.85757456
_cell_angle_gamma   80.85757456
_symmetry_Int_Tables_number   1
_chemical_formula_structural   Cu3H4(C2N3)2
_chemical_formula_sum   'Cu24 H32 C32 N48'
_cell_volume   2684.03018313
_cell_formula_units_Z   8
loop_
 _symmetry_equiv_pos_site_id
 _symmetry_equiv_pos_as_xyz
  1  'x, y, z'
loop_
 _atom_site_type_symbol
 _atom_site_label
 _atom_site_symmetry_multiplicity
 _atom_site_fract_x
 _atom_site_fract_y
 _atom_site_fract_z
 _atom_site_occupancy
  C  C0  1  0.20340000  0.89700000  0.07360000  1
  C  C1  1  0.70340000  0.57360000  0.39700000  1
  C  C2  1  0.82600000  0.39700000  0.57360000  1
  C  C3  1  0.32600000  0.07360000  0.89700000  1
  C  C4  1  0.73600000  0.84440000  0.04060000  1
  C  C5  1  0.23600000  0.54060000  0.34440000  1
  C  C6  1  0.37900000  0.34440000  0.54060000  1
  C  C7  1  0.87900000  0.04060000  0.84440000  1
  C  C8  1  0.22340000  0.65560000  0.04060000  1
  C  C9  1  0.72340000  0.54060000  0.15560000  1
  C  C10  1  0.08040000  0.15560000  0.54060000  1
  C  C11  1  0.58040000  0.04060000  0.65560000  1
  C  C12  1  0.72300000  0.60300000  0.07360000  1
  C  C13  1  0.22300000  0.57360000  0.10300000  1
  C  C14  1  0.60040000  0.10300000  0.57360000  1
  C  C15  1  0.10040000  0.07360000  0.60300000  1
  C  C16  1  0.77700000  0.42640000  0.89700000  1
  C  C17  1  0.27700000  0.39700000  0.92640000  1
  C  C18  1  0.89960000  0.92640000  0.39700000  1
  C  C19  1  0.39960000  0.89700000  0.42640000  1
  C  C20  1  0.27660000  0.45940000  0.84440000  1
  C  C21  1  0.77660000  0.34440000  0.95940000  1
  C  C22  1  0.41960000  0.95940000  0.34440000  1
  C  C23  1  0.91960000  0.84440000  0.45940000  1
  C  C24  1  0.76400000  0.45940000  0.65560000  1
  C  C25  1  0.26400000  0.15560000  0.95940000  1
  C  C26  1  0.12100000  0.95940000  0.15560000  1
  C  C27  1  0.62100000  0.65560000  0.45940000  1
  C  C28  1  0.29660000  0.42640000  0.60300000  1
  C  C29  1  0.79660000  0.10300000  0.92640000  1
  C  C30  1  0.67400000  0.92640000  0.10300000  1
  C  C31  1  0.17400000  0.60300000  0.42640000  1
  Cu  Cu32  1  0.78116000  0.96884000  0.96884000  1
  Cu  Cu33  1  0.28116000  0.46884000  0.46884000  1
  Cu  Cu34  1  0.18547000  0.76565000  0.12875000  1
  Cu  Cu35  1  0.68547000  0.62875000  0.26565000  1
  Cu  Cu36  1  0.92013000  0.26565000  0.62875000  1
  Cu  Cu37  1  0.42013000  0.12875000  0.76565000  1
  Cu  Cu38  1  0.68578000  0.73435000  0.12875000  1
  Cu  Cu39  1  0.18578000  0.62875000  0.23435000  1
  Cu  Cu40  1  0.45112000  0.23435000  0.62875000  1
  Cu  Cu41  1  0.95112000  0.12875000  0.73435000  1
  Cu  Cu42  1  0.25000000  0.53116000  0.96884000  1
  Cu  Cu43  1  0.75000000  0.46884000  0.03116000  1
  Cu  Cu44  1  0.25000000  0.03116000  0.46884000  1
  Cu  Cu45  1  0.75000000  0.96884000  0.53116000  1
  Cu  Cu46  1  0.81422000  0.37125000  0.76565000  1
  Cu  Cu47  1  0.31422000  0.26565000  0.87125000  1
  Cu  Cu48  1  0.04888000  0.87125000  0.26565000  1
  Cu  Cu49  1  0.54888000  0.76565000  0.37125000  1
  Cu  Cu50  1  0.31453000  0.37125000  0.73435000  1
  Cu  Cu51  1  0.81453000  0.23435000  0.87125000  1
  Cu  Cu52  1  0.57987000  0.87125000  0.23435000  1
  Cu  Cu53  1  0.07987000  0.73435000  0.37125000  1
  Cu  Cu54  1  0.71884000  0.53116000  0.53116000  1
  Cu  Cu55  1  0.21884000  0.03116000  0.03116000  1
  H  H56  1  0.24480000  0.88120000  0.02960000  1
  H  H57  1  0.74480000  0.52960000  0.38120000  1
  H  H58  1  0.84440000  0.38120000  0.52960000  1
  H  H59  1  0.34440000  0.02960000  0.88120000  1
  H  H60  1  0.77160000  0.81740000  0.00240000  1
  H  H61  1  0.27160000  0.50240000  0.31740000  1
  H  H62  1  0.40860000  0.31740000  0.50240000  1
  H  H63  1  0.90860000  0.00240000  0.81740000  1
  H  H64  1  0.22600000  0.68260000  0.00240000  1
  H  H65  1  0.72600000  0.50240000  0.18260000  1
  H  H66  1  0.08900000  0.18260000  0.50240000  1
  H  H67  1  0.58900000  0.00240000  0.68260000  1
  H  H68  1  0.72560000  0.61880000  0.02960000  1
  H  H69  1  0.22560000  0.52960000  0.11880000  1
  H  H70  1  0.62600000  0.11880000  0.52960000  1
  H  H71  1  0.12600000  0.02960000  0.61880000  1
  H  H72  1  0.77440000  0.47040000  0.88120000  1
  H  H73  1  0.27440000  0.38120000  0.97040000  1
  H  H74  1  0.87400000  0.97040000  0.38120000  1
  H  H75  1  0.37400000  0.88120000  0.47040000  1
  H  H76  1  0.27400000  0.49760000  0.81740000  1
  H  H77  1  0.77400000  0.31740000  0.99760000  1
  H  H78  1  0.41100000  0.99760000  0.31740000  1
  H  H79  1  0.91100000  0.81740000  0.49760000  1
  H  H80  1  0.72840000  0.49760000  0.68260000  1
  H  H81  1  0.22840000  0.18260000  0.99760000  1
  H  H82  1  0.09140000  0.99760000  0.18260000  1
  H  H83  1  0.59140000  0.68260000  0.49760000  1
  H  H84  1  0.25520000  0.47040000  0.61880000  1
  H  H85  1  0.75520000  0.11880000  0.97040000  1
  H  H86  1  0.65560000  0.97040000  0.11880000  1
  H  H87  1  0.15560000  0.61880000  0.47040000  1
  N  N88  1  0.16830000  0.85793000  0.12327000  1
  N  N89  1  0.66830000  0.62327000  0.35793000  1
  N  N90  1  0.85050000  0.35793000  0.62327000  1
  N  N91  1  0.35050000  0.12327000  0.85793000  1
  N  N92  1  0.72676000  0.91136000  0.03932000  1
  N  N93  1  0.22676000  0.53932000  0.41136000  1
  N  N94  1  0.32256000  0.41136000  0.53932000  1
  N  N95  1  0.82256000  0.03932000  0.91136000  1
  N  N96  1  0.69065000  0.82206000  0.09984000  1
  N  N97  1  0.19065000  0.59984000  0.32206000  1
  N  N98  1  0.38745000  0.32206000  0.59984000  1
  N  N99  1  0.88745000  0.09984000  0.82206000  1
  N  N100  1  0.20951000  0.67794000  0.09984000  1
  N  N101  1  0.70951000  0.59984000  0.17794000  1
  N  N102  1  0.01271000  0.17794000  0.59984000  1
  N  N103  1  0.51271000  0.09984000  0.67794000  1
  N  N104  1  0.70843000  0.64207000  0.12327000  1
  N  N105  1  0.20843000  0.62327000  0.14207000  1
  N  N106  1  0.52623000  0.14207000  0.62327000  1
  N  N107  1  0.02623000  0.12327000  0.64207000  1
  N  N108  1  0.23392000  0.58864000  0.03932000  1
  N  N109  1  0.73392000  0.53932000  0.08864000  1
  N  N110  1  0.13812000  0.08864000  0.53932000  1
  N  N111  1  0.63812000  0.03932000  0.58864000  1
  N  N112  1  0.26608000  0.46068000  0.91136000  1
  N  N113  1  0.76608000  0.41136000  0.96068000  1
  N  N114  1  0.36188000  0.96068000  0.41136000  1
  N  N115  1  0.86188000  0.91136000  0.46068000  1
  N  N116  1  0.79157000  0.37673000  0.85793000  1
  N  N117  1  0.29157000  0.35793000  0.87673000  1
  N  N118  1  0.97377000  0.87673000  0.35793000  1
  N  N119  1  0.47377000  0.85793000  0.37673000  1
  N  N120  1  0.29049000  0.40016000  0.82206000  1
  N  N121  1  0.79049000  0.32206000  0.90016000  1
  N  N122  1  0.48729000  0.90016000  0.32206000  1
  N  N123  1  0.98729000  0.82206000  0.40016000  1
  N  N124  1  0.80935000  0.40016000  0.67794000  1
  N  N125  1  0.30935000  0.17794000  0.90016000  1
  N  N126  1  0.11255000  0.90016000  0.17794000  1
  N  N127  1  0.61255000  0.67794000  0.40016000  1
  N  N128  1  0.77324000  0.46068000  0.58864000  1
  N  N129  1  0.27324000  0.08864000  0.96068000  1
  N  N130  1  0.17744000  0.96068000  0.08864000  1
  N  N131  1  0.67744000  0.58864000  0.46068000  1
  N  N132  1  0.33170000  0.37673000  0.64207000  1
  N  N133  1  0.83170000  0.14207000  0.87673000  1
  N  N134  1  0.64950000  0.87673000  0.14207000  1
  N  N135  1  0.14950000  0.64207000  0.37673000  1
