# generated using pymatgen
data_CuH20(C3N2)6
_symmetry_space_group_name_H-M   'P 1'
_cell_length_a   12.86310000
_cell_length_b   13.15600000
_cell_length_c   17.16230000
_cell_angle_alpha   90.00000000
_cell_angle_beta   90.00000000
_cell_angle_gamma   90.00000000
_symmetry_Int_Tables_number   1
_chemical_formula_structural   CuH20(C3N2)6
_chemical_formula_sum   'Cu4 H80 C72 N48'
_cell_volume   2904.32357415
_cell_formula_units_Z   4
loop_
 _symmetry_equiv_pos_site_id
 _symmetry_equiv_pos_as_xyz
  1  'x, y, z'
loop_
 _atom_site_type_symbol
 _atom_site_label
 _atom_site_symmetry_multiplicity
 _atom_site_fract_x
 _atom_site_fract_y
 _atom_site_fract_z
 _atom_site_occupancy
  Cu  Cu0  1  0.16385000  0.25000000  0.93384000  1
  Cu  Cu1  1  0.66385000  0.75000000  0.56616000  1
  Cu  Cu2  1  0.33615000  0.25000000  0.43384000  1
  Cu  Cu3  1  0.83615000  0.75000000  0.06616000  1
  H  H4  1  0.65640000  0.34580000  0.98760000  1
  H  H5  1  0.65640000  0.15420000  0.98760000  1
  H  H6  1  0.18270000  0.75000000  0.96750000  1
  H  H7  1  0.07250000  0.89010000  0.95580000  1
  H  H8  1  0.07250000  0.60990000  0.95580000  1
  H  H9  1  0.41130000  0.90690000  0.95070000  1
  H  H10  1  0.41130000  0.59310000  0.95070000  1
  H  H11  1  0.65530000  0.75000000  0.92750000  1
  H  H12  1  0.53520000  0.25000000  0.89290000  1
  H  H13  1  0.31020000  0.44590000  0.89000000  1
  H  H14  1  0.31020000  0.05410000  0.89000000  1
  H  H15  1  0.15130000  0.75000000  0.87800000  1
  H  H16  1  0.51830000  0.81040000  0.85090000  1
  H  H17  1  0.51830000  0.68960000  0.85090000  1
  H  H18  1  0.79420000  0.25000000  0.84580000  1
  H  H19  1  0.35880000  0.90690000  0.80740000  1
  H  H20  1  0.35880000  0.59310000  0.80740000  1
  H  H21  1  0.25750000  0.84750000  0.78020000  1
  H  H22  1  0.25750000  0.65250000  0.78020000  1
  H  H23  1  0.08030000  0.25000000  0.76790000  1
  H  H24  1  0.58030000  0.75000000  0.73210000  1
  H  H25  1  0.75750000  0.34750000  0.71980000  1
  H  H26  1  0.75750000  0.15250000  0.71980000  1
  H  H27  1  0.85880000  0.40690000  0.69260000  1
  H  H28  1  0.85880000  0.09310000  0.69260000  1
  H  H29  1  0.29420000  0.75000000  0.65420000  1
  H  H30  1  0.01830000  0.31040000  0.64910000  1
  H  H31  1  0.01830000  0.18960000  0.64910000  1
  H  H32  1  0.65130000  0.25000000  0.62200000  1
  H  H33  1  0.81020000  0.94590000  0.61000000  1
  H  H34  1  0.81020000  0.55410000  0.61000000  1
  H  H35  1  0.03520000  0.75000000  0.60710000  1
  H  H36  1  0.15530000  0.25000000  0.57250000  1
  H  H37  1  0.91130000  0.40690000  0.54930000  1
  H  H38  1  0.91130000  0.09310000  0.54930000  1
  H  H39  1  0.57250000  0.39010000  0.54420000  1
  H  H40  1  0.57250000  0.10990000  0.54420000  1
  H  H41  1  0.68270000  0.25000000  0.53250000  1
  H  H42  1  0.15640000  0.84580000  0.51240000  1
  H  H43  1  0.15640000  0.65420000  0.51240000  1
  H  H44  1  0.84360000  0.34580000  0.48760000  1
  H  H45  1  0.84360000  0.15420000  0.48760000  1
  H  H46  1  0.31730000  0.75000000  0.46750000  1
  H  H47  1  0.42750000  0.89010000  0.45580000  1
  H  H48  1  0.42750000  0.60990000  0.45580000  1
  H  H49  1  0.08870000  0.90690000  0.45070000  1
  H  H50  1  0.08870000  0.59310000  0.45070000  1
  H  H51  1  0.84470000  0.75000000  0.42750000  1
  H  H52  1  0.96480000  0.25000000  0.39290000  1
  H  H53  1  0.18980000  0.44590000  0.39000000  1
  H  H54  1  0.18980000  0.05410000  0.39000000  1
  H  H55  1  0.34870000  0.75000000  0.37800000  1
  H  H56  1  0.98170000  0.81040000  0.35090000  1
  H  H57  1  0.98170000  0.68960000  0.35090000  1
  H  H58  1  0.70580000  0.25000000  0.34580000  1
  H  H59  1  0.14120000  0.90690000  0.30740000  1
  H  H60  1  0.14120000  0.59310000  0.30740000  1
  H  H61  1  0.24250000  0.84750000  0.28020000  1
  H  H62  1  0.24250000  0.65250000  0.28020000  1
  H  H63  1  0.41970000  0.25000000  0.26790000  1
  H  H64  1  0.91970000  0.75000000  0.23210000  1
  H  H65  1  0.74250000  0.34750000  0.21980000  1
  H  H66  1  0.74250000  0.15250000  0.21980000  1
  H  H67  1  0.64120000  0.40690000  0.19260000  1
  H  H68  1  0.64120000  0.09310000  0.19260000  1
  H  H69  1  0.20580000  0.75000000  0.15420000  1
  H  H70  1  0.48170000  0.31040000  0.14910000  1
  H  H71  1  0.48170000  0.18960000  0.14910000  1
  H  H72  1  0.84870000  0.25000000  0.12200000  1
  H  H73  1  0.68980000  0.94590000  0.11000000  1
  H  H74  1  0.68980000  0.55410000  0.11000000  1
  H  H75  1  0.46480000  0.75000000  0.10710000  1
  H  H76  1  0.34470000  0.25000000  0.07250000  1
  H  H77  1  0.58870000  0.40690000  0.04930000  1
  H  H78  1  0.58870000  0.09310000  0.04930000  1
  H  H79  1  0.92750000  0.39010000  0.04420000  1
  H  H80  1  0.92750000  0.10990000  0.04420000  1
  H  H81  1  0.81730000  0.25000000  0.03250000  1
  H  H82  1  0.34360000  0.84580000  0.01240000  1
  H  H83  1  0.34360000  0.65420000  0.01240000  1
  C  C84  1  0.62820000  0.75000000  0.97840000  1
  C  C85  1  0.36900000  0.84580000  0.95860000  1
  C  C86  1  0.36900000  0.65420000  0.95860000  1
  C  C87  1  0.43420000  0.75000000  0.94300000  1
  C  C88  1  0.11500000  0.94580000  0.94280000  1
  C  C89  1  0.11500000  0.55420000  0.94280000  1
  C  C90  1  0.47430000  0.25000000  0.92320000  1
  C  C91  1  0.21020000  0.75000000  0.91420000  1
  C  C92  1  0.24370000  0.46560000  0.90680000  1
  C  C93  1  0.24370000  0.03440000  0.90680000  1
  C  C94  1  0.27650000  0.84500000  0.90110000  1
  C  C95  1  0.27650000  0.65500000  0.90110000  1
  C  C96  1  0.47540000  0.75000000  0.85980000  1
  C  C97  1  0.86720000  0.25000000  0.84390000  1
  C  C98  1  0.31630000  0.84620000  0.81650000  1
  C  C99  1  0.31630000  0.65380000  0.81650000  1
  C  C100  1  0.38180000  0.75000000  0.80320000  1
  C  C101  1  0.02250000  0.25000000  0.80140000  1
  C  C102  1  0.52250000  0.75000000  0.69860000  1
  C  C103  1  0.88180000  0.25000000  0.69680000  1
  C  C104  1  0.81630000  0.34620000  0.68350000  1
  C  C105  1  0.81630000  0.15380000  0.68350000  1
  C  C106  1  0.36720000  0.75000000  0.65610000  1
  C  C107  1  0.97540000  0.25000000  0.64020000  1
  C  C108  1  0.77650000  0.34500000  0.59890000  1
  C  C109  1  0.77650000  0.15500000  0.59890000  1
  C  C110  1  0.74370000  0.96560000  0.59320000  1
  C  C111  1  0.74370000  0.53440000  0.59320000  1
  C  C112  1  0.71020000  0.25000000  0.58580000  1
  C  C113  1  0.97430000  0.75000000  0.57680000  1
  C  C114  1  0.61500000  0.44580000  0.55720000  1
  C  C115  1  0.61500000  0.05420000  0.55720000  1
  C  C116  1  0.93420000  0.25000000  0.55700000  1
  C  C117  1  0.86900000  0.34580000  0.54140000  1
  C  C118  1  0.86900000  0.15420000  0.54140000  1
  C  C119  1  0.12820000  0.25000000  0.52160000  1
  C  C120  1  0.87180000  0.75000000  0.47840000  1
  C  C121  1  0.13100000  0.84580000  0.45860000  1
  C  C122  1  0.13100000  0.65420000  0.45860000  1
  C  C123  1  0.06580000  0.75000000  0.44300000  1
  C  C124  1  0.38500000  0.94580000  0.44280000  1
  C  C125  1  0.38500000  0.55420000  0.44280000  1
  C  C126  1  0.02570000  0.25000000  0.42320000  1
  C  C127  1  0.28980000  0.75000000  0.41420000  1
  C  C128  1  0.25630000  0.46560000  0.40680000  1
  C  C129  1  0.25630000  0.03440000  0.40680000  1
  C  C130  1  0.22350000  0.84500000  0.40110000  1
  C  C131  1  0.22350000  0.65500000  0.40110000  1
  C  C132  1  0.02460000  0.75000000  0.35980000  1
  C  C133  1  0.63280000  0.25000000  0.34390000  1
  C  C134  1  0.18370000  0.84620000  0.31650000  1
  C  C135  1  0.18370000  0.65380000  0.31650000  1
  C  C136  1  0.11820000  0.75000000  0.30320000  1
  C  C137  1  0.47750000  0.25000000  0.30140000  1
  C  C138  1  0.97750000  0.75000000  0.19860000  1
  C  C139  1  0.61820000  0.25000000  0.19680000  1
  C  C140  1  0.68370000  0.34620000  0.18350000  1
  C  C141  1  0.68370000  0.15380000  0.18350000  1
  C  C142  1  0.13280000  0.75000000  0.15610000  1
  C  C143  1  0.52460000  0.25000000  0.14020000  1
  C  C144  1  0.72350000  0.34500000  0.09890000  1
  C  C145  1  0.72350000  0.15500000  0.09890000  1
  C  C146  1  0.75630000  0.96560000  0.09320000  1
  C  C147  1  0.75630000  0.53440000  0.09320000  1
  C  C148  1  0.78980000  0.25000000  0.08580000  1
  C  C149  1  0.52570000  0.75000000  0.07680000  1
  C  C150  1  0.88500000  0.44580000  0.05720000  1
  C  C151  1  0.88500000  0.05420000  0.05720000  1
  C  C152  1  0.56580000  0.25000000  0.05700000  1
  C  C153  1  0.63100000  0.34580000  0.04140000  1
  C  C154  1  0.63100000  0.15420000  0.04140000  1
  C  C155  1  0.37180000  0.25000000  0.02160000  1
  N  N156  1  0.52540000  0.75000000  0.99760000  1
  N  N157  1  0.31620000  0.25000000  0.95620000  1
  N  N158  1  0.08710000  0.45850000  0.94870000  1
  N  N159  1  0.08710000  0.04150000  0.94870000  1
  N  N160  1  0.16900000  0.40250000  0.92480000  1
  N  N161  1  0.16900000  0.09750000  0.92480000  1
  N  N162  1  0.21300000  0.93850000  0.91550000  1
  N  N163  1  0.21300000  0.56150000  0.91550000  1
  N  N164  1  0.92780000  0.25000000  0.90610000  1
  N  N165  1  0.38350000  0.25000000  0.89410000  1
  N  N166  1  0.02810000  0.25000000  0.87740000  1
  N  N167  1  0.92260000  0.25000000  0.77750000  1
  N  N168  1  0.42260000  0.75000000  0.72250000  1
  N  N169  1  0.52810000  0.75000000  0.62260000  1
  N  N170  1  0.88350000  0.75000000  0.60590000  1
  N  N171  1  0.42780000  0.75000000  0.59390000  1
  N  N172  1  0.71300000  0.43850000  0.58450000  1
  N  N173  1  0.71300000  0.06150000  0.58450000  1
  N  N174  1  0.66900000  0.90250000  0.57520000  1
  N  N175  1  0.66900000  0.59750000  0.57520000  1
  N  N176  1  0.58710000  0.95850000  0.55130000  1
  N  N177  1  0.58710000  0.54150000  0.55130000  1
  N  N178  1  0.81620000  0.75000000  0.54380000  1
  N  N179  1  0.02540000  0.25000000  0.50240000  1
  N  N180  1  0.97460000  0.75000000  0.49760000  1
  N  N181  1  0.18380000  0.25000000  0.45620000  1
  N  N182  1  0.41290000  0.45850000  0.44870000  1
  N  N183  1  0.41290000  0.04150000  0.44870000  1
  N  N184  1  0.33100000  0.40250000  0.42480000  1
  N  N185  1  0.33100000  0.09750000  0.42480000  1
  N  N186  1  0.28700000  0.93850000  0.41550000  1
  N  N187  1  0.28700000  0.56150000  0.41550000  1
  N  N188  1  0.57220000  0.25000000  0.40610000  1
  N  N189  1  0.11650000  0.25000000  0.39410000  1
  N  N190  1  0.47190000  0.25000000  0.37740000  1
  N  N191  1  0.57740000  0.25000000  0.27750000  1
  N  N192  1  0.07740000  0.75000000  0.22250000  1
  N  N193  1  0.97190000  0.75000000  0.12260000  1
  N  N194  1  0.61650000  0.75000000  0.10590000  1
  N  N195  1  0.07220000  0.75000000  0.09390000  1
  N  N196  1  0.78700000  0.43850000  0.08450000  1
  N  N197  1  0.78700000  0.06150000  0.08450000  1
  N  N198  1  0.83100000  0.90250000  0.07520000  1
  N  N199  1  0.83100000  0.59750000  0.07520000  1
  N  N200  1  0.91290000  0.95850000  0.05130000  1
  N  N201  1  0.91290000  0.54150000  0.05130000  1
  N  N202  1  0.68380000  0.75000000  0.04380000  1
  N  N203  1  0.47460000  0.25000000  0.00240000  1
