# generated using pymatgen
data_ZnH7C12N2O3
_symmetry_space_group_name_H-M   'P 1'
_cell_length_a   14.74090000
_cell_length_b   15.34290000
_cell_length_c   22.19240000
_cell_angle_alpha   90.00000000
_cell_angle_beta   103.71600000
_cell_angle_gamma   90.00000000
_symmetry_Int_Tables_number   1
_chemical_formula_structural   ZnH7C12N2O3
_chemical_formula_sum   'Zn12 H84 C144 N24 O36'
_cell_volume   4876.08094541
_cell_formula_units_Z   12
loop_
 _symmetry_equiv_pos_site_id
 _symmetry_equiv_pos_as_xyz
  1  'x, y, z'
loop_
 _atom_site_type_symbol
 _atom_site_label
 _atom_site_symmetry_multiplicity
 _atom_site_fract_x
 _atom_site_fract_y
 _atom_site_fract_z
 _atom_site_occupancy
  Zn  Zn0  1  0.14892000  0.86595000  0.98783000  1
  Zn  Zn1  1  0.15240000  0.53879000  0.77490000  1
  Zn  Zn2  1  0.15251000  0.80752000  0.80565000  1
  Zn  Zn3  1  0.15394000  0.59981000  0.95404000  1
  Zn  Zn4  1  0.15565000  0.74224000  0.62598000  1
  Zn  Zn5  1  0.15737000  0.47769000  0.59980000  1
  Zn  Zn6  1  0.84263000  0.97769000  0.40020000  1
  Zn  Zn7  1  0.84435000  0.24224000  0.37402000  1
  Zn  Zn8  1  0.84606000  0.09981000  0.04596000  1
  Zn  Zn9  1  0.84749000  0.30752000  0.19435000  1
  Zn  Zn10  1  0.84760000  0.03879000  0.22510000  1
  Zn  Zn11  1  0.85108000  0.36595000  0.01217000  1
  H  H12  1  0.01090000  0.23560000  0.74160000  1
  H  H13  1  0.01290000  0.38590000  0.73780000  1
  H  H14  1  0.01370000  0.09560000  0.75310000  1
  H  H15  1  0.01660000  0.29730000  0.93340000  1
  H  H16  1  0.01700000  0.44810000  0.92570000  1
  H  H17  1  0.02220000  0.04360000  0.59480000  1
  H  H18  1  0.02330000  0.89590000  0.59860000  1
  H  H19  1  0.02700000  0.95520000  0.76440000  1
  H  H20  1  0.03040000  0.01900000  0.91300000  1
  H  H21  1  0.03260000  0.17600000  0.56810000  1
  H  H22  1  0.03490000  0.32360000  0.56540000  1
  H  H23  1  0.03600000  0.16960000  0.90540000  1
  H  H24  1  0.13630000  0.27280000  0.30970000  1
  H  H25  1  0.14180000  0.03620000  0.34480000  1
  H  H26  1  0.14350000  0.09900000  0.14340000  1
  H  H27  1  0.15030000  0.32100000  0.10920000  1
  H  H28  1  0.15670000  0.91180000  0.18710000  1
  H  H29  1  0.15880000  0.71280000  0.42550000  1
  H  H30  1  0.16200000  0.41210000  0.40520000  1
  H  H31  1  0.16560000  0.82050000  0.26830000  1
  H  H32  1  0.16580000  0.50340000  0.32200000  1
  H  H33  1  0.16630000  0.61420000  0.15940000  1
  H  H34  1  0.26070000  0.02370000  0.05270000  1
  H  H35  1  0.26630000  0.17430000  0.04510000  1
  H  H36  1  0.26780000  0.39080000  0.84330000  1
  H  H37  1  0.27490000  0.24550000  0.84500000  1
  H  H38  1  0.27660000  0.03520000  0.31470000  1
  H  H39  1  0.27700000  0.28100000  0.28820000  1
  H  H40  1  0.28170000  0.10630000  0.82810000  1
  H  H41  1  0.28180000  0.32370000  0.67130000  1
  H  H42  1  0.28700000  0.17860000  0.66990000  1
  H  H43  1  0.28970000  0.89110000  0.64500000  1
  H  H44  1  0.29080000  0.96410000  0.81300000  1
  H  H45  1  0.29520000  0.29890000  0.99850000  1
  H  H46  1  0.29570000  0.44970000  0.99070000  1
  H  H47  1  0.29580000  0.03770000  0.65390000  1
  H  H48  1  0.41410000  0.08050000  0.13170000  1
  H  H49  1  0.41840000  0.32460000  0.10260000  1
  H  H50  1  0.44230000  0.82300000  0.92520000  1
  H  H51  1  0.44450000  0.58800000  0.89440000  1
  H  H52  1  0.45290000  0.75590000  0.72220000  1
  H  H53  1  0.46190000  0.51920000  0.69400000  1
  H  H54  1  0.53810000  0.01920000  0.30600000  1
  H  H55  1  0.54710000  0.25590000  0.27780000  1
  H  H56  1  0.55550000  0.08800000  0.10560000  1
  H  H57  1  0.55770000  0.32300000  0.07480000  1
  H  H58  1  0.58160000  0.82460000  0.89740000  1
  H  H59  1  0.58590000  0.58050000  0.86830000  1
  H  H60  1  0.70420000  0.53770000  0.34610000  1
  H  H61  1  0.70430000  0.94970000  0.00930000  1
  H  H62  1  0.70480000  0.79890000  0.00150000  1
  H  H63  1  0.70920000  0.46410000  0.18700000  1
  H  H64  1  0.71030000  0.39110000  0.35500000  1
  H  H65  1  0.71300000  0.67860000  0.33010000  1
  H  H66  1  0.71820000  0.82370000  0.32870000  1
  H  H67  1  0.71830000  0.60630000  0.17190000  1
  H  H68  1  0.72300000  0.78100000  0.71180000  1
  H  H69  1  0.72340000  0.53520000  0.68530000  1
  H  H70  1  0.72510000  0.74550000  0.15500000  1
  H  H71  1  0.73220000  0.89080000  0.15670000  1
  H  H72  1  0.73370000  0.67430000  0.95490000  1
  H  H73  1  0.73930000  0.52370000  0.94730000  1
  H  H74  1  0.83370000  0.11420000  0.84060000  1
  H  H75  1  0.83420000  0.00340000  0.67800000  1
  H  H76  1  0.83440000  0.32050000  0.73170000  1
  H  H77  1  0.83800000  0.91210000  0.59480000  1
  H  H78  1  0.84120000  0.21280000  0.57450000  1
  H  H79  1  0.84330000  0.41180000  0.81290000  1
  H  H80  1  0.84970000  0.82100000  0.89080000  1
  H  H81  1  0.85650000  0.59900000  0.85660000  1
  H  H82  1  0.85820000  0.53620000  0.65520000  1
  H  H83  1  0.86370000  0.77280000  0.69030000  1
  H  H84  1  0.96400000  0.66960000  0.09460000  1
  H  H85  1  0.96510000  0.82360000  0.43460000  1
  H  H86  1  0.96740000  0.67600000  0.43190000  1
  H  H87  1  0.96960000  0.51900000  0.08700000  1
  H  H88  1  0.97300000  0.45520000  0.23560000  1
  H  H89  1  0.97670000  0.39590000  0.40140000  1
  H  H90  1  0.97780000  0.54360000  0.40520000  1
  H  H91  1  0.98300000  0.94810000  0.07430000  1
  H  H92  1  0.98340000  0.79730000  0.06660000  1
  H  H93  1  0.98630000  0.59560000  0.24690000  1
  H  H94  1  0.98710000  0.88590000  0.26220000  1
  H  H95  1  0.98910000  0.73560000  0.25840000  1
  C  C96  1  0.02170000  0.82840000  0.88730000  1
  C  C97  1  0.02780000  0.59990000  0.85180000  1
  C  C98  1  0.05280000  0.06550000  0.25930000  1
  C  C99  1  0.05550000  0.29510000  0.22680000  1
  C  C100  1  0.05660000  0.31720000  0.16490000  1
  C  C101  1  0.05680000  0.08510000  0.20010000  1
  C  C102  1  0.06500000  0.26630000  0.75960000  1
  C  C103  1  0.06600000  0.35620000  0.75880000  1
  C  C104  1  0.07200000  0.07050000  0.76870000  1
  C  C105  1  0.07250000  0.32780000  0.94490000  1
  C  C106  1  0.07270000  0.41820000  0.94030000  1
  C  C107  1  0.07770000  0.05010000  0.93950000  1
  C  C108  1  0.07940000  0.01490000  0.60530000  1
  C  C109  1  0.08070000  0.92430000  0.60810000  1
  C  C110  1  0.08100000  0.14040000  0.93490000  1
  C  C111  1  0.08190000  0.98750000  0.77430000  1
  C  C112  1  0.08630000  0.20540000  0.58860000  1
  C  C113  1  0.08800000  0.29480000  0.58730000  1
  C  C114  1  0.13850000  0.28480000  0.26900000  1
  C  C115  1  0.14140000  0.04840000  0.30370000  1
  C  C116  1  0.14260000  0.08750000  0.18440000  1
  C  C117  1  0.14750000  0.31680000  0.15050000  1
  C  C118  1  0.15070000  0.22050000  0.78920000  1
  C  C119  1  0.15170000  0.18690000  0.97450000  1
  C  C120  1  0.15280000  0.64800000  0.53240000  1
  C  C121  1  0.15580000  0.12380000  0.78760000  1
  C  C122  1  0.15580000  0.28310000  0.96670000  1
  C  C123  1  0.15630000  0.60530000  0.47370000  1
  C  C124  1  0.15860000  0.50990000  0.47030000  1
  C  C125  1  0.15890000  0.65250000  0.42180000  1
  C  C126  1  0.16030000  0.06320000  0.61770000  1
  C  C127  1  0.16130000  0.85220000  0.18080000  1
  C  C128  1  0.16150000  0.47230000  0.41020000  1
  C  C129  1  0.16160000  0.61850000  0.36390000  1
  C  C130  1  0.16260000  0.15880000  0.61960000  1
  C  C131  1  0.16330000  0.52830000  0.35970000  1
  C  C132  1  0.16380000  0.68700000  0.05340000  1
  C  C133  1  0.16400000  0.79810000  0.22920000  1
  C  C134  1  0.16430000  0.70830000  0.21990000  1
  C  C135  1  0.16540000  0.82110000  0.11780000  1
  C  C136  1  0.16580000  0.67440000  0.16440000  1
  C  C137  1  0.16680000  0.73010000  0.11310000  1
  C  C138  1  0.21570000  0.05300000  0.02320000  1
  C  C139  1  0.21720000  0.35960000  0.82050000  1
  C  C140  1  0.21900000  0.14320000  0.01860000  1
  C  C141  1  0.22150000  0.27220000  0.82140000  1
  C  C142  1  0.22200000  0.05030000  0.28600000  1
  C  C143  1  0.22370000  0.29040000  0.25680000  1
  C  C144  1  0.22740000  0.07720000  0.80860000  1
  C  C145  1  0.22780000  0.07360000  0.22720000  1
  C  C146  1  0.23060000  0.29420000  0.64750000  1
  C  C147  1  0.23180000  0.31060000  0.19600000  1
  C  C148  1  0.23260000  0.99100000  0.80540000  1
  C  C149  1  0.23310000  0.20630000  0.64820000  1
  C  C150  1  0.23310000  0.92090000  0.63620000  1
  C  C151  1  0.23830000  0.01130000  0.63820000  1
  C  C152  1  0.23950000  0.32880000  0.98390000  1
  C  C153  1  0.23970000  0.41910000  0.97920000  1
  C  C154  1  0.28030000  0.74830000  0.72860000  1
  C  C155  1  0.28820000  0.51420000  0.69390000  1
  C  C156  1  0.35830000  0.79180000  0.84100000  1
  C  C157  1  0.36090000  0.55370000  0.80700000  1
  C  C158  1  0.36460000  0.77130000  0.78000000  1
  C  C159  1  0.36980000  0.53790000  0.74710000  1
  C  C160  1  0.44350000  0.81110000  0.88430000  1
  C  C161  1  0.44720000  0.57410000  0.85410000  1
  C  C162  1  0.45000000  0.77150000  0.76220000  1
  C  C163  1  0.45660000  0.53600000  0.73330000  1
  C  C164  1  0.46590000  0.05890000  0.22270000  1
  C  C165  1  0.46910000  0.07240000  0.16190000  1
  C  C166  1  0.47000000  0.29580000  0.19380000  1
  C  C167  1  0.47310000  0.31250000  0.13210000  1
  C  C168  1  0.52690000  0.81250000  0.86790000  1
  C  C169  1  0.53000000  0.79580000  0.80620000  1
  C  C170  1  0.53090000  0.57240000  0.83810000  1
  C  C171  1  0.53410000  0.55890000  0.77730000  1
  C  C172  1  0.54340000  0.03600000  0.26670000  1
  C  C173  1  0.55000000  0.27150000  0.23780000  1
  C  C174  1  0.55280000  0.07410000  0.14590000  1
  C  C175  1  0.55650000  0.31110000  0.11570000  1
  C  C176  1  0.63020000  0.03790000  0.25290000  1
  C  C177  1  0.63540000  0.27130000  0.22000000  1
  C  C178  1  0.63910000  0.05370000  0.19300000  1
  C  C179  1  0.64170000  0.29180000  0.15900000  1
  C  C180  1  0.71180000  0.01420000  0.30610000  1
  C  C181  1  0.71970000  0.24830000  0.27140000  1
  C  C182  1  0.76030000  0.91910000  0.02080000  1
  C  C183  1  0.76050000  0.82880000  0.01610000  1
  C  C184  1  0.76170000  0.51130000  0.36180000  1
  C  C185  1  0.76690000  0.42090000  0.36380000  1
  C  C186  1  0.76690000  0.70630000  0.35180000  1
  C  C187  1  0.76740000  0.49100000  0.19460000  1
  C  C188  1  0.76820000  0.81060000  0.80400000  1
  C  C189  1  0.76940000  0.79420000  0.35250000  1
  C  C190  1  0.77220000  0.57360000  0.77280000  1
  C  C191  1  0.77260000  0.57720000  0.19140000  1
  C  C192  1  0.77630000  0.79040000  0.74320000  1
  C  C193  1  0.77800000  0.55030000  0.71400000  1
  C  C194  1  0.77850000  0.77220000  0.17860000  1
  C  C195  1  0.78100000  0.64320000  0.98140000  1
  C  C196  1  0.78280000  0.85960000  0.17950000  1
  C  C197  1  0.78430000  0.55300000  0.97680000  1
  C  C198  1  0.83320000  0.23010000  0.88690000  1
  C  C199  1  0.83420000  0.17440000  0.83560000  1
  C  C200  1  0.83460000  0.32110000  0.88220000  1
  C  C201  1  0.83570000  0.20830000  0.78010000  1
  C  C202  1  0.83600000  0.29810000  0.77080000  1
  C  C203  1  0.83620000  0.18700000  0.94660000  1
  C  C204  1  0.83670000  0.02830000  0.64030000  1
  C  C205  1  0.83740000  0.65880000  0.38040000  1
  C  C206  1  0.83840000  0.11850000  0.63610000  1
  C  C207  1  0.83850000  0.97230000  0.58980000  1
  C  C208  1  0.83870000  0.35220000  0.81920000  1
  C  C209  1  0.83970000  0.56320000  0.38230000  1
  C  C210  1  0.84110000  0.15250000  0.57820000  1
  C  C211  1  0.84140000  0.00990000  0.52970000  1
  C  C212  1  0.84370000  0.10530000  0.52630000  1
  C  C213  1  0.84420000  0.62380000  0.21240000  1
  C  C214  1  0.84420000  0.78310000  0.03330000  1
  C  C215  1  0.84720000  0.14800000  0.46760000  1
  C  C216  1  0.84830000  0.68690000  0.02550000  1
  C  C217  1  0.84930000  0.72050000  0.21080000  1
  C  C218  1  0.85250000  0.81680000  0.84950000  1
  C  C219  1  0.85740000  0.58750000  0.81560000  1
  C  C220  1  0.85860000  0.54840000  0.69630000  1
  C  C221  1  0.86150000  0.78480000  0.73100000  1
  C  C222  1  0.91200000  0.79480000  0.41270000  1
  C  C223  1  0.91370000  0.70540000  0.41140000  1
  C  C224  1  0.91810000  0.48750000  0.22570000  1
  C  C225  1  0.91900000  0.64040000  0.06510000  1
  C  C226  1  0.91930000  0.42430000  0.39190000  1
  C  C227  1  0.92060000  0.51490000  0.39470000  1
  C  C228  1  0.92230000  0.55010000  0.06050000  1
  C  C229  1  0.92730000  0.91820000  0.05970000  1
  C  C230  1  0.92750000  0.82780000  0.05510000  1
  C  C231  1  0.92800000  0.57050000  0.23130000  1
  C  C232  1  0.93400000  0.85620000  0.24120000  1
  C  C233  1  0.93500000  0.76630000  0.24040000  1
  C  C234  1  0.94320000  0.58510000  0.79990000  1
  C  C235  1  0.94340000  0.81720000  0.83510000  1
  C  C236  1  0.94450000  0.79510000  0.77320000  1
  C  C237  1  0.94720000  0.56550000  0.74070000  1
  C  C238  1  0.97220000  0.09990000  0.14820000  1
  C  C239  1  0.97830000  0.32840000  0.11270000  1
  N  N240  1  0.14430000  0.40330000  0.78860000  1
  N  N241  1  0.14500000  0.00640000  0.98360000  1
  N  N242  1  0.15640000  0.46380000  0.95740000  1
  N  N243  1  0.15690000  0.94360000  0.79160000  1
  N  N244  1  0.15870000  0.87350000  0.62350000  1
  N  N245  1  0.16010000  0.34210000  0.61510000  1
  N  N246  1  0.16290000  0.67410000  0.31700000  1
  N  N247  1  0.16350000  0.64780000  0.26610000  1
  N  N248  1  0.30880000  0.07670000  0.20300000  1
  N  N249  1  0.31140000  0.31060000  0.17290000  1
  N  N250  1  0.37940000  0.05960000  0.24300000  1
  N  N251  1  0.38500000  0.29330000  0.21330000  1
  N  N252  1  0.61500000  0.79330000  0.78670000  1
  N  N253  1  0.62060000  0.55960000  0.75700000  1
  N  N254  1  0.68860000  0.81060000  0.82710000  1
  N  N255  1  0.69120000  0.57670000  0.79700000  1
  N  N256  1  0.83650000  0.14780000  0.73390000  1
  N  N257  1  0.83710000  0.17410000  0.68300000  1
  N  N258  1  0.83990000  0.84210000  0.38490000  1
  N  N259  1  0.84130000  0.37350000  0.37650000  1
  N  N260  1  0.84310000  0.44360000  0.20840000  1
  N  N261  1  0.84360000  0.96380000  0.04260000  1
  N  N262  1  0.85500000  0.50640000  0.01640000  1
  N  N263  1  0.85570000  0.90330000  0.21140000  1
  O  O264  1  0.01080000  0.85610000  0.93910000  1
  O  O265  1  0.01910000  0.61150000  0.90540000  1
  O  O266  1  0.02060000  0.78870000  0.75480000  1
  O  O267  1  0.02320000  0.55710000  0.72040000  1
  O  O268  1  0.10530000  0.81850000  0.88020000  1
  O  O269  1  0.10910000  0.59610000  0.84230000  1
  O  O270  1  0.14580000  0.72910000  0.53200000  1
  O  O271  1  0.15150000  0.60790000  0.58330000  1
  O  O272  1  0.15270000  0.45610000  0.51260000  1
  O  O273  1  0.15920000  0.72870000  0.00120000  1
  O  O274  1  0.16460000  0.87610000  0.07600000  1
  O  O275  1  0.16680000  0.60300000  0.04850000  1
  O  O276  1  0.19810000  0.74550000  0.73850000  1
  O  O277  1  0.20330000  0.52320000  0.69890000  1
  O  O278  1  0.27880000  0.55650000  0.82520000  1
  O  O279  1  0.27980000  0.78790000  0.86070000  1
  O  O280  1  0.28830000  0.73210000  0.67550000  1
  O  O281  1  0.30300000  0.48780000  0.64520000  1
  O  O282  1  0.69700000  0.98780000  0.35480000  1
  O  O283  1  0.71170000  0.23210000  0.32450000  1
  O  O284  1  0.72020000  0.28790000  0.13930000  1
  O  O285  1  0.72120000  0.05650000  0.17480000  1
  O  O286  1  0.79670000  0.02320000  0.30110000  1
  O  O287  1  0.80190000  0.24550000  0.26150000  1
  O  O288  1  0.83320000  0.10300000  0.95150000  1
  O  O289  1  0.83540000  0.37610000  0.92400000  1
  O  O290  1  0.84080000  0.22870000  0.99880000  1
  O  O291  1  0.84730000  0.95610000  0.48740000  1
  O  O292  1  0.84850000  0.10790000  0.41670000  1
  O  O293  1  0.85420000  0.22910000  0.46800000  1
  O  O294  1  0.89090000  0.09610000  0.15770000  1
  O  O295  1  0.89470000  0.31850000  0.11980000  1
  O  O296  1  0.97680000  0.05710000  0.27960000  1
  O  O297  1  0.97940000  0.28870000  0.24520000  1
  O  O298  1  0.98090000  0.11150000  0.09460000  1
  O  O299  1  0.98920000  0.35610000  0.06090000  1
