# generated using pymatgen
data_TbH9(C3O2)3
_symmetry_space_group_name_H-M   'P 1'
_cell_length_a   9.62100000
_cell_length_b   13.90800000
_cell_length_c   15.33700000
_cell_angle_alpha   90.00000000
_cell_angle_beta   93.42500000
_cell_angle_gamma   90.00000000
_symmetry_Int_Tables_number   1
_chemical_formula_structural   TbH9(C3O2)3
_chemical_formula_sum   'Tb4 H36 C36 O24'
_cell_volume   2048.56103548
_cell_formula_units_Z   4
loop_
 _symmetry_equiv_pos_site_id
 _symmetry_equiv_pos_as_xyz
  1  'x, y, z'
loop_
 _atom_site_type_symbol
 _atom_site_label
 _atom_site_symmetry_multiplicity
 _atom_site_fract_x
 _atom_site_fract_y
 _atom_site_fract_z
 _atom_site_occupancy
  Tb  Tb0  1  0.04234000  0.11147000  0.91414000  1
  Tb  Tb1  1  0.45766000  0.61147000  0.58586000  1
  Tb  Tb2  1  0.54234000  0.38853000  0.41414000  1
  Tb  Tb3  1  0.95766000  0.88853000  0.08586000  1
  H  H4  1  0.01420000  0.73530000  0.35500000  1
  H  H5  1  0.05080000  0.46290000  0.32610000  1
  H  H6  1  0.05240000  0.46370000  0.42850000  1
  H  H7  1  0.09230000  0.40330000  0.57470000  1
  H  H8  1  0.10570000  0.40650000  0.75880000  1
  H  H9  1  0.16610000  0.61190000  0.43400000  1
  H  H10  1  0.16740000  0.60770000  0.25180000  1
  H  H11  1  0.19010000  0.33550000  0.70230000  1
  H  H12  1  0.23460000  0.68860000  0.31180000  1
  H  H13  1  0.26540000  0.18860000  0.18820000  1
  H  H14  1  0.30990000  0.83550000  0.79770000  1
  H  H15  1  0.33260000  0.10770000  0.24820000  1
  H  H16  1  0.33390000  0.11190000  0.06600000  1
  H  H17  1  0.39430000  0.90650000  0.74120000  1
  H  H18  1  0.40770000  0.90330000  0.92530000  1
  H  H19  1  0.44760000  0.96370000  0.07150000  1
  H  H20  1  0.44920000  0.96290000  0.17390000  1
  H  H21  1  0.48580000  0.23530000  0.14500000  1
  H  H22  1  0.51420000  0.76470000  0.85500000  1
  H  H23  1  0.55080000  0.03710000  0.82610000  1
  H  H24  1  0.55240000  0.03630000  0.92850000  1
  H  H25  1  0.59230000  0.09670000  0.07470000  1
  H  H26  1  0.60570000  0.09350000  0.25880000  1
  H  H27  1  0.66610000  0.88810000  0.93400000  1
  H  H28  1  0.66740000  0.89230000  0.75180000  1
  H  H29  1  0.69010000  0.16450000  0.20230000  1
  H  H30  1  0.73460000  0.81140000  0.81180000  1
  H  H31  1  0.76540000  0.31140000  0.68820000  1
  H  H32  1  0.80990000  0.66450000  0.29770000  1
  H  H33  1  0.83260000  0.39230000  0.74820000  1
  H  H34  1  0.83390000  0.38810000  0.56600000  1
  H  H35  1  0.89430000  0.59350000  0.24120000  1
  H  H36  1  0.90770000  0.59670000  0.42530000  1
  H  H37  1  0.94760000  0.53630000  0.57150000  1
  H  H38  1  0.94920000  0.53710000  0.67390000  1
  H  H39  1  0.98580000  0.26470000  0.64500000  1
  C  C40  1  0.00470000  0.76420000  0.22510000  1
  C  C41  1  0.01880000  0.69720000  0.30150000  1
  C  C42  1  0.04630000  0.50420000  0.37690000  1
  C  C43  1  0.09270000  0.44250000  0.62780000  1
  C  C44  1  0.10400000  0.37160000  0.70400000  1
  C  C45  1  0.15870000  0.64270000  0.30590000  1
  C  C46  1  0.17030000  0.57410000  0.38030000  1
  C  C47  1  0.19220000  0.01800000  0.11320000  1
  C  C48  1  0.21780000  0.50940000  0.62390000  1
  C  C49  1  0.28220000  0.00940000  0.87610000  1
  C  C50  1  0.30780000  0.51800000  0.38680000  1
  C  C51  1  0.32970000  0.07410000  0.11970000  1
  C  C52  1  0.34130000  0.14270000  0.19410000  1
  C  C53  1  0.39600000  0.87160000  0.79600000  1
  C  C54  1  0.40730000  0.94250000  0.87220000  1
  C  C55  1  0.45370000  0.00420000  0.12310000  1
  C  C56  1  0.48120000  0.19720000  0.19850000  1
  C  C57  1  0.49530000  0.26420000  0.27490000  1
  C  C58  1  0.50470000  0.73580000  0.72510000  1
  C  C59  1  0.51880000  0.80280000  0.80150000  1
  C  C60  1  0.54630000  0.99580000  0.87690000  1
  C  C61  1  0.59270000  0.05750000  0.12780000  1
  C  C62  1  0.60400000  0.12840000  0.20400000  1
  C  C63  1  0.65870000  0.85730000  0.80590000  1
  C  C64  1  0.67030000  0.92590000  0.88030000  1
  C  C65  1  0.69220000  0.48200000  0.61320000  1
  C  C66  1  0.71780000  0.99060000  0.12390000  1
  C  C67  1  0.78220000  0.49060000  0.37610000  1
  C  C68  1  0.80780000  0.98200000  0.88680000  1
  C  C69  1  0.82970000  0.42590000  0.61970000  1
  C  C70  1  0.84130000  0.35730000  0.69410000  1
  C  C71  1  0.89600000  0.62840000  0.29600000  1
  C  C72  1  0.90730000  0.55750000  0.37220000  1
  C  C73  1  0.95370000  0.49580000  0.62310000  1
  C  C74  1  0.98120000  0.30280000  0.69850000  1
  C  C75  1  0.99530000  0.23580000  0.77490000  1
  O  O76  1  0.06710000  0.75050000  0.15630000  1
  O  O77  1  0.07520000  0.16530000  0.76810000  1
  O  O78  1  0.10640000  0.03710000  0.05030000  1
  O  O79  1  0.16180000  0.97020000  0.86360000  1
  O  O80  1  0.16760000  0.95440000  0.16670000  1
  O  O81  1  0.20650000  0.59550000  0.60320000  1
  O  O82  1  0.29350000  0.09550000  0.89680000  1
  O  O83  1  0.33240000  0.45440000  0.33333333  1
  O  O84  1  0.33820000  0.47020000  0.63640000  1
  O  O85  1  0.39360000  0.53710000  0.44970000  1
  O  O86  1  0.42480000  0.66530000  0.73190000  1
  O  O87  1  0.43290000  0.25050000  0.34370000  1
  O  O88  1  0.56710000  0.74950000  0.65630000  1
  O  O89  1  0.57520000  0.33470000  0.26810000  1
  O  O90  1  0.60640000  0.46290000  0.55030000  1
  O  O91  1  0.66180000  0.52980000  0.36360000  1
  O  O92  1  0.66760000  0.54560000  0.66666667  1
  O  O93  1  0.70650000  0.90450000  0.10320000  1
  O  O94  1  0.79350000  0.40450000  0.39680000  1
  O  O95  1  0.83240000  0.04560000  0.83330000  1
  O  O96  1  0.83820000  0.02980000  0.13640000  1
  O  O97  1  0.89360000  0.96290000  0.94970000  1
  O  O98  1  0.92480000  0.83470000  0.23190000  1
  O  O99  1  0.93290000  0.24950000  0.84370000  1
