# generated using pymatgen
data_BaCu6H27C24(N2O7)3
_symmetry_space_group_name_H-M   'P 1'
_cell_length_a   13.92080000
_cell_length_b   17.70030000
_cell_length_c   17.70030000
_cell_angle_alpha   120.00000000
_cell_angle_beta   90.00000000
_cell_angle_gamma   90.00000000
_symmetry_Int_Tables_number   1
_chemical_formula_structural   BaCu6H27C24(N2O7)3
_chemical_formula_sum   'Ba2 Cu12 H54 C48 N12 O42'
_cell_volume   3777.07910163
_cell_formula_units_Z   2
loop_
 _symmetry_equiv_pos_site_id
 _symmetry_equiv_pos_as_xyz
  1  'x, y, z'
loop_
 _atom_site_type_symbol
 _atom_site_label
 _atom_site_symmetry_multiplicity
 _atom_site_fract_x
 _atom_site_fract_y
 _atom_site_fract_z
 _atom_site_occupancy
  Ba  Ba0  1  0.98623000  0.66666667  0.33333333  1
  Ba  Ba1  1  0.48623000  0.33333333  0.66666667  1
  Cu  Cu2  1  0.86454000  0.87458000  0.44105000  1
  Cu  Cu3  1  0.10980000  0.87357000  0.44429000  1
  Cu  Cu4  1  0.10980000  0.57072000  0.12643000  1
  Cu  Cu5  1  0.86454000  0.56647000  0.12542000  1
  Cu  Cu6  1  0.86454000  0.55895000  0.43353000  1
  Cu  Cu7  1  0.10980000  0.55571000  0.42928000  1
  Cu  Cu8  1  0.60980000  0.44429000  0.57072000  1
  Cu  Cu9  1  0.36454000  0.44105000  0.56647000  1
  Cu  Cu10  1  0.36454000  0.43353000  0.87458000  1
  Cu  Cu11  1  0.60980000  0.42928000  0.87357000  1
  Cu  Cu12  1  0.60980000  0.12643000  0.55571000  1
  Cu  Cu13  1  0.36454000  0.12542000  0.55895000  1
  H  H14  1  0.68300000  0.94020000  0.27520000  1
  H  H15  1  0.79350000  0.91170000  0.25860000  1
  H  H16  1  0.27880000  0.86540000  0.28300000  1
  H  H17  1  0.71280000  0.84840000  0.19330000  1
  H  H18  1  0.41020000  0.83970000  0.35980000  1
  H  H19  1  0.98900000  0.83900000  0.51300000  1
  H  H20  1  0.64830000  0.82450000  0.31270000  1
  H  H21  1  0.71280000  0.80670000  0.65510000  1
  H  H22  1  0.34460000  0.77440000  0.37530000  1
  H  H23  1  0.38080000  0.74680000  0.27910000  1
  H  H24  1  0.79350000  0.74140000  0.65310000  1
  H  H25  1  0.68300000  0.72480000  0.66500000  1
  H  H26  1  0.38080000  0.72090000  0.46770000  1
  H  H27  1  0.27880000  0.71700000  0.58240000  1
  H  H28  1  0.64830000  0.68730000  0.51180000  1
  H  H29  1  0.98900000  0.67400000  0.16100000  1
  H  H30  1  0.18300000  0.66500000  0.94020000  1
  H  H31  1  0.21280000  0.65510000  0.84840000  1
  H  H32  1  0.29350000  0.65310000  0.91170000  1
  H  H33  1  0.41020000  0.64020000  0.47990000  1
  H  H34  1  0.34460000  0.62470000  0.39910000  1
  H  H35  1  0.34460000  0.60090000  0.22560000  1
  H  H36  1  0.77880000  0.58240000  0.86540000  1
  H  H37  1  0.38080000  0.53230000  0.25320000  1
  H  H38  1  0.41020000  0.52010000  0.16030000  1
  H  H39  1  0.48900000  0.51300000  0.67400000  1
  H  H40  1  0.14830000  0.51180000  0.82450000  1
  H  H41  1  0.64830000  0.48820000  0.17550000  1
  H  H42  1  0.98900000  0.48700000  0.32600000  1
  H  H43  1  0.91020000  0.47990000  0.83970000  1
  H  H44  1  0.88080000  0.46770000  0.74680000  1
  H  H45  1  0.27880000  0.41760000  0.13460000  1
  H  H46  1  0.84460000  0.39910000  0.77440000  1
  H  H47  1  0.84460000  0.37530000  0.60090000  1
  H  H48  1  0.91020000  0.35980000  0.52010000  1
  H  H49  1  0.79350000  0.34690000  0.08830000  1
  H  H50  1  0.71280000  0.34490000  0.15160000  1
  H  H51  1  0.68300000  0.33500000  0.05980000  1
  H  H52  1  0.48900000  0.32600000  0.83900000  1
  H  H53  1  0.14830000  0.31270000  0.48820000  1
  H  H54  1  0.77880000  0.28300000  0.41760000  1
  H  H55  1  0.88080000  0.27910000  0.53230000  1
  H  H56  1  0.18300000  0.27520000  0.33500000  1
  H  H57  1  0.29350000  0.25860000  0.34690000  1
  H  H58  1  0.88080000  0.25320000  0.72090000  1
  H  H59  1  0.84460000  0.22560000  0.62470000  1
  H  H60  1  0.21280000  0.19330000  0.34490000  1
  H  H61  1  0.14830000  0.17550000  0.68730000  1
  H  H62  1  0.48900000  0.16100000  0.48700000  1
  H  H63  1  0.91020000  0.16030000  0.64020000  1
  H  H64  1  0.21280000  0.15160000  0.80670000  1
  H  H65  1  0.77880000  0.13460000  0.71700000  1
  H  H66  1  0.29350000  0.08830000  0.74140000  1
  H  H67  1  0.18300000  0.05980000  0.72480000  1
  C  C68  1  0.70970000  0.97630000  0.45770000  1
  C  C69  1  0.26500000  0.97560000  0.45730000  1
  C  C70  1  0.72750000  0.89090000  0.25430000  1
  C  C71  1  0.71580000  0.84440000  0.31390000  1
  C  C72  1  0.26390000  0.83850000  0.31970000  1
  C  C73  1  0.35930000  0.79560000  0.33500000  1
  C  C74  1  0.18890000  0.76770000  0.27610000  1
  C  C75  1  0.78720000  0.76630000  0.27560000  1
  C  C76  1  0.72750000  0.74570000  0.63660000  1
  C  C77  1  0.78720000  0.72440000  0.49070000  1
  C  C78  1  0.18890000  0.72390000  0.49160000  1
  C  C79  1  0.71580000  0.68610000  0.53050000  1
  C  C80  1  0.26390000  0.68030000  0.51880000  1
  C  C81  1  0.35930000  0.66500000  0.46060000  1
  C  C82  1  0.22750000  0.63660000  0.89090000  1
  C  C83  1  0.26500000  0.54270000  0.51830000  1
  C  C84  1  0.70970000  0.54230000  0.51860000  1
  C  C85  1  0.35930000  0.53940000  0.20440000  1
  C  C86  1  0.21580000  0.53050000  0.84440000  1
  C  C87  1  0.76390000  0.51880000  0.83850000  1
  C  C88  1  0.20970000  0.51860000  0.97630000  1
  C  C89  1  0.76500000  0.51830000  0.97560000  1
  C  C90  1  0.78720000  0.50930000  0.23370000  1
  C  C91  1  0.18890000  0.50840000  0.23230000  1
  C  C92  1  0.68890000  0.49160000  0.76770000  1
  C  C93  1  0.28720000  0.49070000  0.76630000  1
  C  C94  1  0.26500000  0.48170000  0.02440000  1
  C  C95  1  0.70970000  0.48140000  0.02370000  1
  C  C96  1  0.26390000  0.48120000  0.16150000  1
  C  C97  1  0.71580000  0.46950000  0.15560000  1
  C  C98  1  0.85930000  0.46060000  0.79560000  1
  C  C99  1  0.20970000  0.45770000  0.48140000  1
  C  C100  1  0.76500000  0.45730000  0.48170000  1
  C  C101  1  0.72750000  0.36340000  0.10910000  1
  C  C102  1  0.85930000  0.33500000  0.53940000  1
  C  C103  1  0.76390000  0.31970000  0.48120000  1
  C  C104  1  0.21580000  0.31390000  0.46950000  1
  C  C105  1  0.68890000  0.27610000  0.50840000  1
  C  C106  1  0.28720000  0.27560000  0.50930000  1
  C  C107  1  0.22750000  0.25430000  0.36340000  1
  C  C108  1  0.28720000  0.23370000  0.72440000  1
  C  C109  1  0.68890000  0.23230000  0.72390000  1
  C  C110  1  0.85930000  0.20440000  0.66500000  1
  C  C111  1  0.76390000  0.16150000  0.68030000  1
  C  C112  1  0.21580000  0.15560000  0.68610000  1
  C  C113  1  0.22750000  0.10910000  0.74570000  1
  C  C114  1  0.76500000  0.02440000  0.54270000  1
  C  C115  1  0.20970000  0.02370000  0.54230000  1
  N  N116  1  0.22350000  0.90350000  0.40400000  1
  N  N117  1  0.74820000  0.90210000  0.40240000  1
  N  N118  1  0.74820000  0.59760000  0.49970000  1
  N  N119  1  0.22350000  0.59600000  0.49950000  1
  N  N120  1  0.22350000  0.50050000  0.09650000  1
  N  N121  1  0.74820000  0.50030000  0.09790000  1
  N  N122  1  0.24820000  0.49970000  0.90210000  1
  N  N123  1  0.72350000  0.49950000  0.90350000  1
  N  N124  1  0.72350000  0.40400000  0.50050000  1
  N  N125  1  0.24820000  0.40240000  0.50030000  1
  N  N126  1  0.24820000  0.09790000  0.59760000  1
  N  N127  1  0.72350000  0.09650000  0.59600000  1
  O  O128  1  0.13200000  0.99020000  0.55380000  1
  O  O129  1  0.84060000  0.98850000  0.54900000  1
  O  O130  1  0.98850000  0.84350000  0.46860000  1
  O  O131  1  0.77150000  0.80050000  0.50440000  1
  O  O132  1  0.20290000  0.79710000  0.50270000  1
  O  O133  1  0.11350000  0.77380000  0.32330000  1
  O  O134  1  0.85950000  0.77160000  0.31960000  1
  O  O135  1  0.20290000  0.70560000  0.20290000  1
  O  O136  1  0.77150000  0.70390000  0.19950000  1
  O  O137  1  0.85950000  0.68040000  0.45200000  1
  O  O138  1  0.11350000  0.67670000  0.45050000  1
  O  O139  1  0.98850000  0.62510000  0.15650000  1
  O  O140  1  0.13200000  0.56360000  0.00980000  1
  O  O141  1  0.84060000  0.56050000  0.01150000  1
  O  O142  1  0.63200000  0.55380000  0.56360000  1
  O  O143  1  0.11350000  0.54950000  0.22620000  1
  O  O144  1  0.34060000  0.54900000  0.56050000  1
  O  O145  1  0.85950000  0.54800000  0.22840000  1
  O  O146  1  0.98850000  0.53140000  0.37490000  1
  O  O147  1  0.27150000  0.50440000  0.70390000  1
  O  O148  1  0.70290000  0.50270000  0.70560000  1
  O  O149  1  0.20290000  0.49730000  0.29440000  1
  O  O150  1  0.77150000  0.49560000  0.29610000  1
  O  O151  1  0.48850000  0.46860000  0.62510000  1
  O  O152  1  0.35950000  0.45200000  0.77160000  1
  O  O153  1  0.84060000  0.45100000  0.43950000  1
  O  O154  1  0.61350000  0.45050000  0.77380000  1
  O  O155  1  0.13200000  0.44620000  0.43640000  1
  O  O156  1  0.34060000  0.43950000  0.98850000  1
  O  O157  1  0.63200000  0.43640000  0.99020000  1
  O  O158  1  0.48850000  0.37490000  0.84350000  1
  O  O159  1  0.61350000  0.32330000  0.54950000  1
  O  O160  1  0.35950000  0.31960000  0.54800000  1
  O  O161  1  0.27150000  0.29610000  0.80050000  1
  O  O162  1  0.70290000  0.29440000  0.79710000  1
  O  O163  1  0.35950000  0.22840000  0.68040000  1
  O  O164  1  0.61350000  0.22620000  0.67670000  1
  O  O165  1  0.70290000  0.20290000  0.49730000  1
  O  O166  1  0.27150000  0.19950000  0.49560000  1
  O  O167  1  0.48850000  0.15650000  0.53140000  1
  O  O168  1  0.34060000  0.01150000  0.45100000  1
  O  O169  1  0.63200000  0.00980000  0.44620000  1
