# generated using pymatgen
data_Th2H9(C3O2)9
_symmetry_space_group_name_H-M   'P 1'
_cell_length_a   10.07140000
_cell_length_b   20.23270000
_cell_length_c   21.67300000
_cell_angle_alpha   97.85600000
_cell_angle_beta   90.00000000
_cell_angle_gamma   90.00000000
_symmetry_Int_Tables_number   1
_chemical_formula_structural   Th2H9(C3O2)9
_chemical_formula_sum   'Th8 H36 C108 O72'
_cell_volume   4374.89360331
_cell_formula_units_Z   4
loop_
 _symmetry_equiv_pos_site_id
 _symmetry_equiv_pos_as_xyz
  1  'x, y, z'
loop_
 _atom_site_type_symbol
 _atom_site_label
 _atom_site_symmetry_multiplicity
 _atom_site_fract_x
 _atom_site_fract_y
 _atom_site_fract_z
 _atom_site_occupancy
  Th  Th0  1  0.29057000  0.85104000  0.08694000  1
  Th  Th1  1  0.20943000  0.85104000  0.58694000  1
  Th  Th2  1  0.28556000  0.64352000  0.90696000  1
  Th  Th3  1  0.21444000  0.64352000  0.40696000  1
  Th  Th4  1  0.78556000  0.35648000  0.59304000  1
  Th  Th5  1  0.71444000  0.35648000  0.09304000  1
  Th  Th6  1  0.79057000  0.14896000  0.41306000  1
  Th  Th7  1  0.70943000  0.14896000  0.91306000  1
  H  H8  1  0.48410000  0.96980000  0.75980000  1
  H  H9  1  0.01590000  0.96980000  0.25980000  1
  H  H10  1  0.46570000  0.93930000  0.93890000  1
  H  H11  1  0.03430000  0.93930000  0.43890000  1
  H  H12  1  0.31500000  0.80310000  0.80370000  1
  H  H13  1  0.18500000  0.80310000  0.30370000  1
  H  H14  1  0.88130000  0.80260000  0.07920000  1
  H  H15  1  0.61870000  0.80260000  0.57920000  1
  H  H16  1  0.96090000  0.73510000  0.49760000  1
  H  H17  1  0.53910000  0.73510000  0.99760000  1
  H  H18  1  0.88530000  0.69710000  0.90800000  1
  H  H19  1  0.61470000  0.69710000  0.40800000  1
  H  H20  1  0.29910000  0.69600000  0.18980000  1
  H  H21  1  0.20090000  0.69600000  0.68980000  1
  H  H22  1  0.48390000  0.56960000  0.05820000  1
  H  H23  1  0.01610000  0.56960000  0.55820000  1
  H  H24  1  0.98450000  0.54460000  0.73860000  1
  H  H25  1  0.51550000  0.54460000  0.23860000  1
  H  H26  1  0.48450000  0.45540000  0.76140000  1
  H  H27  1  0.01550000  0.45540000  0.26140000  1
  H  H28  1  0.98390000  0.43040000  0.44180000  1
  H  H29  1  0.51610000  0.43040000  0.94180000  1
  H  H30  1  0.79910000  0.30400000  0.31020000  1
  H  H31  1  0.70090000  0.30400000  0.81020000  1
  H  H32  1  0.38530000  0.30290000  0.59200000  1
  H  H33  1  0.11470000  0.30290000  0.09200000  1
  H  H34  1  0.46090000  0.26490000  0.00240000  1
  H  H35  1  0.03910000  0.26490000  0.50240000  1
  H  H36  1  0.38130000  0.19740000  0.42080000  1
  H  H37  1  0.11870000  0.19740000  0.92080000  1
  H  H38  1  0.81500000  0.19690000  0.69630000  1
  H  H39  1  0.68500000  0.19690000  0.19630000  1
  H  H40  1  0.96570000  0.06070000  0.56110000  1
  H  H41  1  0.53430000  0.06070000  0.06110000  1
  H  H42  1  0.98410000  0.03020000  0.74020000  1
  H  H43  1  0.51590000  0.03020000  0.24020000  1
  C  C44  1  0.44640000  0.97040000  0.12770000  1
  C  C45  1  0.05360000  0.97040000  0.62770000  1
  C  C46  1  0.48580000  0.96450000  0.85240000  1
  C  C47  1  0.01420000  0.96450000  0.35240000  1
  C  C48  1  0.45700000  0.94390000  0.78980000  1
  C  C49  1  0.04300000  0.94390000  0.28980000  1
  C  C50  1  0.45020000  0.92490000  0.89690000  1
  C  C51  1  0.04980000  0.92490000  0.39690000  1
  C  C52  1  0.38840000  0.88500000  0.77170000  1
  C  C53  1  0.11160000  0.88500000  0.27170000  1
  C  C54  1  0.34550000  0.86610000  0.70560000  1
  C  C55  1  0.15450000  0.86610000  0.20560000  1
  C  C56  1  0.39080000  0.86290000  0.87820000  1
  C  C57  1  0.10920000  0.86290000  0.37820000  1
  C  C58  1  0.35760000  0.84360000  0.81570000  1
  C  C59  1  0.14240000  0.84360000  0.31570000  1
  C  C60  1  0.36340000  0.81680000  0.92480000  1
  C  C61  1  0.13660000  0.81680000  0.42480000  1
  C  C62  1  0.87540000  0.80670000  0.60390000  1
  C  C63  1  0.62460000  0.80670000  0.10390000  1
  C  C64  1  0.83580000  0.78020000  0.04530000  1
  C  C65  1  0.66420000  0.78020000  0.54530000  1
  C  C66  1  0.80340000  0.77500000  0.54720000  1
  C  C67  1  0.69660000  0.77500000  0.04720000  1
  C  C68  1  0.44790000  0.75860000  0.49110000  1
  C  C69  1  0.05210000  0.75860000  0.99110000  1
  C  C70  1  0.90520000  0.75200000  0.99310000  1
  C  C71  1  0.59480000  0.75200000  0.49310000  1
  C  C72  1  0.86910000  0.73950000  0.49630000  1
  C  C73  1  0.63090000  0.73950000  0.99630000  1
  C  C74  1  0.83800000  0.71680000  0.94260000  1
  C  C75  1  0.66200000  0.71680000  0.44260000  1
  C  C76  1  0.80080000  0.71090000  0.44400000  1
  C  C77  1  0.69920000  0.71090000  0.94400000  1
  C  C78  1  0.33390000  0.67860000  0.06810000  1
  C  C79  1  0.16610000  0.67860000  0.56810000  1
  C  C80  1  0.86950000  0.67340000  0.38860000  1
  C  C81  1  0.63050000  0.67340000  0.88860000  1
  C  C82  1  0.35200000  0.65860000  0.17870000  1
  C  C83  1  0.14800000  0.65860000  0.67870000  1
  C  C84  1  0.38610000  0.63930000  0.11650000  1
  C  C85  1  0.11390000  0.63930000  0.61650000  1
  C  C86  1  0.34760000  0.63730000  0.28960000  1
  C  C87  1  0.15240000  0.63730000  0.78960000  1
  C  C88  1  0.39710000  0.62170000  0.22400000  1
  C  C89  1  0.10290000  0.62170000  0.72400000  1
  C  C90  1  0.46440000  0.58360000  0.09990000  1
  C  C91  1  0.03560000  0.58360000  0.59990000  1
  C  C92  1  0.48120000  0.56770000  0.20790000  1
  C  C93  1  0.01880000  0.56770000  0.70790000  1
  C  C94  1  0.98610000  0.54830000  0.64580000  1
  C  C95  1  0.51390000  0.54830000  0.14580000  1
  C  C96  1  0.40170000  0.51230000  0.87210000  1
  C  C97  1  0.09830000  0.51230000  0.37210000  1
  C  C98  1  0.90170000  0.48770000  0.62790000  1
  C  C99  1  0.59830000  0.48770000  0.12790000  1
  C  C100  1  0.48610000  0.45170000  0.85420000  1
  C  C101  1  0.01390000  0.45170000  0.35420000  1
  C  C102  1  0.98120000  0.43230000  0.29210000  1
  C  C103  1  0.51880000  0.43230000  0.79210000  1
  C  C104  1  0.96440000  0.41640000  0.40010000  1
  C  C105  1  0.53560000  0.41640000  0.90010000  1
  C  C106  1  0.89710000  0.37830000  0.27600000  1
  C  C107  1  0.60290000  0.37830000  0.77600000  1
  C  C108  1  0.84760000  0.36270000  0.21040000  1
  C  C109  1  0.65240000  0.36270000  0.71040000  1
  C  C110  1  0.88610000  0.36070000  0.38350000  1
  C  C111  1  0.61390000  0.36070000  0.88350000  1
  C  C112  1  0.85200000  0.34140000  0.32130000  1
  C  C113  1  0.64800000  0.34140000  0.82130000  1
  C  C114  1  0.36950000  0.32660000  0.11140000  1
  C  C115  1  0.13050000  0.32660000  0.61140000  1
  C  C116  1  0.83390000  0.32140000  0.43190000  1
  C  C117  1  0.66610000  0.32140000  0.93190000  1
  C  C118  1  0.30080000  0.28910000  0.05600000  1
  C  C119  1  0.19920000  0.28910000  0.55600000  1
  C  C120  1  0.33800000  0.28320000  0.55740000  1
  C  C121  1  0.16200000  0.28320000  0.05740000  1
  C  C122  1  0.36910000  0.26050000  0.00370000  1
  C  C123  1  0.13090000  0.26050000  0.50370000  1
  C  C124  1  0.40520000  0.24800000  0.50690000  1
  C  C125  1  0.09480000  0.24800000  0.00690000  1
  C  C126  1  0.94790000  0.24140000  0.00890000  1
  C  C127  1  0.55210000  0.24140000  0.50890000  1
  C  C128  1  0.30340000  0.22500000  0.95280000  1
  C  C129  1  0.19660000  0.22500000  0.45280000  1
  C  C130  1  0.33580000  0.21980000  0.45470000  1
  C  C131  1  0.16420000  0.21980000  0.95470000  1
  C  C132  1  0.37540000  0.19330000  0.89610000  1
  C  C133  1  0.12460000  0.19330000  0.39610000  1
  C  C134  1  0.86340000  0.18320000  0.57520000  1
  C  C135  1  0.63660000  0.18320000  0.07520000  1
  C  C136  1  0.85760000  0.15640000  0.68430000  1
  C  C137  1  0.64240000  0.15640000  0.18430000  1
  C  C138  1  0.89080000  0.13710000  0.62180000  1
  C  C139  1  0.60920000  0.13710000  0.12180000  1
  C  C140  1  0.84550000  0.13390000  0.79440000  1
  C  C141  1  0.65450000  0.13390000  0.29440000  1
  C  C142  1  0.88840000  0.11500000  0.72830000  1
  C  C143  1  0.61160000  0.11500000  0.22830000  1
  C  C144  1  0.95020000  0.07510000  0.60310000  1
  C  C145  1  0.54980000  0.07510000  0.10310000  1
  C  C146  1  0.95700000  0.05610000  0.71020000  1
  C  C147  1  0.54300000  0.05610000  0.21020000  1
  C  C148  1  0.98580000  0.03550000  0.64760000  1
  C  C149  1  0.51420000  0.03550000  0.14760000  1
  C  C150  1  0.94640000  0.02960000  0.37230000  1
  C  C151  1  0.55360000  0.02960000  0.87230000  1
  O  O152  1  0.37770000  0.94430000  0.16691000  1
  O  O153  1  0.12230000  0.94430000  0.66691000  1
  O  O154  1  0.45620000  0.94310000  0.07230000  1
  O  O155  1  0.04380000  0.94310000  0.57230000  1
  O  O156  1  0.39500000  0.89330000  0.66218000  1
  O  O157  1  0.10500000  0.89330000  0.16218000  1
  O  O158  1  0.36510000  0.83850000  0.98173000  1
  O  O159  1  0.13490000  0.83850000  0.48173000  1
  O  O160  1  0.81230000  0.83260000  0.64810000  1
  O  O161  1  0.68770000  0.83260000  0.14810000  1
  O  O162  1  0.25250000  0.82390000  0.69477000  1
  O  O163  1  0.24750000  0.82390000  0.19477000  1
  O  O164  1  0.49890000  0.80750000  0.10160000  1
  O  O165  1  0.39860000  0.80750000  0.52600000  1
  O  O166  1  0.10140000  0.80750000  0.02600000  1
  O  O167  1  0.00110000  0.80750000  0.60160000  1
  O  O168  1  0.34310000  0.75740000  0.90380000  1
  O  O169  1  0.15690000  0.75740000  0.40380000  1
  O  O170  1  0.27190000  0.73180000  0.08510000  1
  O  O171  1  0.22810000  0.73180000  0.58510000  1
  O  O172  1  0.38370000  0.71660000  0.45580000  1
  O  O173  1  0.11630000  0.71660000  0.95580000  1
  O  O174  1  0.25780000  0.67240000  0.80000000  1
  O  O175  1  0.24220000  0.67240000  0.30000000  1
  O  O176  1  0.80910000  0.66050000  0.33990000  1
  O  O177  1  0.69090000  0.66050000  0.83990000  1
  O  O178  1  0.35220000  0.65590000  0.01258000  1
  O  O179  1  0.14780000  0.65590000  0.51258000  1
  O  O180  1  0.98720000  0.65360000  0.39580000  1
  O  O181  1  0.51280000  0.65360000  0.89580000  1
  O  O182  1  0.40450000  0.61610000  0.33257000  1
  O  O183  1  0.09550000  0.61610000  0.83257000  1
  O  O184  1  0.34760000  0.54080000  0.83070000  1
  O  O185  1  0.15240000  0.54080000  0.33070000  1
  O  O186  1  0.39070000  0.53540000  0.92860000  1
  O  O187  1  0.10930000  0.53540000  0.42860000  1
  O  O188  1  0.89070000  0.46460000  0.57140000  1
  O  O189  1  0.60930000  0.46460000  0.07140000  1
  O  O190  1  0.84760000  0.45920000  0.66930000  1
  O  O191  1  0.65240000  0.45920000  0.16930000  1
  O  O192  1  0.90450000  0.38390000  0.16743000  1
  O  O193  1  0.59550000  0.38390000  0.66743000  1
  O  O194  1  0.48720000  0.34640000  0.10420000  1
  O  O195  1  0.01280000  0.34640000  0.60420000  1
  O  O196  1  0.85220000  0.34410000  0.48742000  1
  O  O197  1  0.64780000  0.34410000  0.98742000  1
  O  O198  1  0.30910000  0.33950000  0.16010000  1
  O  O199  1  0.19090000  0.33950000  0.66010000  1
  O  O200  1  0.75780000  0.32760000  0.70000000  1
  O  O201  1  0.74220000  0.32760000  0.20000000  1
  O  O202  1  0.88370000  0.28340000  0.04420000  1
  O  O203  1  0.61630000  0.28340000  0.54420000  1
  O  O204  1  0.77190000  0.26820000  0.41490000  1
  O  O205  1  0.72810000  0.26820000  0.91490000  1
  O  O206  1  0.84310000  0.24260000  0.59620000  1
  O  O207  1  0.65690000  0.24260000  0.09620000  1
  O  O208  1  0.99890000  0.19250000  0.39840000  1
  O  O209  1  0.89860000  0.19250000  0.97400000  1
  O  O210  1  0.60140000  0.19250000  0.47400000  1
  O  O211  1  0.50110000  0.19250000  0.89840000  1
  O  O212  1  0.75250000  0.17610000  0.80523000  1
  O  O213  1  0.74750000  0.17610000  0.30523000  1
  O  O214  1  0.31230000  0.16740000  0.85190000  1
  O  O215  1  0.18770000  0.16740000  0.35190000  1
  O  O216  1  0.86510000  0.16150000  0.51827000  1
  O  O217  1  0.63490000  0.16150000  0.01827000  1
  O  O218  1  0.89500000  0.10670000  0.83782000  1
  O  O219  1  0.60500000  0.10670000  0.33782000  1
  O  O220  1  0.95620000  0.05690000  0.42770000  1
  O  O221  1  0.54380000  0.05690000  0.92770000  1
  O  O222  1  0.87770000  0.05570000  0.33309000  1
  O  O223  1  0.62230000  0.05570000  0.83309000  1
