# generated using pymatgen
data_Cd2H24C36N3(ClO2)3
_symmetry_space_group_name_H-M   'P 1'
_cell_length_a   15.12700000
_cell_length_b   18.19600000
_cell_length_c   18.19600000
_cell_angle_alpha   120.00000000
_cell_angle_beta   90.00000000
_cell_angle_gamma   90.00000000
_symmetry_Int_Tables_number   1
_chemical_formula_structural   Cd2H24C36N3(ClO2)3
_chemical_formula_sum   'Cd8 H96 C144 N12 Cl12 O24'
_cell_volume   4337.45812387
_cell_formula_units_Z   4
loop_
 _symmetry_equiv_pos_site_id
 _symmetry_equiv_pos_as_xyz
  1  'x, y, z'
loop_
 _atom_site_type_symbol
 _atom_site_label
 _atom_site_symmetry_multiplicity
 _atom_site_fract_x
 _atom_site_fract_y
 _atom_site_fract_z
 _atom_site_occupancy
  Cd  Cd0  1  0.25000000  0.78850000  0.21150000  1
  Cd  Cd1  1  0.25000000  0.78850000  0.57700000  1
  Cd  Cd2  1  0.25000000  0.66666667  0.33333333  1
  Cd  Cd3  1  0.75000000  0.57700000  0.78850000  1
  Cd  Cd4  1  0.25000000  0.42300000  0.21150000  1
  Cd  Cd5  1  0.75000000  0.33333333  0.66666667  1
  Cd  Cd6  1  0.75000000  0.21150000  0.42300000  1
  Cd  Cd7  1  0.75000000  0.21150000  0.78850000  1
  H  H8  1  0.87820000  0.98300000  0.30470000  1
  H  H9  1  0.62180000  0.98300000  0.67830000  1
  H  H10  1  0.58630000  0.98170000  0.18130000  1
  H  H11  1  0.91370000  0.98170000  0.80040000  1
  H  H12  1  0.41590000  0.93550000  0.38250000  1
  H  H13  1  0.08410000  0.93550000  0.55300000  1
  H  H14  1  0.69110000  0.92660000  0.34980000  1
  H  H15  1  0.80890000  0.92660000  0.57680000  1
  H  H16  1  0.95720000  0.90320000  0.16020000  1
  H  H17  1  0.54280000  0.90320000  0.74300000  1
  H  H18  1  0.05890000  0.87160000  0.42560000  1
  H  H19  1  0.44110000  0.87160000  0.44600000  1
  H  H20  1  0.54280000  0.83980000  0.09680000  1
  H  H21  1  0.95720000  0.83980000  0.74300000  1
  H  H22  1  0.91370000  0.81870000  0.01830000  1
  H  H23  1  0.58630000  0.81870000  0.80040000  1
  H  H24  1  0.08630000  0.80040000  0.81870000  1
  H  H25  1  0.41370000  0.80040000  0.98170000  1
  H  H26  1  0.01140000  0.79140000  0.28790000  1
  H  H27  1  0.48860000  0.79140000  0.50350000  1
  H  H28  1  0.64330000  0.78670000  0.26810000  1
  H  H29  1  0.85670000  0.78670000  0.51860000  1
  H  H30  1  0.45720000  0.74300000  0.83980000  1
  H  H31  1  0.04280000  0.74300000  0.90320000  1
  H  H32  1  0.85670000  0.73190000  0.21330000  1
  H  H33  1  0.64330000  0.73190000  0.51860000  1
  H  H34  1  0.48860000  0.71210000  0.20860000  1
  H  H35  1  0.01140000  0.71210000  0.50350000  1
  H  H36  1  0.62180000  0.69530000  0.01700000  1
  H  H37  1  0.87820000  0.69530000  0.67830000  1
  H  H38  1  0.37820000  0.67830000  0.69530000  1
  H  H39  1  0.12180000  0.67830000  0.98300000  1
  H  H40  1  0.80890000  0.65020000  0.07340000  1
  H  H41  1  0.69110000  0.65020000  0.57680000  1
  H  H42  1  0.08410000  0.61750000  0.06450000  1
  H  H43  1  0.41590000  0.61750000  0.55300000  1
  H  H44  1  0.19110000  0.57680000  0.65020000  1
  H  H45  1  0.30890000  0.57680000  0.92660000  1
  H  H46  1  0.44110000  0.57440000  0.12840000  1
  H  H47  1  0.05890000  0.57440000  0.44600000  1
  H  H48  1  0.05890000  0.55400000  0.12840000  1
  H  H49  1  0.44110000  0.55400000  0.42560000  1
  H  H50  1  0.91590000  0.55300000  0.61750000  1
  H  H51  1  0.58410000  0.55300000  0.93550000  1
  H  H52  1  0.14330000  0.51860000  0.73190000  1
  H  H53  1  0.35670000  0.51860000  0.78670000  1
  H  H54  1  0.51140000  0.50350000  0.71210000  1
  H  H55  1  0.98860000  0.50350000  0.79140000  1
  H  H56  1  0.01140000  0.49650000  0.20860000  1
  H  H57  1  0.48860000  0.49650000  0.28790000  1
  H  H58  1  0.64330000  0.48140000  0.21330000  1
  H  H59  1  0.85670000  0.48140000  0.26810000  1
  H  H60  1  0.41590000  0.44700000  0.06450000  1
  H  H61  1  0.08410000  0.44700000  0.38250000  1
  H  H62  1  0.55890000  0.44600000  0.57440000  1
  H  H63  1  0.94110000  0.44600000  0.87160000  1
  H  H64  1  0.94110000  0.42560000  0.55400000  1
  H  H65  1  0.55890000  0.42560000  0.87160000  1
  H  H66  1  0.69110000  0.42320000  0.07340000  1
  H  H67  1  0.80890000  0.42320000  0.34980000  1
  H  H68  1  0.58410000  0.38250000  0.44700000  1
  H  H69  1  0.91590000  0.38250000  0.93550000  1
  H  H70  1  0.30890000  0.34980000  0.42320000  1
  H  H71  1  0.19110000  0.34980000  0.92660000  1
  H  H72  1  0.87820000  0.32170000  0.01700000  1
  H  H73  1  0.62180000  0.32170000  0.30470000  1
  H  H74  1  0.12180000  0.30470000  0.32170000  1
  H  H75  1  0.37820000  0.30470000  0.98300000  1
  H  H76  1  0.98860000  0.28790000  0.49650000  1
  H  H77  1  0.51140000  0.28790000  0.79140000  1
  H  H78  1  0.35670000  0.26810000  0.48140000  1
  H  H79  1  0.14330000  0.26810000  0.78670000  1
  H  H80  1  0.95720000  0.25700000  0.09680000  1
  H  H81  1  0.54280000  0.25700000  0.16020000  1
  H  H82  1  0.14330000  0.21330000  0.48140000  1
  H  H83  1  0.35670000  0.21330000  0.73190000  1
  H  H84  1  0.51140000  0.20860000  0.49650000  1
  H  H85  1  0.98860000  0.20860000  0.71210000  1
  H  H86  1  0.58630000  0.19960000  0.01830000  1
  H  H87  1  0.91370000  0.19960000  0.18130000  1
  H  H88  1  0.41370000  0.18130000  0.19960000  1
  H  H89  1  0.08630000  0.18130000  0.98170000  1
  H  H90  1  0.04280000  0.16020000  0.25700000  1
  H  H91  1  0.45720000  0.16020000  0.90320000  1
  H  H92  1  0.55890000  0.12840000  0.55400000  1
  H  H93  1  0.94110000  0.12840000  0.57440000  1
  H  H94  1  0.45720000  0.09680000  0.25700000  1
  H  H95  1  0.04280000  0.09680000  0.83980000  1
  H  H96  1  0.19110000  0.07340000  0.42320000  1
  H  H97  1  0.30890000  0.07340000  0.65020000  1
  H  H98  1  0.91590000  0.06450000  0.44700000  1
  H  H99  1  0.58410000  0.06450000  0.61750000  1
  H  H100  1  0.08630000  0.01830000  0.19960000  1
  H  H101  1  0.41370000  0.01830000  0.81870000  1
  H  H102  1  0.37820000  0.01700000  0.32170000  1
  H  H103  1  0.12180000  0.01700000  0.69530000  1
  C  C104  1  0.43500000  0.99280000  0.40830000  1
  C  C105  1  0.06500000  0.99280000  0.58450000  1
  C  C106  1  0.98570000  0.97400000  0.45470000  1
  C  C107  1  0.51430000  0.97400000  0.51930000  1
  C  C108  1  0.64670000  0.96610000  0.27160000  1
  C  C109  1  0.85330000  0.96610000  0.69450000  1
  C  C110  1  0.91140000  0.95850000  0.33140000  1
  C  C111  1  0.58860000  0.95850000  0.62710000  1
  C  C112  1  0.17810000  0.94330000  0.26810000  1
  C  C113  1  0.32190000  0.94330000  0.67520000  1
  C  C114  1  0.60030000  0.94140000  0.19810000  1
  C  C115  1  0.89970000  0.94140000  0.74330000  1
  C  C116  1  0.66140000  0.90920000  0.29760000  1
  C  C117  1  0.83860000  0.90920000  0.61160000  1
  C  C118  1  0.01710000  0.89480000  0.40380000  1
  C  C119  1  0.48290000  0.89480000  0.49100000  1
  C  C120  1  0.57380000  0.85750000  0.14840000  1
  C  C121  1  0.92620000  0.85750000  0.70910000  1
  C  C122  1  0.92620000  0.85160000  0.14250000  1
  C  C123  1  0.57380000  0.85160000  0.70910000  1
  C  C124  1  0.98980000  0.84770000  0.32150000  1
  C  C125  1  0.51020000  0.84770000  0.52620000  1
  C  C126  1  0.63350000  0.82600000  0.24900000  1
  C  C127  1  0.86650000  0.82600000  0.57700000  1
  C  C128  1  0.90740000  0.82550000  0.19920000  1
  C  C129  1  0.59260000  0.82550000  0.62630000  1
  C  C130  1  0.89970000  0.80190000  0.05860000  1
  C  C131  1  0.60030000  0.80190000  0.74330000  1
  C  C132  1  0.59260000  0.80080000  0.17450000  1
  C  C133  1  0.90740000  0.80080000  0.62630000  1
  C  C134  1  0.86650000  0.75100000  0.17400000  1
  C  C135  1  0.63350000  0.75100000  0.57700000  1
  C  C136  1  0.10030000  0.74330000  0.80190000  1
  C  C137  1  0.39970000  0.74330000  0.94140000  1
  C  C138  1  0.32190000  0.73190000  0.05670000  1
  C  C139  1  0.17810000  0.73190000  0.67520000  1
  C  C140  1  0.85330000  0.72840000  0.03390000  1
  C  C141  1  0.64670000  0.72840000  0.69450000  1
  C  C142  1  0.07380000  0.70910000  0.85160000  1
  C  C143  1  0.42620000  0.70910000  0.85750000  1
  C  C144  1  0.83860000  0.70240000  0.09080000  1
  C  C145  1  0.66140000  0.70240000  0.61160000  1
  C  C146  1  0.14670000  0.69450000  0.72840000  1
  C  C147  1  0.35330000  0.69450000  0.96610000  1
  C  C148  1  0.51020000  0.67850000  0.15230000  1
  C  C149  1  0.98980000  0.67850000  0.52620000  1
  C  C150  1  0.67810000  0.67520000  0.73190000  1
  C  C151  1  0.82190000  0.67520000  0.94330000  1
  C  C152  1  0.58860000  0.66860000  0.04150000  1
  C  C153  1  0.91140000  0.66860000  0.62710000  1
  C  C154  1  0.41140000  0.62710000  0.66860000  1
  C  C155  1  0.08860000  0.62710000  0.95850000  1
  C  C156  1  0.40740000  0.62630000  0.80080000  1
  C  C157  1  0.09260000  0.62630000  0.82550000  1
  C  C158  1  0.16140000  0.61160000  0.70240000  1
  C  C159  1  0.33860000  0.61160000  0.90920000  1
  C  C160  1  0.48290000  0.59620000  0.10520000  1
  C  C161  1  0.01710000  0.59620000  0.49100000  1
  C  C162  1  0.06500000  0.59170000  0.00720000  1
  C  C163  1  0.43500000  0.59170000  0.58450000  1
  C  C164  1  0.93500000  0.58450000  0.59170000  1
  C  C165  1  0.56500000  0.58450000  0.99280000  1
  C  C166  1  0.13350000  0.57700000  0.75100000  1
  C  C167  1  0.36650000  0.57700000  0.82600000  1
  C  C168  1  0.51430000  0.54530000  0.02600000  1
  C  C169  1  0.98570000  0.54530000  0.51930000  1
  C  C170  1  0.48980000  0.52620000  0.67850000  1
  C  C171  1  0.01020000  0.52620000  0.84770000  1
  C  C172  1  0.48570000  0.51930000  0.54530000  1
  C  C173  1  0.01430000  0.51930000  0.97400000  1
  C  C174  1  0.01710000  0.50900000  0.10520000  1
  C  C175  1  0.48290000  0.50900000  0.40380000  1
  C  C176  1  0.51710000  0.49100000  0.59620000  1
  C  C177  1  0.98290000  0.49100000  0.89480000  1
  C  C178  1  0.98570000  0.48070000  0.02600000  1
  C  C179  1  0.51430000  0.48070000  0.45470000  1
  C  C180  1  0.98980000  0.47380000  0.15230000  1
  C  C181  1  0.51020000  0.47380000  0.32150000  1
  C  C182  1  0.01430000  0.45470000  0.48070000  1
  C  C183  1  0.48570000  0.45470000  0.97400000  1
  C  C184  1  0.63350000  0.42300000  0.17400000  1
  C  C185  1  0.86650000  0.42300000  0.24900000  1
  C  C186  1  0.43500000  0.41550000  0.00720000  1
  C  C187  1  0.06500000  0.41550000  0.40830000  1
  C  C188  1  0.56500000  0.40830000  0.41550000  1
  C  C189  1  0.93500000  0.40830000  0.99280000  1
  C  C190  1  0.98290000  0.40380000  0.50900000  1
  C  C191  1  0.51710000  0.40380000  0.89480000  1
  C  C192  1  0.66140000  0.38840000  0.09080000  1
  C  C193  1  0.83860000  0.38840000  0.29760000  1
  C  C194  1  0.90740000  0.37370000  0.17450000  1
  C  C195  1  0.59260000  0.37370000  0.19920000  1
  C  C196  1  0.91140000  0.37290000  0.04150000  1
  C  C197  1  0.58860000  0.37290000  0.33140000  1
  C  C198  1  0.08860000  0.33140000  0.37290000  1
  C  C199  1  0.41140000  0.33140000  0.95850000  1
  C  C200  1  0.17810000  0.32480000  0.05670000  1
  C  C201  1  0.32190000  0.32480000  0.26810000  1
  C  C202  1  0.01020000  0.32150000  0.47380000  1
  C  C203  1  0.48980000  0.32150000  0.84770000  1
  C  C204  1  0.64670000  0.30550000  0.03390000  1
  C  C205  1  0.85330000  0.30550000  0.27160000  1
  C  C206  1  0.33860000  0.29760000  0.38840000  1
  C  C207  1  0.16140000  0.29760000  0.90920000  1
  C  C208  1  0.57380000  0.29090000  0.14250000  1
  C  C209  1  0.92620000  0.29090000  0.14840000  1
  C  C210  1  0.35330000  0.27160000  0.30550000  1
  C  C211  1  0.14670000  0.27160000  0.96610000  1
  C  C212  1  0.82190000  0.26810000  0.32480000  1
  C  C213  1  0.67810000  0.26810000  0.94330000  1
  C  C214  1  0.60030000  0.25670000  0.05860000  1
  C  C215  1  0.89970000  0.25670000  0.19810000  1
  C  C216  1  0.36650000  0.24900000  0.42300000  1
  C  C217  1  0.13350000  0.24900000  0.82600000  1
  C  C218  1  0.09260000  0.19920000  0.37370000  1
  C  C219  1  0.40740000  0.19920000  0.82550000  1
  C  C220  1  0.39970000  0.19810000  0.25670000  1
  C  C221  1  0.10030000  0.19810000  0.94140000  1
  C  C222  1  0.40740000  0.17450000  0.37370000  1
  C  C223  1  0.09260000  0.17450000  0.80080000  1
  C  C224  1  0.13350000  0.17400000  0.42300000  1
  C  C225  1  0.36650000  0.17400000  0.75100000  1
  C  C226  1  0.48980000  0.15230000  0.47380000  1
  C  C227  1  0.01020000  0.15230000  0.67850000  1
  C  C228  1  0.42620000  0.14840000  0.29090000  1
  C  C229  1  0.07380000  0.14840000  0.85750000  1
  C  C230  1  0.07380000  0.14250000  0.29090000  1
  C  C231  1  0.42620000  0.14250000  0.85160000  1
  C  C232  1  0.51710000  0.10520000  0.50900000  1
  C  C233  1  0.98290000  0.10520000  0.59620000  1
  C  C234  1  0.16140000  0.09080000  0.38840000  1
  C  C235  1  0.33860000  0.09080000  0.70240000  1
  C  C236  1  0.10030000  0.05860000  0.25670000  1
  C  C237  1  0.39970000  0.05860000  0.80190000  1
  C  C238  1  0.67810000  0.05670000  0.32480000  1
  C  C239  1  0.82190000  0.05670000  0.73190000  1
  C  C240  1  0.41140000  0.04150000  0.37290000  1
  C  C241  1  0.08860000  0.04150000  0.66860000  1
  C  C242  1  0.14670000  0.03390000  0.30550000  1
  C  C243  1  0.35330000  0.03390000  0.72840000  1
  C  C244  1  0.48570000  0.02600000  0.48070000  1
  C  C245  1  0.01430000  0.02600000  0.54530000  1
  C  C246  1  0.93500000  0.00720000  0.41550000  1
  C  C247  1  0.56500000  0.00720000  0.59170000  1
  N  N248  1  0.93510000  0.87750000  0.28770000  1
  N  N249  1  0.56490000  0.87750000  0.58980000  1
  N  N250  1  0.56490000  0.71230000  0.12250000  1
  N  N251  1  0.93510000  0.71230000  0.58980000  1
  N  N252  1  0.43510000  0.58980000  0.71230000  1
  N  N253  1  0.06490000  0.58980000  0.87750000  1
  N  N254  1  0.93510000  0.41020000  0.12250000  1
  N  N255  1  0.56490000  0.41020000  0.28770000  1
  N  N256  1  0.06490000  0.28770000  0.41020000  1
  N  N257  1  0.43510000  0.28770000  0.87750000  1
  N  N258  1  0.43510000  0.12250000  0.41020000  1
  N  N259  1  0.06490000  0.12250000  0.71230000  1
  Cl  Cl260  1  0.35393000  0.77030000  0.31073000  1
  Cl  Cl261  1  0.14607000  0.77030000  0.45957000  1
  Cl  Cl262  1  0.14607000  0.68927000  0.22970000  1
  Cl  Cl263  1  0.35393000  0.68927000  0.45957000  1
  Cl  Cl264  1  0.35393000  0.54043000  0.22970000  1
  Cl  Cl265  1  0.14607000  0.54043000  0.31073000  1
  Cl  Cl266  1  0.85393000  0.45957000  0.68927000  1
  Cl  Cl267  1  0.64607000  0.45957000  0.77030000  1
  Cl  Cl268  1  0.64607000  0.31073000  0.54043000  1
  Cl  Cl269  1  0.85393000  0.31073000  0.77030000  1
  Cl  Cl270  1  0.85393000  0.22970000  0.54043000  1
  Cl  Cl271  1  0.64607000  0.22970000  0.68927000  1
  O  O272  1  0.23670000  0.92820000  0.30540000  1
  O  O273  1  0.26330000  0.92820000  0.62280000  1
  O  O274  1  0.14530000  0.88610000  0.20120000  1
  O  O275  1  0.35470000  0.88610000  0.68490000  1
  O  O276  1  0.35470000  0.79880000  0.11390000  1
  O  O277  1  0.14530000  0.79880000  0.68490000  1
  O  O278  1  0.26330000  0.69460000  0.07180000  1
  O  O279  1  0.23670000  0.69460000  0.62280000  1
  O  O280  1  0.64530000  0.68490000  0.79880000  1
  O  O281  1  0.85470000  0.68490000  0.88610000  1
  O  O282  1  0.73670000  0.62280000  0.69460000  1
  O  O283  1  0.76330000  0.62280000  0.92820000  1
  O  O284  1  0.23670000  0.37720000  0.07180000  1
  O  O285  1  0.26330000  0.37720000  0.30540000  1
  O  O286  1  0.14530000  0.31510000  0.11390000  1
  O  O287  1  0.35470000  0.31510000  0.20120000  1
  O  O288  1  0.76330000  0.30540000  0.37720000  1
  O  O289  1  0.73670000  0.30540000  0.92820000  1
  O  O290  1  0.85470000  0.20120000  0.31510000  1
  O  O291  1  0.64530000  0.20120000  0.88610000  1
  O  O292  1  0.64530000  0.11390000  0.31510000  1
  O  O293  1  0.85470000  0.11390000  0.79880000  1
  O  O294  1  0.73670000  0.07180000  0.37720000  1
  O  O295  1  0.76330000  0.07180000  0.69460000  1
