# generated using pymatgen
data_ZnH19C22N5O4
_symmetry_space_group_name_H-M   'P 1'
_cell_length_a   11.56700000
_cell_length_b   11.83930000
_cell_length_c   14.22700000
_cell_angle_alpha   112.49700000
_cell_angle_beta   90.00000000
_cell_angle_gamma   119.24200000
_symmetry_Int_Tables_number   1
_chemical_formula_structural   ZnH19C22N5O4
_chemical_formula_sum   'Zn2 H38 C44 N10 O8'
_cell_volume   1527.85830835
_cell_formula_units_Z   2
loop_
 _symmetry_equiv_pos_site_id
 _symmetry_equiv_pos_as_xyz
  1  'x, y, z'
loop_
 _atom_site_type_symbol
 _atom_site_label
 _atom_site_symmetry_multiplicity
 _atom_site_fract_x
 _atom_site_fract_y
 _atom_site_fract_z
 _atom_site_occupancy
  Zn  Zn0  1  0.34514000  0.71626000  0.75624000  1
  Zn  Zn1  1  0.37112000  0.71626000  0.25624000  1
  H  H2  1  0.01060000  0.85360000  0.93670000  1
  H  H3  1  0.02050000  0.55740000  0.89080000  1
  H  H4  1  0.02560000  0.18640000  0.46830000  1
  H  H5  1  0.05590000  0.90520000  0.50120000  1
  H  H6  1  0.07120000  0.49740000  0.47360000  1
  H  H7  1  0.08970000  0.70320000  0.88150000  1
  H  H8  1  0.13530000  0.55380000  0.04770000  1
  H  H9  1  0.13590000  0.76300000  0.64660000  1
  H  H10  1  0.16080000  0.18640000  0.96830000  1
  H  H11  1  0.17480000  0.45660000  0.31780000  1
  H  H12  1  0.18970000  0.00680000  0.87010000  1
  H  H13  1  0.19550000  0.89660000  0.62040000  1
  H  H14  1  0.28180000  0.45660000  0.81780000  1
  H  H15  1  0.28490000  0.94160000  0.05350000  1
  H  H16  1  0.31500000  0.88580000  0.46220000  1
  H  H17  1  0.41850000  0.55380000  0.54770000  1
  H  H18  1  0.42380000  0.97380000  0.20830000  1
  H  H19  1  0.42620000  0.49740000  0.97360000  1
  H  H20  1  0.53080000  0.42180000  0.14610000  1
  H  H21  1  0.53690000  0.55740000  0.39080000  1
  H  H22  1  0.55000000  0.97380000  0.70830000  1
  H  H23  1  0.56970000  0.20940000  0.49600000  1
  H  H24  1  0.57080000  0.88580000  0.96220000  1
  H  H25  1  0.61350000  0.70320000  0.38150000  1
  H  H26  1  0.62710000  0.76300000  0.14660000  1
  H  H27  1  0.63970000  0.20940000  0.99600000  1
  H  H28  1  0.65670000  0.94160000  0.55350000  1
  H  H29  1  0.66390000  0.34260000  0.59230000  1
  H  H30  1  0.66590000  0.52860000  0.51930000  1
  H  H31  1  0.67870000  0.34260000  0.09230000  1
  H  H32  1  0.70110000  0.89660000  0.12040000  1
  H  H33  1  0.70140000  0.58020000  0.08380000  1
  H  H34  1  0.81710000  0.00680000  0.37010000  1
  H  H35  1  0.84300000  0.85360000  0.43670000  1
  H  H36  1  0.84930000  0.90520000  0.00120000  1
  H  H37  1  0.86270000  0.52860000  0.01930000  1
  H  H38  1  0.87880000  0.58020000  0.58380000  1
  H  H39  1  0.89100000  0.42180000  0.64610000  1
  C  C40  1  0.05910000  0.66020000  0.92960000  1
  C  C41  1  0.12640000  0.56600000  0.45110000  1
  C  C42  1  0.12670000  0.43160000  0.62980000  1
  C  C43  1  0.13360000  0.79320000  0.59250000  1
  C  C44  1  0.18690000  0.54440000  0.36390000  1
  C  C45  1  0.19120000  0.65160000  0.06630000  1
  C  C46  1  0.24490000  0.19780000  0.98420000  1
  C  C47  1  0.26030000  0.09040000  0.92400000  1
  C  C48  1  0.26550000  0.78740000  0.44340000  1
  C  C49  1  0.27410000  0.86880000  0.07020000  1
  C  C50  1  0.30490000  0.43160000  0.12980000  1
  C  C51  1  0.33980000  0.32300000  0.06700000  1
  C  C52  1  0.35240000  0.88720000  0.15710000  1
  C  C53  1  0.35750000  0.54440000  0.86390000  1
  C  C54  1  0.38960000  0.11000000  0.94600000  1
  C  C55  1  0.40410000  0.98340000  0.88200000  1
  C  C56  1  0.43960000  0.56600000  0.95110000  1
  C  C57  1  0.46040000  0.65160000  0.56630000  1
  C  C58  1  0.46430000  0.33900000  0.08910000  1
  C  C59  1  0.49620000  0.23280000  0.02790000  1
  C  C60  1  0.52190000  0.78740000  0.94340000  1
  C  C61  1  0.53480000  0.88720000  0.65710000  1
  C  C62  1  0.57930000  0.98340000  0.38200000  1
  C  C63  1  0.59470000  0.86880000  0.57020000  1
  C  C64  1  0.60110000  0.66020000  0.42960000  1
  C  C65  1  0.65960000  0.79320000  0.09250000  1
  C  C66  1  0.72040000  0.11000000  0.44600000  1
  C  C67  1  0.73340000  0.68600000  0.47160000  1
  C  C68  1  0.73660000  0.23280000  0.52790000  1
  C  C69  1  0.74410000  0.60400000  0.51560000  1
  C  C70  1  0.75930000  0.74780000  0.04890000  1
  C  C71  1  0.76330000  0.63500000  0.05430000  1
  C  C72  1  0.83010000  0.09040000  0.42400000  1
  C  C73  1  0.85020000  0.79880000  0.46620000  1
  C  C74  1  0.85200000  0.82980000  0.00480000  1
  C  C75  1  0.85990000  0.60400000  0.01560000  1
  C  C76  1  0.87170000  0.63500000  0.55430000  1
  C  C77  1  0.87470000  0.33900000  0.58910000  1
  C  C78  1  0.94860000  0.79880000  0.96620000  1
  C  C79  1  0.95260000  0.68600000  0.97160000  1
  C  C80  1  0.95290000  0.19780000  0.48420000  1
  C  C81  1  0.97780000  0.82980000  0.50480000  1
  C  C82  1  0.98320000  0.32300000  0.56700000  1
  C  C83  1  0.98850000  0.74780000  0.54890000  1
  N  N84  1  0.16750000  0.71460000  0.49740000  1
  N  N85  1  0.17780000  0.72200000  0.01400000  1
  N  N86  1  0.27010000  0.67960000  0.35790000  1
  N  N87  1  0.30160000  0.74980000  0.15120000  1
  N  N88  1  0.40950000  0.67960000  0.85790000  1
  N  N89  1  0.44820000  0.74980000  0.65120000  1
  N  N90  1  0.54420000  0.72200000  0.51400000  1
  N  N91  1  0.54710000  0.71460000  0.99740000  1
  N  N92  1  0.61760000  0.26500000  0.04000000  1
  N  N93  1  0.64740000  0.26500000  0.54000000  1
  O  O94  1  0.14130000  0.54800000  0.69070000  1
  O  O95  1  0.18800000  0.41760000  0.12060000  1
  O  O96  1  0.22960000  0.41760000  0.62060000  1
  O  O97  1  0.30200000  0.86620000  0.82200000  1
  O  O98  1  0.40670000  0.54800000  0.19070000  1
  O  O99  1  0.48600000  0.01140000  0.39610000  1
  O  O100  1  0.52540000  0.01140000  0.89610000  1
  O  O101  1  0.56420000  0.86620000  0.32200000  1
