# generated using pymatgen
data_EuH9C19O6
_symmetry_space_group_name_H-M   'P 1'
_cell_length_a   13.66070000
_cell_length_b   13.92940000
_cell_length_c   16.12159021
_cell_angle_alpha   97.50536129
_cell_angle_beta   115.06696238
_cell_angle_gamma   90.00000000
_symmetry_Int_Tables_number   1
_chemical_formula_structural   EuH9C19O6
_chemical_formula_sum   'Eu4 H36 C76 O24'
_cell_volume   2749.72317472
_cell_formula_units_Z   4
loop_
 _symmetry_equiv_pos_site_id
 _symmetry_equiv_pos_as_xyz
  1  'x, y, z'
loop_
 _atom_site_type_symbol
 _atom_site_label
 _atom_site_symmetry_multiplicity
 _atom_site_fract_x
 _atom_site_fract_y
 _atom_site_fract_z
 _atom_site_occupancy
  C  C0  1  0.39027000  0.89040000  0.00794000  1
  C  C1  1  0.61767000  0.39040000  0.00794000  1
  C  C2  1  0.23846000  0.87440000  0.03432000  1
  C  C3  1  0.79586000  0.37440000  0.03432000  1
  C  C4  1  0.49811000  0.88490000  0.04162000  1
  C  C5  1  0.54351000  0.38490000  0.04162000  1
  C  C6  1  0.22786000  0.59330000  0.04932000  1
  C  C7  1  0.82146000  0.09330000  0.04932000  1
  C  C8  1  0.34587000  0.86780000  0.06574000  1
  C  C9  1  0.71987000  0.36780000  0.06574000  1
  C  C10  1  0.40367000  0.57630000  0.07754000  1
  C  C11  1  0.67387000  0.07630000  0.07754000  1
  C  C12  1  0.32905000  0.56710000  0.10590000  1
  C  C13  1  0.77685000  0.06710000  0.10590000  1
  C  C14  1  0.55900000  0.86150000  0.12880000  1
  C  C15  1  0.56980000  0.36150000  0.12880000  1
  C  C16  1  0.41055000  0.84050000  0.15370000  1
  C  C17  1  0.74315000  0.34050000  0.15370000  1
  C  C18  1  0.51569000  0.83890000  0.18718000  1
  C  C19  1  0.67149000  0.33890000  0.18718000  1
  C  C20  1  0.35124000  0.52680000  0.19388000  1
  C  C21  1  0.84264000  0.02680000  0.19388000  1
  C  C22  1  0.58144000  0.81870000  0.28368000  1
  C  C23  1  0.70224000  0.31870000  0.28368000  1
  C  C24  1  0.54628000  0.75190000  0.32296000  1
  C  C25  1  0.77668000  0.25190000  0.32296000  1
  C  C26  1  0.66207000  0.36940000  0.34014000  1
  C  C27  1  0.67807000  0.86940000  0.34014000  1
  C  C28  1  0.60299000  0.73810000  0.41538000  1
  C  C29  1  0.81239000  0.23810000  0.41538000  1
  C  C30  1  0.69841000  0.35760000  0.43262000  1
  C  C31  1  0.73421000  0.85760000  0.43262000  1
  C  C32  1  0.56277000  0.66400000  0.45454000  1
  C  C33  1  0.89177000  0.16400000  0.45454000  1
  C  C34  1  0.69711000  0.79280000  0.47102000  1
  C  C35  1  0.77391000  0.29280000  0.47102000  1
  C  C36  1  0.65758000  0.41540000  0.49336000  1
  C  C37  1  0.83578000  0.91540000  0.49336000  1
  C  C38  1  0.34242000  0.58460000  0.50664000  1
  C  C39  1  0.16422000  0.08460000  0.50664000  1
  C  C40  1  0.30289000  0.20720000  0.52898000  1
  C  C41  1  0.22609000  0.70720000  0.52898000  1
  C  C42  1  0.43723000  0.33600000  0.54546000  1
  C  C43  1  0.10823000  0.83600000  0.54546000  1
  C  C44  1  0.30159000  0.64240000  0.56738000  1
  C  C45  1  0.26579000  0.14240000  0.56738000  1
  C  C46  1  0.39701000  0.26190000  0.58462000  1
  C  C47  1  0.18761000  0.76190000  0.58462000  1
  C  C48  1  0.33793000  0.63060000  0.65986000  1
  C  C49  1  0.32193000  0.13060000  0.65986000  1
  C  C50  1  0.45372000  0.24810000  0.67704000  1
  C  C51  1  0.22332000  0.74810000  0.67704000  1
  C  C52  1  0.41856000  0.18130000  0.71632000  1
  C  C53  1  0.29776000  0.68130000  0.71632000  1
  C  C54  1  0.64876000  0.47320000  0.80612000  1
  C  C55  1  0.15736000  0.97320000  0.80612000  1
  C  C56  1  0.48431000  0.16110000  0.81282000  1
  C  C57  1  0.32851000  0.66110000  0.81282000  1
  C  C58  1  0.58945000  0.15950000  0.84630000  1
  C  C59  1  0.25685000  0.65950000  0.84630000  1
  C  C60  1  0.44100000  0.13850000  0.87120000  1
  C  C61  1  0.43020000  0.63850000  0.87120000  1
  C  C62  1  0.67095000  0.43290000  0.89410000  1
  C  C63  1  0.22315000  0.93290000  0.89410000  1
  C  C64  1  0.59633000  0.42370000  0.92246000  1
  C  C65  1  0.32613000  0.92370000  0.92246000  1
  C  C66  1  0.65413000  0.13220000  0.93426000  1
  C  C67  1  0.28013000  0.63220000  0.93426000  1
  C  C68  1  0.77214000  0.40670000  0.95068000  1
  C  C69  1  0.17854000  0.90670000  0.95068000  1
  C  C70  1  0.50189000  0.11510000  0.95838000  1
  C  C71  1  0.45649000  0.61510000  0.95838000  1
  C  C72  1  0.76154000  0.12560000  0.96568000  1
  C  C73  1  0.20414000  0.62560000  0.96568000  1
  C  C74  1  0.60973000  0.10960000  0.99206000  1
  C  C75  1  0.38233000  0.60960000  0.99206000  1
  Eu  Eu76  1  0.39102000  0.46320000  0.36534000  1
  Eu  Eu77  1  0.97433000  0.96320000  0.36534000  1
  Eu  Eu78  1  0.60899000  0.53680000  0.63466000  1
  Eu  Eu79  1  0.02568000  0.03680000  0.63466000  1
  H  H80  1  0.47220000  0.39730000  0.00500000  1
  H  H81  1  0.53280000  0.89730000  0.00500000  1
  H  H82  1  0.17260000  0.58900000  0.06820000  1
  H  H83  1  0.89560000  0.08900000  0.06820000  1
  H  H84  1  0.20380000  0.85700000  0.06940000  1
  H  H85  1  0.86560000  0.35700000  0.06940000  1
  H  H86  1  0.47360000  0.56060000  0.11420000  1
  H  H87  1  0.64060000  0.06060000  0.11420000  1
  H  H88  1  0.51550000  0.36110000  0.14920000  1
  H  H89  1  0.63370000  0.86110000  0.14920000  1
  H  H90  1  0.37640000  0.82290000  0.18900000  1
  H  H91  1  0.81260000  0.32290000  0.18900000  1
  H  H92  1  0.48230000  0.71450000  0.28640000  1
  H  H93  1  0.80410000  0.21450000  0.28640000  1
  H  H94  1  0.60900000  0.41280000  0.31580000  1
  H  H95  1  0.70680000  0.91280000  0.31580000  1
  H  H96  1  0.26530000  0.21410000  0.46680000  1
  H  H97  1  0.20150000  0.71410000  0.46680000  1
  H  H98  1  0.73470000  0.78590000  0.53320000  1
  H  H99  1  0.79850000  0.28590000  0.53320000  1
  H  H100  1  0.39100000  0.58720000  0.68420000  1
  H  H101  1  0.29320000  0.08720000  0.68420000  1
  H  H102  1  0.51770000  0.28550000  0.71360000  1
  H  H103  1  0.19590000  0.78550000  0.71360000  1
  H  H104  1  0.62360000  0.17710000  0.81100000  1
  H  H105  1  0.18740000  0.67710000  0.81100000  1
  H  H106  1  0.48450000  0.63890000  0.85080000  1
  H  H107  1  0.36630000  0.13890000  0.85080000  1
  H  H108  1  0.52640000  0.43940000  0.88580000  1
  H  H109  1  0.35940000  0.93940000  0.88580000  1
  H  H110  1  0.79620000  0.14300000  0.93060000  1
  H  H111  1  0.13440000  0.64300000  0.93060000  1
  H  H112  1  0.82740000  0.41100000  0.93180000  1
  H  H113  1  0.10440000  0.91100000  0.93180000  1
  H  H114  1  0.52780000  0.60270000  0.99500000  1
  H  H115  1  0.46720000  0.10270000  0.99500000  1
  O  O116  1  0.28550000  0.53400000  0.22486000  1
  O  O117  1  0.93936000  0.03400000  0.22486000  1
  O  O118  1  0.43328000  0.48580000  0.23456000  1
  O  O119  1  0.80128000  0.98580000  0.23456000  1
  O  O120  1  0.47440000  0.62270000  0.40102000  1
  O  O121  1  0.92662000  0.12270000  0.40102000  1
  O  O122  1  0.28601000  0.56730000  0.42012000  1
  O  O123  1  0.13411000  0.06730000  0.42012000  1
  O  O124  1  0.56846000  0.44739000  0.45614000  1
  O  O125  1  0.88768000  0.94739000  0.45614000  1
  O  O126  1  0.38118000  0.35006000  0.46352000  1
  O  O127  1  0.08234000  0.85006000  0.46352000  1
  O  O128  1  0.61882000  0.64994000  0.53648000  1
  O  O129  1  0.91766000  0.14994000  0.53648000  1
  O  O130  1  0.43154000  0.55261000  0.54386000  1
  O  O131  1  0.11232000  0.05261000  0.54386000  1
  O  O132  1  0.71399000  0.43270000  0.57988000  1
  O  O133  1  0.86589000  0.93270000  0.57988000  1
  O  O134  1  0.52560000  0.37730000  0.59898000  1
  O  O135  1  0.07338000  0.87730000  0.59898000  1
  O  O136  1  0.56672000  0.51420000  0.76544000  1
  O  O137  1  0.19872000  0.01420000  0.76544000  1
  O  O138  1  0.71450000  0.46600000  0.77514000  1
  O  O139  1  0.06064000  0.96600000  0.77514000  1
