# generated using pymatgen
data_ZnH9C24(O2F3)3
_symmetry_space_group_name_H-M   'P 1'
_cell_length_a   7.88490000
_cell_length_b   22.76539314
_cell_length_c   22.76539314
_cell_angle_alpha   107.98981045
_cell_angle_beta   90.00000000
_cell_angle_gamma   90.00000000
_symmetry_Int_Tables_number   1
_chemical_formula_structural   ZnH9C24(O2F3)3
_chemical_formula_sum   'Zn4 H36 C96 O24 F36'
_cell_volume   3886.67218460
_cell_formula_units_Z   4
loop_
 _symmetry_equiv_pos_site_id
 _symmetry_equiv_pos_as_xyz
  1  'x, y, z'
loop_
 _atom_site_type_symbol
 _atom_site_label
 _atom_site_symmetry_multiplicity
 _atom_site_fract_x
 _atom_site_fract_y
 _atom_site_fract_z
 _atom_site_occupancy
  C  C0  1  0.01600000  0.32635000  0.12965000  1
  C  C1  1  0.01810000  0.22097000  0.13923000  1
  C  C2  1  0.01850000  0.10358000  0.25902000  1
  C  C3  1  0.01920000  0.46705000  0.03995000  1
  C  C4  1  0.02000000  0.11726000  0.15754000  1
  C  C5  1  0.02490000  0.99620000  0.54822000  1
  C  C6  1  0.02740000  0.48825000  0.98957000  1
  C  C7  1  0.02910000  0.94374000  0.57542000  1
  C  C8  1  0.03300000  0.09716000  0.50454000  1
  C  C9  1  0.08150000  0.05916000  0.13384000  1
  C  C10  1  0.08260000  0.05323000  0.58541000  1
  C  C11  1  0.08770000  0.10451000  0.56475000  1
  C  C12  1  0.09410000  0.04504000  0.23316000  1
  C  C13  1  0.09890000  0.80000000  0.09080000  1
  C  C14  1  0.09910000  0.44509000  0.93057000  1
  C  C15  1  0.12040000  0.02398000  0.17122000  1
  C  C16  1  0.12860000  0.82974000  0.23210000  1
  C  C17  1  0.12880000  0.18098000  0.66982000  1
  C  C18  1  0.14110000  0.00200000  0.27040000  1
  C  C19  1  0.15140000  0.16420000  0.60592000  1
  C  C20  1  0.19120000  0.75942000  0.12088000  1
  C  C21  1  0.19470000  0.23505000  0.70855000  1
  C  C22  1  0.21090000  0.77506000  0.18504000  1
  C  C23  1  0.24080000  0.20480000  0.58230000  1
  C  C24  1  0.25920000  0.70480000  0.08230000  1
  C  C25  1  0.28910000  0.27506000  0.68504000  1
  C  C26  1  0.30530000  0.73505000  0.20855000  1
  C  C27  1  0.30880000  0.25942000  0.62088000  1
  C  C28  1  0.34860000  0.66420000  0.10592000  1
  C  C29  1  0.35890000  0.50200000  0.77040000  1
  C  C30  1  0.37120000  0.68098000  0.16982000  1
  C  C31  1  0.37140000  0.32974000  0.73210000  1
  C  C32  1  0.37960000  0.52398000  0.67122000  1
  C  C33  1  0.40090000  0.94509000  0.43057000  1
  C  C34  1  0.40110000  0.30000000  0.59080000  1
  C  C35  1  0.40590000  0.54504000  0.73316000  1
  C  C36  1  0.41230000  0.60451000  0.06475000  1
  C  C37  1  0.41740000  0.55323000  0.08541000  1
  C  C38  1  0.41850000  0.55916000  0.63384000  1
  C  C39  1  0.46700000  0.59716000  0.00454000  1
  C  C40  1  0.47090000  0.44374000  0.07542000  1
  C  C41  1  0.47260000  0.98825000  0.48957000  1
  C  C42  1  0.47510000  0.49620000  0.04822000  1
  C  C43  1  0.48000000  0.61726000  0.65754000  1
  C  C44  1  0.48080000  0.96705000  0.53995000  1
  C  C45  1  0.48150000  0.60358000  0.75902000  1
  C  C46  1  0.48190000  0.72097000  0.63923000  1
  C  C47  1  0.48400000  0.82635000  0.62965000  1
  C  C48  1  0.51600000  0.62965000  0.82635000  1
  C  C49  1  0.51810000  0.63923000  0.72097000  1
  C  C50  1  0.51850000  0.75902000  0.60358000  1
  C  C51  1  0.51920000  0.53995000  0.96705000  1
  C  C52  1  0.52000000  0.65754000  0.61726000  1
  C  C53  1  0.52490000  0.04822000  0.49620000  1
  C  C54  1  0.52740000  0.48957000  0.98825000  1
  C  C55  1  0.52910000  0.07542000  0.44374000  1
  C  C56  1  0.53300000  0.00454000  0.59716000  1
  C  C57  1  0.58150000  0.63384000  0.55916000  1
  C  C58  1  0.58260000  0.08541000  0.55323000  1
  C  C59  1  0.58770000  0.06475000  0.60451000  1
  C  C60  1  0.59410000  0.73316000  0.54504000  1
  C  C61  1  0.59890000  0.59080000  0.30000000  1
  C  C62  1  0.59910000  0.43057000  0.94509000  1
  C  C63  1  0.62040000  0.67122000  0.52398000  1
  C  C64  1  0.62860000  0.73210000  0.32974000  1
  C  C65  1  0.62880000  0.16982000  0.68098000  1
  C  C66  1  0.64110000  0.77040000  0.50200000  1
  C  C67  1  0.65140000  0.10592000  0.66420000  1
  C  C68  1  0.69120000  0.62088000  0.25942000  1
  C  C69  1  0.69470000  0.20855000  0.73505000  1
  C  C70  1  0.71090000  0.68504000  0.27506000  1
  C  C71  1  0.74080000  0.08230000  0.70480000  1
  C  C72  1  0.75920000  0.58230000  0.20480000  1
  C  C73  1  0.78910000  0.18504000  0.77506000  1
  C  C74  1  0.80530000  0.70855000  0.23505000  1
  C  C75  1  0.80880000  0.12088000  0.75942000  1
  C  C76  1  0.84860000  0.60592000  0.16420000  1
  C  C77  1  0.85890000  0.27040000  0.00200000  1
  C  C78  1  0.87120000  0.66982000  0.18098000  1
  C  C79  1  0.87140000  0.23210000  0.82974000  1
  C  C80  1  0.87960000  0.17122000  0.02398000  1
  C  C81  1  0.90090000  0.93057000  0.44509000  1
  C  C82  1  0.90110000  0.09080000  0.80000000  1
  C  C83  1  0.90590000  0.23316000  0.04504000  1
  C  C84  1  0.91230000  0.56475000  0.10451000  1
  C  C85  1  0.91740000  0.58541000  0.05323000  1
  C  C86  1  0.91850000  0.13384000  0.05916000  1
  C  C87  1  0.96700000  0.50454000  0.09716000  1
  C  C88  1  0.97090000  0.57542000  0.94374000  1
  C  C89  1  0.97260000  0.98957000  0.48825000  1
  C  C90  1  0.97510000  0.54822000  0.99620000  1
  C  C91  1  0.98000000  0.15754000  0.11726000  1
  C  C92  1  0.98080000  0.03995000  0.46705000  1
  C  C93  1  0.98150000  0.25902000  0.10358000  1
  C  C94  1  0.98190000  0.13923000  0.22097000  1
  C  C95  1  0.98400000  0.12965000  0.32635000  1
  F  F96  1  0.03500000  0.34369000  0.19099000  1
  F  F97  1  0.06910000  0.09202000  0.79522000  1
  F  F98  1  0.08540000  0.89124000  0.53556000  1
  F  F99  1  0.10430000  0.11825000  0.36205000  1
  F  F100  1  0.12210000  0.59609000  0.93159000  1
  F  F101  1  0.13360000  0.95573000  0.62487000  1
  F  F102  1  0.13430000  0.85940000  0.11554000  1
  F  F103  1  0.13900000  0.78512000  0.03014000  1
  F  F104  1  0.16150000  0.34239000  0.10621000  1
  F  F105  1  0.33850000  0.84239000  0.60621000  1
  F  F106  1  0.36100000  0.28512000  0.53014000  1
  F  F107  1  0.36570000  0.35940000  0.61554000  1
  F  F108  1  0.36640000  0.45573000  0.12487000  1
  F  F109  1  0.37790000  0.09609000  0.43159000  1
  F  F110  1  0.39570000  0.61825000  0.86205000  1
  F  F111  1  0.41460000  0.39124000  0.03556000  1
  F  F112  1  0.43090000  0.59202000  0.29522000  1
  F  F113  1  0.46500000  0.84369000  0.69099000  1
  F  F114  1  0.53500000  0.69099000  0.84369000  1
  F  F115  1  0.56910000  0.29522000  0.59202000  1
  F  F116  1  0.58540000  0.03556000  0.39124000  1
  F  F117  1  0.60430000  0.86205000  0.61825000  1
  F  F118  1  0.62210000  0.43159000  0.09609000  1
  F  F119  1  0.63360000  0.12487000  0.45573000  1
  F  F120  1  0.63430000  0.61554000  0.35940000  1
  F  F121  1  0.63900000  0.53014000  0.28512000  1
  F  F122  1  0.66150000  0.60621000  0.84239000  1
  F  F123  1  0.83850000  0.10621000  0.34239000  1
  F  F124  1  0.86100000  0.03014000  0.78512000  1
  F  F125  1  0.86570000  0.11554000  0.85940000  1
  F  F126  1  0.86640000  0.62487000  0.95573000  1
  F  F127  1  0.87790000  0.93159000  0.59609000  1
  F  F128  1  0.89570000  0.36205000  0.11825000  1
  F  F129  1  0.91460000  0.53556000  0.89124000  1
  F  F130  1  0.93090000  0.79522000  0.09202000  1
  F  F131  1  0.96500000  0.19099000  0.34369000  1
  H  H132  1  0.03170000  0.13160000  0.48940000  1
  H  H133  1  0.05030000  0.42550000  0.03530000  1
  H  H134  1  0.06640000  0.15450000  0.68690000  1
  H  H135  1  0.06930000  0.23780000  0.17860000  1
  H  H136  1  0.09790000  0.04250000  0.09050000  1
  H  H137  1  0.11970000  0.05720000  0.62620000  1
  H  H138  1  0.16690000  0.98390000  0.15330000  1
  H  H139  1  0.17620000  0.24540000  0.75180000  1
  H  H140  1  0.24460000  0.69490000  0.03890000  1
  H  H141  1  0.25540000  0.19490000  0.53890000  1
  H  H142  1  0.32380000  0.74540000  0.25180000  1
  H  H143  1  0.33310000  0.48390000  0.65330000  1
  H  H144  1  0.38030000  0.55720000  0.12620000  1
  H  H145  1  0.40210000  0.54250000  0.59050000  1
  H  H146  1  0.43070000  0.73780000  0.67860000  1
  H  H147  1  0.43360000  0.65450000  0.18690000  1
  H  H148  1  0.44970000  0.92550000  0.53530000  1
  H  H149  1  0.46830000  0.63160000  0.98940000  1
  H  H150  1  0.53170000  0.98940000  0.63160000  1
  H  H151  1  0.55030000  0.53530000  0.92550000  1
  H  H152  1  0.56640000  0.18690000  0.65450000  1
  H  H153  1  0.56930000  0.67860000  0.73780000  1
  H  H154  1  0.59790000  0.59050000  0.54250000  1
  H  H155  1  0.61970000  0.12620000  0.55720000  1
  H  H156  1  0.66690000  0.65330000  0.48390000  1
  H  H157  1  0.67620000  0.25180000  0.74540000  1
  H  H158  1  0.74460000  0.53890000  0.19490000  1
  H  H159  1  0.75540000  0.03890000  0.69490000  1
  H  H160  1  0.82380000  0.75180000  0.24540000  1
  H  H161  1  0.83310000  0.15330000  0.98390000  1
  H  H162  1  0.88030000  0.62620000  0.05720000  1
  H  H163  1  0.90210000  0.09050000  0.04250000  1
  H  H164  1  0.93070000  0.17860000  0.23780000  1
  H  H165  1  0.93360000  0.68690000  0.15450000  1
  H  H166  1  0.94970000  0.03530000  0.42550000  1
  H  H167  1  0.96830000  0.48940000  0.13160000  1
  O  O168  1  0.00940000  0.22061000  0.84725000  1
  O  O169  1  0.03010000  0.98984000  0.30350000  1
  O  O170  1  0.05900000  0.38917000  0.91239000  1
  O  O171  1  0.20480000  0.46914000  0.90316000  1
  O  O172  1  0.21010000  0.85096000  0.28184000  1
  O  O173  1  0.21230000  0.47997000  0.76387000  1
  O  O174  1  0.28770000  0.97997000  0.26387000  1
  O  O175  1  0.28990000  0.35096000  0.78184000  1
  O  O176  1  0.29520000  0.96914000  0.40316000  1
  O  O177  1  0.44100000  0.88917000  0.41239000  1
  O  O178  1  0.46990000  0.48984000  0.80350000  1
  O  O179  1  0.49060000  0.72061000  0.34725000  1
  O  O180  1  0.50940000  0.34725000  0.72061000  1
  O  O181  1  0.53010000  0.80350000  0.48984000  1
  O  O182  1  0.55900000  0.41239000  0.88917000  1
  O  O183  1  0.70480000  0.40316000  0.96914000  1
  O  O184  1  0.71010000  0.78184000  0.35096000  1
  O  O185  1  0.71230000  0.26387000  0.97997000  1
  O  O186  1  0.78770000  0.76387000  0.47997000  1
  O  O187  1  0.78990000  0.28184000  0.85096000  1
  O  O188  1  0.79520000  0.90316000  0.46914000  1
  O  O189  1  0.94100000  0.91239000  0.38917000  1
  O  O190  1  0.96990000  0.30350000  0.98984000  1
  O  O191  1  0.99060000  0.84725000  0.22061000  1
  Zn  Zn192  1  0.13239000  0.92886000  0.33836000  1
  Zn  Zn193  1  0.36761000  0.42886000  0.83836000  1
  Zn  Zn194  1  0.63239000  0.83836000  0.42886000  1
  Zn  Zn195  1  0.86761000  0.33836000  0.92886000  1
