# generated using pymatgen
data_Th2H9(C3O2)9
_symmetry_space_group_name_H-M   'P 1'
_cell_length_a   10.00120000
_cell_length_b   20.51580000
_cell_length_c   21.51450000
_cell_angle_alpha   99.15600000
_cell_angle_beta   90.00000000
_cell_angle_gamma   90.00000000
_symmetry_Int_Tables_number   1
_chemical_formula_structural   Th2H9(C3O2)9
_chemical_formula_sum   'Th8 H36 C108 O72'
_cell_volume   4358.15648038
_cell_formula_units_Z   4
loop_
 _symmetry_equiv_pos_site_id
 _symmetry_equiv_pos_as_xyz
  1  'x, y, z'
loop_
 _atom_site_type_symbol
 _atom_site_label
 _atom_site_symmetry_multiplicity
 _atom_site_fract_x
 _atom_site_fract_y
 _atom_site_fract_z
 _atom_site_occupancy
  Th  Th0  1  0.30472000  0.85187000  0.58424000  1
  Th  Th1  1  0.19528000  0.85187000  0.08424000  1
  Th  Th2  1  0.29653000  0.64048000  0.39879000  1
  Th  Th3  1  0.20347000  0.64048000  0.89879000  1
  Th  Th4  1  0.79653000  0.35952000  0.10121000  1
  Th  Th5  1  0.70347000  0.35952000  0.60121000  1
  Th  Th6  1  0.80472000  0.14813000  0.91576000  1
  Th  Th7  1  0.69528000  0.14813000  0.41576000  1
  H  H8  1  0.47440000  0.97000000  0.25960000  1
  H  H9  1  0.02560000  0.97000000  0.75960000  1
  H  H10  1  0.47190000  0.93570000  0.43850000  1
  H  H11  1  0.02810000  0.93570000  0.93850000  1
  H  H12  1  0.89690000  0.80350000  0.57850000  1
  H  H13  1  0.60310000  0.80350000  0.07850000  1
  H  H14  1  0.31340000  0.80170000  0.30040000  1
  H  H15  1  0.18660000  0.80170000  0.80040000  1
  H  H16  1  0.94690000  0.73130000  0.99760000  1
  H  H17  1  0.55310000  0.73130000  0.49760000  1
  H  H18  1  0.34750000  0.71740000  0.68520000  1
  H  H19  1  0.15250000  0.71740000  0.18520000  1
  H  H20  1  0.90080000  0.69470000  0.40590000  1
  H  H21  1  0.59920000  0.69470000  0.90590000  1
  H  H22  1  0.48220000  0.56870000  0.55560000  1
  H  H23  1  0.01780000  0.56870000  0.05560000  1
  H  H24  1  0.96700000  0.56160000  0.23980000  1
  H  H25  1  0.53300000  0.56160000  0.73980000  1
  H  H26  1  0.46700000  0.43840000  0.26020000  1
  H  H27  1  0.03300000  0.43840000  0.76020000  1
  H  H28  1  0.98220000  0.43130000  0.94440000  1
  H  H29  1  0.51780000  0.43130000  0.44440000  1
  H  H30  1  0.40080000  0.30530000  0.09410000  1
  H  H31  1  0.09920000  0.30530000  0.59410000  1
  H  H32  1  0.84750000  0.28260000  0.81480000  1
  H  H33  1  0.65250000  0.28260000  0.31480000  1
  H  H34  1  0.44690000  0.26870000  0.50240000  1
  H  H35  1  0.05310000  0.26870000  0.00240000  1
  H  H36  1  0.81340000  0.19830000  0.19960000  1
  H  H37  1  0.68660000  0.19830000  0.69960000  1
  H  H38  1  0.39690000  0.19650000  0.92150000  1
  H  H39  1  0.10310000  0.19650000  0.42150000  1
  H  H40  1  0.97190000  0.06430000  0.06150000  1
  H  H41  1  0.52810000  0.06430000  0.56150000  1
  H  H42  1  0.97440000  0.03000000  0.24040000  1
  H  H43  1  0.52560000  0.03000000  0.74040000  1
  C  C44  1  0.45300000  0.97300000  0.62710000  1
  C  C45  1  0.04700000  0.97300000  0.12710000  1
  C  C46  1  0.48210000  0.96230000  0.35160000  1
  C  C47  1  0.01790000  0.96230000  0.85160000  1
  C  C48  1  0.45060000  0.94340000  0.28900000  1
  C  C49  1  0.04940000  0.94340000  0.78900000  1
  C  C50  1  0.45320000  0.92180000  0.39610000  1
  C  C51  1  0.04680000  0.92180000  0.89610000  1
  C  C52  1  0.38260000  0.88410000  0.26990000  1
  C  C53  1  0.11740000  0.88410000  0.76990000  1
  C  C54  1  0.33470000  0.86640000  0.20310000  1
  C  C55  1  0.16530000  0.86640000  0.70310000  1
  C  C56  1  0.39520000  0.85960000  0.37580000  1
  C  C57  1  0.10480000  0.85960000  0.87580000  1
  C  C58  1  0.35650000  0.84170000  0.31330000  1
  C  C59  1  0.14350000  0.84170000  0.81330000  1
  C  C60  1  0.37630000  0.81280000  0.42070000  1
  C  C61  1  0.12370000  0.81280000  0.92070000  1
  C  C62  1  0.85850000  0.80500000  0.10590000  1
  C  C63  1  0.64150000  0.80500000  0.60590000  1
  C  C64  1  0.85130000  0.77950000  0.54470000  1
  C  C65  1  0.64870000  0.77950000  0.04470000  1
  C  C66  1  0.78700000  0.77260000  0.04730000  1
  C  C67  1  0.71300000  0.77260000  0.54730000  1
  C  C68  1  0.43230000  0.75820000  0.98920000  1
  C  C69  1  0.06770000  0.75820000  0.48920000  1
  C  C70  1  0.92100000  0.75060000  0.49150000  1
  C  C71  1  0.57900000  0.75060000  0.99150000  1
  C  C72  1  0.85460000  0.73600000  0.99620000  1
  C  C73  1  0.64540000  0.73600000  0.49620000  1
  C  C74  1  0.85360000  0.71420000  0.44130000  1
  C  C75  1  0.64640000  0.71420000  0.94130000  1
  C  C76  1  0.78430000  0.70690000  0.94360000  1
  C  C77  1  0.71570000  0.70690000  0.44360000  1
  C  C78  1  0.34570000  0.68120000  0.56300000  1
  C  C79  1  0.15430000  0.68120000  0.06300000  1
  C  C80  1  0.39080000  0.67700000  0.67540000  1
  C  C81  1  0.10920000  0.67700000  0.17540000  1
  C  C82  1  0.41490000  0.67640000  0.79050000  1
  C  C83  1  0.08510000  0.67640000  0.29050000  1
  C  C84  1  0.85480000  0.66640000  0.88850000  1
  C  C85  1  0.64520000  0.66640000  0.38850000  1
  C  C86  1  0.40730000  0.64780000  0.61300000  1
  C  C87  1  0.09270000  0.64780000  0.11300000  1
  C  C88  1  0.44020000  0.64460000  0.72340000  1
  C  C89  1  0.05980000  0.64460000  0.22340000  1
  C  C90  1  0.47370000  0.58810000  0.59750000  1
  C  C91  1  0.02630000  0.58810000  0.09750000  1
  C  C92  1  0.99520000  0.58420000  0.20800000  1
  C  C93  1  0.50480000  0.58420000  0.70800000  1
  C  C94  1  0.97230000  0.55730000  0.14510000  1
  C  C95  1  0.52770000  0.55730000  0.64510000  1
  C  C96  1  0.39900000  0.50600000  0.37080000  1
  C  C97  1  0.10100000  0.50600000  0.87080000  1
  C  C98  1  0.89900000  0.49400000  0.12920000  1
  C  C99  1  0.60100000  0.49400000  0.62920000  1
  C  C100  1  0.47230000  0.44270000  0.35490000  1
  C  C101  1  0.02770000  0.44270000  0.85490000  1
  C  C102  1  0.49520000  0.41580000  0.29200000  1
  C  C103  1  0.00480000  0.41580000  0.79200000  1
  C  C104  1  0.97370000  0.41190000  0.90250000  1
  C  C105  1  0.52630000  0.41190000  0.40250000  1
  C  C106  1  0.94020000  0.35540000  0.77660000  1
  C  C107  1  0.55980000  0.35540000  0.27660000  1
  C  C108  1  0.90730000  0.35220000  0.88700000  1
  C  C109  1  0.59270000  0.35220000  0.38700000  1
  C  C110  1  0.35480000  0.33360000  0.61150000  1
  C  C111  1  0.14520000  0.33360000  0.11150000  1
  C  C112  1  0.91490000  0.32360000  0.70950000  1
  C  C113  1  0.58510000  0.32360000  0.20950000  1
  C  C114  1  0.89080000  0.32300000  0.82460000  1
  C  C115  1  0.60920000  0.32300000  0.32460000  1
  C  C116  1  0.84570000  0.31880000  0.93700000  1
  C  C117  1  0.65430000  0.31880000  0.43700000  1
  C  C118  1  0.28430000  0.29310000  0.55640000  1
  C  C119  1  0.21570000  0.29310000  0.05640000  1
  C  C120  1  0.35360000  0.28580000  0.05870000  1
  C  C121  1  0.14640000  0.28580000  0.55870000  1
  C  C122  1  0.35460000  0.26400000  0.50380000  1
  C  C123  1  0.14540000  0.26400000  0.00380000  1
  C  C124  1  0.42100000  0.24940000  0.00850000  1
  C  C125  1  0.07900000  0.24940000  0.50850000  1
  C  C126  1  0.93230000  0.24180000  0.51080000  1
  C  C127  1  0.56770000  0.24180000  0.01080000  1
  C  C128  1  0.28700000  0.22740000  0.45270000  1
  C  C129  1  0.21300000  0.22740000  0.95270000  1
  C  C130  1  0.35130000  0.22050000  0.95530000  1
  C  C131  1  0.14870000  0.22050000  0.45530000  1
  C  C132  1  0.35850000  0.19500000  0.39410000  1
  C  C133  1  0.14150000  0.19500000  0.89410000  1
  C  C134  1  0.87630000  0.18720000  0.07930000  1
  C  C135  1  0.62370000  0.18720000  0.57930000  1
  C  C136  1  0.85650000  0.15830000  0.18670000  1
  C  C137  1  0.64350000  0.15830000  0.68670000  1
  C  C138  1  0.89520000  0.14040000  0.12420000  1
  C  C139  1  0.60480000  0.14040000  0.62420000  1
  C  C140  1  0.83470000  0.13360000  0.29690000  1
  C  C141  1  0.66530000  0.13360000  0.79690000  1
  C  C142  1  0.88260000  0.11590000  0.23010000  1
  C  C143  1  0.61740000  0.11590000  0.73010000  1
  C  C144  1  0.95320000  0.07820000  0.10390000  1
  C  C145  1  0.54680000  0.07820000  0.60390000  1
  C  C146  1  0.95060000  0.05660000  0.21100000  1
  C  C147  1  0.54940000  0.05660000  0.71100000  1
  C  C148  1  0.98210000  0.03770000  0.14840000  1
  C  C149  1  0.51790000  0.03770000  0.64840000  1
  C  C150  1  0.95300000  0.02700000  0.87290000  1
  C  C151  1  0.54700000  0.02700000  0.37290000  1
  O  O152  1  0.38400000  0.94680000  0.66550000  1
  O  O153  1  0.11600000  0.94680000  0.16550000  1
  O  O154  1  0.46940000  0.94410000  0.57110000  1
  O  O155  1  0.03060000  0.94410000  0.07110000  1
  O  O156  1  0.38470000  0.89050000  0.15930000  1
  O  O157  1  0.11530000  0.89050000  0.65930000  1
  O  O158  1  0.38280000  0.83480000  0.47850000  1
  O  O159  1  0.11720000  0.83480000  0.97850000  1
  O  O160  1  0.26500000  0.82740000  0.69280000  1
  O  O161  1  0.23500000  0.82740000  0.19280000  1
  O  O162  1  0.79480000  0.82220000  0.15360000  1
  O  O163  1  0.70520000  0.82220000  0.65360000  1
  O  O164  1  0.98440000  0.81210000  0.10330000  1
  O  O165  1  0.51560000  0.81210000  0.60330000  1
  O  O166  1  0.38380000  0.81100000  0.02140000  1
  O  O167  1  0.11620000  0.81100000  0.52140000  1
  O  O168  1  0.35880000  0.75340000  0.39850000  1
  O  O169  1  0.14120000  0.75340000  0.89850000  1
  O  O170  1  0.42440000  0.74000000  0.80510000  1
  O  O171  1  0.07560000  0.74000000  0.30510000  1
  O  O172  1  0.28900000  0.73560000  0.57830000  1
  O  O173  1  0.21100000  0.73560000  0.07830000  1
  O  O174  1  0.36570000  0.71450000  0.95640000  1
  O  O175  1  0.13430000  0.71450000  0.45640000  1
  O  O176  1  0.79410000  0.65260000  0.83900000  1
  O  O177  1  0.70590000  0.65260000  0.33900000  1
  O  O178  1  0.35290000  0.65200000  0.50790000  1
  O  O179  1  0.14710000  0.65200000  0.00790000  1
  O  O180  1  0.97270000  0.64620000  0.89900000  1
  O  O181  1  0.52730000  0.64620000  0.39900000  1
  O  O182  1  0.38940000  0.63600000  0.82860000  1
  O  O183  1  0.11060000  0.63600000  0.32860000  1
  O  O184  1  0.39000000  0.53330000  0.42740000  1
  O  O185  1  0.34480000  0.53330000  0.32790000  1
  O  O186  1  0.15520000  0.53330000  0.82790000  1
  O  O187  1  0.11000000  0.53330000  0.92740000  1
  O  O188  1  0.89000000  0.46670000  0.07260000  1
  O  O189  1  0.84480000  0.46670000  0.17210000  1
  O  O190  1  0.65520000  0.46670000  0.67210000  1
  O  O191  1  0.61000000  0.46670000  0.57260000  1
  O  O192  1  0.88940000  0.36400000  0.67140000  1
  O  O193  1  0.61060000  0.36400000  0.17140000  1
  O  O194  1  0.47270000  0.35380000  0.60100000  1
  O  O195  1  0.02730000  0.35380000  0.10100000  1
  O  O196  1  0.85290000  0.34800000  0.99210000  1
  O  O197  1  0.64710000  0.34800000  0.49210000  1
  O  O198  1  0.29410000  0.34740000  0.66100000  1
  O  O199  1  0.20590000  0.34740000  0.16100000  1
  O  O200  1  0.86570000  0.28550000  0.54360000  1
  O  O201  1  0.63430000  0.28550000  0.04360000  1
  O  O202  1  0.78900000  0.26440000  0.92170000  1
  O  O203  1  0.71100000  0.26440000  0.42170000  1
  O  O204  1  0.92440000  0.26000000  0.69490000  1
  O  O205  1  0.57560000  0.26000000  0.19490000  1
  O  O206  1  0.85880000  0.24660000  0.10150000  1
  O  O207  1  0.64120000  0.24660000  0.60150000  1
  O  O208  1  0.88380000  0.18900000  0.47860000  1
  O  O209  1  0.61620000  0.18900000  0.97860000  1
  O  O210  1  0.48440000  0.18790000  0.39670000  1
  O  O211  1  0.01560000  0.18790000  0.89670000  1
  O  O212  1  0.29480000  0.17780000  0.34640000  1
  O  O213  1  0.20520000  0.17780000  0.84640000  1
  O  O214  1  0.76500000  0.17260000  0.80720000  1
  O  O215  1  0.73500000  0.17260000  0.30720000  1
  O  O216  1  0.88280000  0.16520000  0.02150000  1
  O  O217  1  0.61720000  0.16520000  0.52150000  1
  O  O218  1  0.88470000  0.10950000  0.34070000  1
  O  O219  1  0.61530000  0.10950000  0.84070000  1
  O  O220  1  0.96940000  0.05590000  0.92890000  1
  O  O221  1  0.53060000  0.05590000  0.42890000  1
  O  O222  1  0.88400000  0.05320000  0.83450000  1
  O  O223  1  0.61600000  0.05320000  0.33450000  1
