# generated using pymatgen
data_MnH2C8NO6
_symmetry_space_group_name_H-M   'P 1'
_cell_length_a   13.48940000
_cell_length_b   15.59857603
_cell_length_c   15.59857603
_cell_angle_alpha   64.07333532
_cell_angle_beta   77.92387021
_cell_angle_gamma   77.92387021
_symmetry_Int_Tables_number   1
_chemical_formula_structural   MnH2C8NO6
_chemical_formula_sum   'Mn8 H16 C64 N8 O48'
_cell_volume   2860.53593071
_cell_formula_units_Z   8
loop_
 _symmetry_equiv_pos_site_id
 _symmetry_equiv_pos_as_xyz
  1  'x, y, z'
loop_
 _atom_site_type_symbol
 _atom_site_label
 _atom_site_symmetry_multiplicity
 _atom_site_fract_x
 _atom_site_fract_y
 _atom_site_fract_z
 _atom_site_occupancy
  C  C0  1  0.42040000  0.37940000  0.58320000  1
  C  C1  1  0.92040000  0.58320000  0.37940000  1
  C  C2  1  0.46010000  0.29850000  0.65890000  1
  C  C3  1  0.96010000  0.65890000  0.29850000  1
  C  C4  1  0.07170000  0.24440000  0.71040000  1
  C  C5  1  0.57170000  0.71040000  0.24440000  1
  C  C6  1  0.14950000  0.39600000  0.55000000  1
  C  C7  1  0.64950000  0.55000000  0.39600000  1
  C  C8  1  0.45310000  0.38810000  0.48170000  1
  C  C9  1  0.95310000  0.48170000  0.38810000  1
  C  C10  1  0.14390000  0.22310000  0.63770000  1
  C  C11  1  0.64390000  0.63770000  0.22310000  1
  C  C12  1  0.18120000  0.30030000  0.55750000  1
  C  C13  1  0.68120000  0.55750000  0.30030000  1
  C  C14  1  0.26080000  0.28380000  0.47860000  1
  C  C15  1  0.76080000  0.47860000  0.28380000  1
  C  C16  1  0.16490000  0.12370000  0.63670000  1
  C  C17  1  0.66490000  0.63670000  0.12370000  1
  C  C18  1  0.25090000  0.05460000  0.67020000  1
  C  C19  1  0.75090000  0.67020000  0.05460000  1
  C  C20  1  0.00910000  0.17450000  0.54950000  1
  C  C21  1  0.50910000  0.54950000  0.17450000  1
  C  C22  1  0.10050000  0.10210000  0.59130000  1
  C  C23  1  0.60050000  0.59130000  0.10210000  1
  C  C24  1  0.27120000  0.96840000  0.65960000  1
  C  C25  1  0.77120000  0.65960000  0.96840000  1
  C  C26  1  0.11900000  0.01430000  0.58230000  1
  C  C27  1  0.61900000  0.58230000  0.01430000  1
  C  C28  1  0.20290000  0.94720000  0.61620000  1
  C  C29  1  0.70290000  0.61620000  0.94720000  1
  C  C30  1  0.77610000  0.14740000  0.39720000  1
  C  C31  1  0.27610000  0.39720000  0.14740000  1
  C  C32  1  0.22390000  0.85260000  0.60280000  1
  C  C33  1  0.72390000  0.60280000  0.85260000  1
  C  C34  1  0.79710000  0.05280000  0.38380000  1
  C  C35  1  0.29710000  0.38380000  0.05280000  1
  C  C36  1  0.88100000  0.98570000  0.41770000  1
  C  C37  1  0.38100000  0.41770000  0.98570000  1
  C  C38  1  0.72880000  0.03160000  0.34040000  1
  C  C39  1  0.22880000  0.34040000  0.03160000  1
  C  C40  1  0.89950000  0.89790000  0.40870000  1
  C  C41  1  0.39950000  0.40870000  0.89790000  1
  C  C42  1  0.99090000  0.82550000  0.45050000  1
  C  C43  1  0.49090000  0.45050000  0.82550000  1
  C  C44  1  0.74910000  0.94540000  0.32980000  1
  C  C45  1  0.24910000  0.32980000  0.94540000  1
  C  C46  1  0.83510000  0.87630000  0.36330000  1
  C  C47  1  0.33510000  0.36330000  0.87630000  1
  C  C48  1  0.73920000  0.71620000  0.52140000  1
  C  C49  1  0.23920000  0.52140000  0.71620000  1
  C  C50  1  0.81880000  0.69970000  0.44250000  1
  C  C51  1  0.31880000  0.44250000  0.69970000  1
  C  C52  1  0.85610000  0.77690000  0.36230000  1
  C  C53  1  0.35610000  0.36230000  0.77690000  1
  C  C54  1  0.54690000  0.61190000  0.51830000  1
  C  C55  1  0.04690000  0.51830000  0.61190000  1
  C  C56  1  0.85050000  0.60400000  0.45000000  1
  C  C57  1  0.35050000  0.45000000  0.60400000  1
  C  C58  1  0.92830000  0.75560000  0.28960000  1
  C  C59  1  0.42830000  0.28960000  0.75560000  1
  C  C60  1  0.53990000  0.70150000  0.34110000  1
  C  C61  1  0.03990000  0.34110000  0.70150000  1
  C  C62  1  0.57960000  0.62060000  0.41680000  1
  C  C63  1  0.07960000  0.41680000  0.62060000  1
  H  H64  1  0.17620000  0.44650000  0.49630000  1
  H  H65  1  0.67620000  0.49630000  0.44650000  1
  H  H66  1  0.50680000  0.25090000  0.64650000  1
  H  H67  1  0.00680000  0.64650000  0.25090000  1
  H  H68  1  0.32900000  0.92530000  0.68090000  1
  H  H69  1  0.82900000  0.68090000  0.92530000  1
  H  H70  1  0.07430000  0.00090000  0.55310000  1
  H  H71  1  0.57430000  0.55310000  0.00090000  1
  H  H72  1  0.92570000  0.99910000  0.44690000  1
  H  H73  1  0.42570000  0.44690000  0.99910000  1
  H  H74  1  0.67100000  0.07470000  0.31910000  1
  H  H75  1  0.17100000  0.31910000  0.07470000  1
  H  H76  1  0.49320000  0.74910000  0.35350000  1
  H  H77  1  0.99320000  0.35350000  0.74910000  1
  H  H78  1  0.82380000  0.55350000  0.50370000  1
  H  H79  1  0.32380000  0.50370000  0.55350000  1
  Mn  Mn80  1  0.85149000  0.29176000  0.44844000  1
  Mn  Mn81  1  0.35149000  0.44844000  0.29176000  1
  Mn  Mn82  1  0.11392000  0.32478000  0.33156000  1
  Mn  Mn83  1  0.61392000  0.33156000  0.32478000  1
  Mn  Mn84  1  0.88608000  0.67522000  0.66844000  1
  Mn  Mn85  1  0.38608000  0.66844000  0.67522000  1
  Mn  Mn86  1  0.14851000  0.70824000  0.55156000  1
  Mn  Mn87  1  0.64851000  0.55156000  0.70824000  1
  N  N88  1  0.02930000  0.16950000  0.79790000  1
  N  N89  1  0.52930000  0.79790000  0.16950000  1
  N  N90  1  0.32260000  0.07250000  0.71970000  1
  N  N91  1  0.82260000  0.71970000  0.07250000  1
  N  N92  1  0.67740000  0.92750000  0.28030000  1
  N  N93  1  0.17740000  0.28030000  0.92750000  1
  N  N94  1  0.97070000  0.83050000  0.20210000  1
  N  N95  1  0.47070000  0.20210000  0.83050000  1
  O  O96  1  0.54760000  0.15640000  0.80920000  1
  O  O97  1  0.04760000  0.80920000  0.15640000  1
  O  O98  1  0.06890000  0.08580000  0.81960000  1
  O  O99  1  0.56890000  0.81960000  0.08580000  1
  O  O100  1  0.29740000  0.13500000  0.75000000  1
  O  O101  1  0.79740000  0.75000000  0.13500000  1
  O  O102  1  0.88980000  0.42151000  0.44151000  1
  O  O103  1  0.38980000  0.44151000  0.42151000  1
  O  O104  1  0.53860000  0.34264000  0.46164000  1
  O  O105  1  0.03860000  0.46164000  0.34264000  1
  O  O106  1  0.92310000  0.17270000  0.59690000  1
  O  O107  1  0.42310000  0.59690000  0.17270000  1
  O  O108  1  0.40880000  0.02500000  0.72560000  1
  O  O109  1  0.90880000  0.72560000  0.02500000  1
  O  O110  1  0.24380000  0.33683000  0.39063000  1
  O  O111  1  0.74380000  0.39063000  0.33683000  1
  O  O112  1  0.33940000  0.22435000  0.50075000  1
  O  O113  1  0.83940000  0.50075000  0.22435000  1
  O  O114  1  0.02390000  0.23490000  0.46250000  1
  O  O115  1  0.52390000  0.46250000  0.23490000  1
  O  O116  1  0.85040000  0.17460000  0.41160000  1
  O  O117  1  0.35040000  0.41160000  0.17460000  1
  O  O118  1  0.68500000  0.18940000  0.39540000  1
  O  O119  1  0.18500000  0.39540000  0.18940000  1
  O  O120  1  0.31500000  0.81060000  0.60460000  1
  O  O121  1  0.81500000  0.60460000  0.81060000  1
  O  O122  1  0.14960000  0.82540000  0.58840000  1
  O  O123  1  0.64960000  0.58840000  0.82540000  1
  O  O124  1  0.97610000  0.76510000  0.53750000  1
  O  O125  1  0.47610000  0.53750000  0.76510000  1
  O  O126  1  0.66060000  0.77565000  0.49925000  1
  O  O127  1  0.16060000  0.49925000  0.77565000  1
  O  O128  1  0.75620000  0.66317000  0.60937000  1
  O  O129  1  0.25620000  0.60937000  0.66317000  1
  O  O130  1  0.59120000  0.97500000  0.27440000  1
  O  O131  1  0.09120000  0.27440000  0.97500000  1
  O  O132  1  0.07690000  0.82730000  0.40310000  1
  O  O133  1  0.57690000  0.40310000  0.82730000  1
  O  O134  1  0.46140000  0.65736000  0.53836000  1
  O  O135  1  0.96140000  0.53836000  0.65736000  1
  O  O136  1  0.11020000  0.57849000  0.55849000  1
  O  O137  1  0.61020000  0.55849000  0.57849000  1
  O  O138  1  0.70260000  0.86500000  0.25000000  1
  O  O139  1  0.20260000  0.25000000  0.86500000  1
  O  O140  1  0.93110000  0.91420000  0.18040000  1
  O  O141  1  0.43110000  0.18040000  0.91420000  1
  O  O142  1  0.45240000  0.84360000  0.19080000  1
  O  O143  1  0.95240000  0.19080000  0.84360000  1
