# generated using pymatgen
data_Tb(CO)6
_symmetry_space_group_name_H-M   'P 1'
_cell_length_a   8.43210000
_cell_length_b   9.55050000
_cell_length_c   13.18710000
_cell_angle_alpha   90.00000000
_cell_angle_beta   90.00000000
_cell_angle_gamma   94.38500000
_symmetry_Int_Tables_number   1
_chemical_formula_structural   Tb(CO)6
_chemical_formula_sum   'Tb4 C24 O24'
_cell_volume   1058.85874338
_cell_formula_units_Z   4
loop_
 _symmetry_equiv_pos_site_id
 _symmetry_equiv_pos_as_xyz
  1  'x, y, z'
loop_
 _atom_site_type_symbol
 _atom_site_label
 _atom_site_symmetry_multiplicity
 _atom_site_fract_x
 _atom_site_fract_y
 _atom_site_fract_z
 _atom_site_occupancy
  Tb  Tb0  1  0.96147000  0.01058000  0.77011000  1
  Tb  Tb1  1  0.53853000  0.48942000  0.27011000  1
  Tb  Tb2  1  0.46147000  0.51058000  0.72989000  1
  Tb  Tb3  1  0.03853000  0.98942000  0.22989000  1
  C  C4  1  0.97920000  0.62730000  0.95080000  1
  C  C5  1  0.96480000  0.75770000  0.88870000  1
  C  C6  1  0.90470000  0.37690000  0.97320000  1
  C  C7  1  0.88190000  0.50560000  0.92470000  1
  C  C8  1  0.79570000  0.24540000  0.94780000  1
  C  C9  1  0.75260000  0.98480000  0.35140000  1
  C  C10  1  0.74740000  0.51520000  0.85140000  1
  C  C11  1  0.70430000  0.25460000  0.44780000  1
  C  C12  1  0.61810000  0.99440000  0.42470000  1
  C  C13  1  0.59530000  0.12310000  0.47320000  1
  C  C14  1  0.53520000  0.74230000  0.38870000  1
  C  C15  1  0.52080000  0.87270000  0.45080000  1
  C  C16  1  0.47920000  0.12730000  0.54920000  1
  C  C17  1  0.46480000  0.25770000  0.61130000  1
  C  C18  1  0.40470000  0.87690000  0.52680000  1
  C  C19  1  0.38190000  0.00560000  0.57530000  1
  C  C20  1  0.29570000  0.74540000  0.55220000  1
  C  C21  1  0.25260000  0.48480000  0.14860000  1
  C  C22  1  0.24740000  0.01520000  0.64860000  1
  C  C23  1  0.20430000  0.75460000  0.05220000  1
  C  C24  1  0.11810000  0.49440000  0.07530000  1
  C  C25  1  0.09530000  0.62310000  0.02680000  1
  C  C26  1  0.03520000  0.24230000  0.11130000  1
  C  C27  1  0.02080000  0.37270000  0.04920000  1
  O  O28  1  0.96610000  0.74960000  0.79270000  1
  O  O29  1  0.95650000  0.87710000  0.93220000  1
  O  O30  1  0.84440000  0.15710000  0.88660000  1
  O  O31  1  0.84130000  0.26150000  0.48700000  1
  O  O32  1  0.83860000  0.88270000  0.35750000  1
  O  O33  1  0.78320000  0.08140000  0.28570000  1
  O  O34  1  0.71680000  0.41860000  0.78570000  1
  O  O35  1  0.66140000  0.61730000  0.85750000  1
  O  O36  1  0.65870000  0.23850000  0.98700000  1
  O  O37  1  0.65560000  0.34290000  0.38660000  1
  O  O38  1  0.54350000  0.62290000  0.43220000  1
  O  O39  1  0.53390000  0.75040000  0.29270000  1
  O  O40  1  0.46610000  0.24960000  0.70730000  1
  O  O41  1  0.45650000  0.37710000  0.56780000  1
  O  O42  1  0.34440000  0.65710000  0.61340000  1
  O  O43  1  0.34130000  0.76150000  0.01300000  1
  O  O44  1  0.33860000  0.38270000  0.14250000  1
  O  O45  1  0.28320000  0.58140000  0.21430000  1
  O  O46  1  0.21680000  0.91860000  0.71430000  1
  O  O47  1  0.16140000  0.11730000  0.64250000  1
  O  O48  1  0.15870000  0.73850000  0.51300000  1
  O  O49  1  0.15560000  0.84290000  0.11340000  1
  O  O50  1  0.04350000  0.12290000  0.06780000  1
  O  O51  1  0.03390000  0.25040000  0.20730000  1
