# generated using pymatgen
data_CuH9C17NO4
_symmetry_space_group_name_H-M   'P 1'
_cell_length_a   12.04210000
_cell_length_b   14.30260000
_cell_length_c   21.69870000
_cell_angle_alpha   90.00000000
_cell_angle_beta   90.00000000
_cell_angle_gamma   90.00000000
_symmetry_Int_Tables_number   1
_chemical_formula_structural   CuH9C17NO4
_chemical_formula_sum   'Cu8 H72 C136 N8 O32'
_cell_volume   3737.23956294
_cell_formula_units_Z   8
loop_
 _symmetry_equiv_pos_site_id
 _symmetry_equiv_pos_as_xyz
  1  'x, y, z'
loop_
 _atom_site_type_symbol
 _atom_site_label
 _atom_site_symmetry_multiplicity
 _atom_site_fract_x
 _atom_site_fract_y
 _atom_site_fract_z
 _atom_site_occupancy
  Cu  Cu0  1  0.48858000  0.94980000  0.55231000  1
  Cu  Cu1  1  0.01142000  0.94980000  0.05231000  1
  Cu  Cu2  1  0.98858000  0.55020000  0.55231000  1
  Cu  Cu3  1  0.51142000  0.55020000  0.05231000  1
  Cu  Cu4  1  0.48858000  0.44980000  0.94769000  1
  Cu  Cu5  1  0.01142000  0.44980000  0.44769000  1
  Cu  Cu6  1  0.98858000  0.05020000  0.94769000  1
  Cu  Cu7  1  0.51142000  0.05020000  0.44769000  1
  H  H8  1  0.49280000  0.99970000  0.31900000  1
  H  H9  1  0.00720000  0.99970000  0.81900000  1
  H  H10  1  0.45520000  0.96640000  0.78200000  1
  H  H11  1  0.04480000  0.96640000  0.28200000  1
  H  H12  1  0.25420000  0.93630000  0.83910000  1
  H  H13  1  0.24580000  0.93630000  0.33910000  1
  H  H14  1  0.78320000  0.90740000  0.17700000  1
  H  H15  1  0.71680000  0.90740000  0.67700000  1
  H  H16  1  0.78350000  0.87050000  0.57850000  1
  H  H17  1  0.71650000  0.87050000  0.07850000  1
  H  H18  1  0.76530000  0.81760000  0.76120000  1
  H  H19  1  0.73470000  0.81760000  0.26120000  1
  H  H20  1  0.93500000  0.80300000  0.83700000  1
  H  H21  1  0.56500000  0.80300000  0.33700000  1
  H  H22  1  0.28090000  0.77950000  0.99420000  1
  H  H23  1  0.21910000  0.77950000  0.49420000  1
  H  H24  1  0.39090000  0.76150000  0.56320000  1
  H  H25  1  0.10910000  0.76150000  0.06320000  1
  H  H26  1  0.89090000  0.73850000  0.56320000  1
  H  H27  1  0.60910000  0.73850000  0.06320000  1
  H  H28  1  0.78090000  0.72050000  0.99420000  1
  H  H29  1  0.71910000  0.72050000  0.49420000  1
  H  H30  1  0.43500000  0.69700000  0.83700000  1
  H  H31  1  0.06500000  0.69700000  0.33700000  1
  H  H32  1  0.26530000  0.68240000  0.76120000  1
  H  H33  1  0.23470000  0.68240000  0.26120000  1
  H  H34  1  0.28350000  0.62950000  0.57850000  1
  H  H35  1  0.21650000  0.62950000  0.07850000  1
  H  H36  1  0.28320000  0.59260000  0.17700000  1
  H  H37  1  0.21680000  0.59260000  0.67700000  1
  H  H38  1  0.75420000  0.56370000  0.83910000  1
  H  H39  1  0.74580000  0.56370000  0.33910000  1
  H  H40  1  0.95520000  0.53360000  0.78200000  1
  H  H41  1  0.54480000  0.53360000  0.28200000  1
  H  H42  1  0.99280000  0.50030000  0.31900000  1
  H  H43  1  0.50720000  0.50030000  0.81900000  1
  H  H44  1  0.49280000  0.49970000  0.18100000  1
  H  H45  1  0.00720000  0.49970000  0.68100000  1
  H  H46  1  0.45520000  0.46640000  0.71800000  1
  H  H47  1  0.04480000  0.46640000  0.21800000  1
  H  H48  1  0.25420000  0.43630000  0.66090000  1
  H  H49  1  0.24580000  0.43630000  0.16090000  1
  H  H50  1  0.78320000  0.40740000  0.32300000  1
  H  H51  1  0.71680000  0.40740000  0.82300000  1
  H  H52  1  0.78350000  0.37050000  0.92150000  1
  H  H53  1  0.71650000  0.37050000  0.42150000  1
  H  H54  1  0.76530000  0.31760000  0.73880000  1
  H  H55  1  0.73470000  0.31760000  0.23880000  1
  H  H56  1  0.93500000  0.30300000  0.66300000  1
  H  H57  1  0.56500000  0.30300000  0.16300000  1
  H  H58  1  0.28090000  0.27950000  0.50580000  1
  H  H59  1  0.21910000  0.27950000  0.00580000  1
  H  H60  1  0.39090000  0.26150000  0.93680000  1
  H  H61  1  0.10910000  0.26150000  0.43680000  1
  H  H62  1  0.89090000  0.23850000  0.93680000  1
  H  H63  1  0.60910000  0.23850000  0.43680000  1
  H  H64  1  0.78090000  0.22050000  0.50580000  1
  H  H65  1  0.71910000  0.22050000  0.00580000  1
  H  H66  1  0.43500000  0.19700000  0.66300000  1
  H  H67  1  0.06500000  0.19700000  0.16300000  1
  H  H68  1  0.26530000  0.18240000  0.73880000  1
  H  H69  1  0.23470000  0.18240000  0.23880000  1
  H  H70  1  0.28350000  0.12950000  0.92150000  1
  H  H71  1  0.21650000  0.12950000  0.42150000  1
  H  H72  1  0.28320000  0.09260000  0.32300000  1
  H  H73  1  0.21680000  0.09260000  0.82300000  1
  H  H74  1  0.75420000  0.06370000  0.66090000  1
  H  H75  1  0.74580000  0.06370000  0.16090000  1
  H  H76  1  0.95520000  0.03360000  0.71800000  1
  H  H77  1  0.54480000  0.03360000  0.21800000  1
  H  H78  1  0.99280000  0.00030000  0.18100000  1
  H  H79  1  0.50720000  0.00030000  0.68100000  1
  C  C80  1  0.46930000  0.94323000  0.68892000  1
  C  C81  1  0.03070000  0.94323000  0.18892000  1
  C  C82  1  0.32923000  0.92950000  0.45263000  1
  C  C83  1  0.17077000  0.92950000  0.95263000  1
  C  C84  1  0.43810000  0.92336000  0.75002000  1
  C  C85  1  0.06190000  0.92336000  0.25002000  1
  C  C86  1  0.28247000  0.88279000  0.85979000  1
  C  C87  1  0.21753000  0.88279000  0.35979000  1
  C  C88  1  0.25438000  0.86704000  0.92126000  1
  C  C89  1  0.24562000  0.86704000  0.42126000  1
  C  C90  1  0.90759000  0.85832000  0.95366000  1
  C  C91  1  0.59241000  0.85832000  0.45366000  1
  C  C92  1  0.76260000  0.85405000  0.67150000  1
  C  C93  1  0.73740000  0.85405000  0.17150000  1
  C  C94  1  0.38306000  0.84187000  0.76336000  1
  C  C95  1  0.11694000  0.84187000  0.26336000  1
  C  C96  1  0.80130000  0.83130000  0.61245000  1
  C  C97  1  0.69870000  0.83130000  0.11245000  1
  C  C98  1  0.35163000  0.82083000  0.82842000  1
  C  C99  1  0.14837000  0.82083000  0.32842000  1
  C  C100  1  0.39050000  0.80633000  0.65340000  1
  C  C101  1  0.10950000  0.80633000  0.15340000  1
  C  C102  1  0.79020000  0.80014000  0.72134000  1
  C  C103  1  0.70980000  0.80014000  0.22134000  1
  C  C104  1  0.29741000  0.78933000  0.95186000  1
  C  C105  1  0.20259000  0.78933000  0.45186000  1
  C  C106  1  0.35547000  0.78137000  0.71405000  1
  C  C107  1  0.14453000  0.78137000  0.21405000  1
  C  C108  1  0.86414000  0.77353000  0.92053000  1
  C  C109  1  0.63586000  0.77353000  0.42053000  1
  C  C110  1  0.89060000  0.75885000  0.85857000  1
  C  C111  1  0.60940000  0.75885000  0.35857000  1
  C  C112  1  0.86450000  0.75302000  0.60332000  1
  C  C113  1  0.63550000  0.75302000  0.10332000  1
  C  C114  1  0.36450000  0.74698000  0.60332000  1
  C  C115  1  0.13550000  0.74698000  0.10332000  1
  C  C116  1  0.39060000  0.74115000  0.85857000  1
  C  C117  1  0.10940000  0.74115000  0.35857000  1
  C  C118  1  0.36414000  0.72647000  0.92053000  1
  C  C119  1  0.13586000  0.72647000  0.42053000  1
  C  C120  1  0.85547000  0.71863000  0.71405000  1
  C  C121  1  0.64453000  0.71863000  0.21405000  1
  C  C122  1  0.79741000  0.71067000  0.95186000  1
  C  C123  1  0.70259000  0.71067000  0.45186000  1
  C  C124  1  0.29020000  0.69986000  0.72134000  1
  C  C125  1  0.20980000  0.69986000  0.22134000  1
  C  C126  1  0.89050000  0.69367000  0.65340000  1
  C  C127  1  0.60950000  0.69367000  0.15340000  1
  C  C128  1  0.85163000  0.67917000  0.82842000  1
  C  C129  1  0.64837000  0.67917000  0.32842000  1
  C  C130  1  0.30130000  0.66870000  0.61245000  1
  C  C131  1  0.19870000  0.66870000  0.11245000  1
  C  C132  1  0.88306000  0.65813000  0.76336000  1
  C  C133  1  0.61694000  0.65813000  0.26336000  1
  C  C134  1  0.26260000  0.64595000  0.67150000  1
  C  C135  1  0.23740000  0.64595000  0.17150000  1
  C  C136  1  0.40759000  0.64168000  0.95366000  1
  C  C137  1  0.09241000  0.64168000  0.45366000  1
  C  C138  1  0.75438000  0.63296000  0.92126000  1
  C  C139  1  0.74562000  0.63296000  0.42126000  1
  C  C140  1  0.78247000  0.61721000  0.85979000  1
  C  C141  1  0.71753000  0.61721000  0.35979000  1
  C  C142  1  0.93810000  0.57664000  0.75002000  1
  C  C143  1  0.56190000  0.57664000  0.25002000  1
  C  C144  1  0.82923000  0.57050000  0.45263000  1
  C  C145  1  0.67077000  0.57050000  0.95263000  1
  C  C146  1  0.96930000  0.55677000  0.68892000  1
  C  C147  1  0.53070000  0.55677000  0.18892000  1
  C  C148  1  0.46930000  0.44323000  0.81108000  1
  C  C149  1  0.03070000  0.44323000  0.31108000  1
  C  C150  1  0.32923000  0.42950000  0.04737000  1
  C  C151  1  0.17077000  0.42950000  0.54737000  1
  C  C152  1  0.43810000  0.42336000  0.74998000  1
  C  C153  1  0.06190000  0.42336000  0.24998000  1
  C  C154  1  0.28247000  0.38279000  0.64021000  1
  C  C155  1  0.21753000  0.38279000  0.14021000  1
  C  C156  1  0.25438000  0.36704000  0.57874000  1
  C  C157  1  0.24562000  0.36704000  0.07874000  1
  C  C158  1  0.90759000  0.35832000  0.54634000  1
  C  C159  1  0.59241000  0.35832000  0.04634000  1
  C  C160  1  0.76260000  0.35405000  0.82850000  1
  C  C161  1  0.73740000  0.35405000  0.32850000  1
  C  C162  1  0.38306000  0.34187000  0.73664000  1
  C  C163  1  0.11694000  0.34187000  0.23664000  1
  C  C164  1  0.80130000  0.33130000  0.88755000  1
  C  C165  1  0.69870000  0.33130000  0.38755000  1
  C  C166  1  0.35163000  0.32083000  0.67158000  1
  C  C167  1  0.14837000  0.32083000  0.17158000  1
  C  C168  1  0.39050000  0.30633000  0.84660000  1
  C  C169  1  0.10950000  0.30633000  0.34660000  1
  C  C170  1  0.79020000  0.30014000  0.77866000  1
  C  C171  1  0.70980000  0.30014000  0.27866000  1
  C  C172  1  0.29741000  0.28933000  0.54814000  1
  C  C173  1  0.20259000  0.28933000  0.04814000  1
  C  C174  1  0.35547000  0.28137000  0.78595000  1
  C  C175  1  0.14453000  0.28137000  0.28595000  1
  C  C176  1  0.86414000  0.27353000  0.57947000  1
  C  C177  1  0.63586000  0.27353000  0.07947000  1
  C  C178  1  0.89060000  0.25885000  0.64143000  1
  C  C179  1  0.60940000  0.25885000  0.14143000  1
  C  C180  1  0.86450000  0.25302000  0.89668000  1
  C  C181  1  0.63550000  0.25302000  0.39668000  1
  C  C182  1  0.36450000  0.24698000  0.89668000  1
  C  C183  1  0.13550000  0.24698000  0.39668000  1
  C  C184  1  0.39060000  0.24115000  0.64143000  1
  C  C185  1  0.10940000  0.24115000  0.14143000  1
  C  C186  1  0.36414000  0.22647000  0.57947000  1
  C  C187  1  0.13586000  0.22647000  0.07947000  1
  C  C188  1  0.85547000  0.21863000  0.78595000  1
  C  C189  1  0.64453000  0.21863000  0.28595000  1
  C  C190  1  0.79741000  0.21067000  0.54814000  1
  C  C191  1  0.70259000  0.21067000  0.04814000  1
  C  C192  1  0.29020000  0.19986000  0.77866000  1
  C  C193  1  0.20980000  0.19986000  0.27866000  1
  C  C194  1  0.89050000  0.19367000  0.84660000  1
  C  C195  1  0.60950000  0.19367000  0.34660000  1
  C  C196  1  0.85163000  0.17917000  0.67158000  1
  C  C197  1  0.64837000  0.17917000  0.17158000  1
  C  C198  1  0.30130000  0.16870000  0.88755000  1
  C  C199  1  0.19870000  0.16870000  0.38755000  1
  C  C200  1  0.88306000  0.15813000  0.73664000  1
  C  C201  1  0.61694000  0.15813000  0.23664000  1
  C  C202  1  0.26260000  0.14595000  0.82850000  1
  C  C203  1  0.23740000  0.14595000  0.32850000  1
  C  C204  1  0.40759000  0.14168000  0.54634000  1
  C  C205  1  0.09241000  0.14168000  0.04634000  1
  C  C206  1  0.75438000  0.13296000  0.57874000  1
  C  C207  1  0.74562000  0.13296000  0.07874000  1
  C  C208  1  0.78247000  0.11721000  0.64021000  1
  C  C209  1  0.71753000  0.11721000  0.14021000  1
  C  C210  1  0.93810000  0.07664000  0.74998000  1
  C  C211  1  0.56190000  0.07664000  0.24998000  1
  C  C212  1  0.82923000  0.07050000  0.04737000  1
  C  C213  1  0.67077000  0.07050000  0.54737000  1
  C  C214  1  0.96930000  0.05677000  0.81108000  1
  C  C215  1  0.53070000  0.05677000  0.31108000  1
  N  N216  1  0.44887000  0.88691000  0.64161000  1
  N  N217  1  0.05113000  0.88691000  0.14161000  1
  N  N218  1  0.94887000  0.61309000  0.64161000  1
  N  N219  1  0.55113000  0.61309000  0.14161000  1
  N  N220  1  0.44887000  0.38691000  0.85839000  1
  N  N221  1  0.05113000  0.38691000  0.35839000  1
  N  N222  1  0.94887000  0.11309000  0.85839000  1
  N  N223  1  0.55113000  0.11309000  0.35839000  1
  O  O224  1  0.37079000  0.99388000  0.42049000  1
  O  O225  1  0.12921000  0.99388000  0.92049000  1
  O  O226  1  0.91900000  0.93102000  0.92176000  1
  O  O227  1  0.58100000  0.93102000  0.42176000  1
  O  O228  1  0.35412000  0.90939000  0.50715000  1
  O  O229  1  0.14588000  0.90939000  0.00715000  1
  O  O230  1  0.93060000  0.84907000  0.00997000  1
  O  O231  1  0.56940000  0.84907000  0.50997000  1
  O  O232  1  0.43060000  0.65093000  0.00997000  1
  O  O233  1  0.06940000  0.65093000  0.50997000  1
  O  O234  1  0.85412000  0.59061000  0.50715000  1
  O  O235  1  0.64588000  0.59061000  0.00715000  1
  O  O236  1  0.41900000  0.56898000  0.92176000  1
  O  O237  1  0.08100000  0.56898000  0.42176000  1
  O  O238  1  0.87079000  0.50612000  0.42049000  1
  O  O239  1  0.62921000  0.50612000  0.92049000  1
  O  O240  1  0.37079000  0.49388000  0.07951000  1
  O  O241  1  0.12921000  0.49388000  0.57951000  1
  O  O242  1  0.91900000  0.43102000  0.57824000  1
  O  O243  1  0.58100000  0.43102000  0.07824000  1
  O  O244  1  0.35412000  0.40939000  0.99285000  1
  O  O245  1  0.14588000  0.40939000  0.49285000  1
  O  O246  1  0.93060000  0.34907000  0.49003000  1
  O  O247  1  0.56940000  0.34907000  0.99003000  1
  O  O248  1  0.43060000  0.15093000  0.49003000  1
  O  O249  1  0.06940000  0.15093000  0.99003000  1
  O  O250  1  0.85412000  0.09061000  0.99285000  1
  O  O251  1  0.64588000  0.09061000  0.49285000  1
  O  O252  1  0.41900000  0.06898000  0.57824000  1
  O  O253  1  0.08100000  0.06898000  0.07824000  1
  O  O254  1  0.87079000  0.00612000  0.07951000  1
  O  O255  1  0.62921000  0.00612000  0.57951000  1
