# generated using pymatgen
data_AgH12(C3N)6
_symmetry_space_group_name_H-M   'P 1'
_cell_length_a   13.82013237
_cell_length_b   13.82013237
_cell_length_c   24.57152488
_cell_angle_alpha   102.28563625
_cell_angle_beta   101.74473620
_cell_angle_gamma   105.05656815
_symmetry_Int_Tables_number   1
_chemical_formula_structural   AgH12(C3N)6
_chemical_formula_sum   'Ag8 H96 C144 N48'
_cell_volume   4258.30427661
_cell_formula_units_Z   8
loop_
 _symmetry_equiv_pos_site_id
 _symmetry_equiv_pos_as_xyz
  1  'x, y, z'
loop_
 _atom_site_type_symbol
 _atom_site_label
 _atom_site_symmetry_multiplicity
 _atom_site_fract_x
 _atom_site_fract_y
 _atom_site_fract_z
 _atom_site_occupancy
  Ag  Ag0  1  0.19934000  0.02125000  0.13345000  1
  Ag  Ag1  1  0.11220000  0.43411000  0.63345000  1
  Ag  Ag2  1  0.43582000  0.21190000  0.13374000  1
  Ag  Ag3  1  0.92184000  0.19792000  0.63374000  1
  Ag  Ag4  1  0.56418000  0.78810000  0.86626000  1
  Ag  Ag5  1  0.07816000  0.80208000  0.36626000  1
  Ag  Ag6  1  0.80066000  0.97875000  0.86655000  1
  Ag  Ag7  1  0.88780000  0.56589000  0.36655000  1
  C  C8  1  0.42870000  0.83130000  0.40480000  1
  C  C9  1  0.57350000  0.47610000  0.90480000  1
  C  C10  1  0.38810000  0.87540000  0.49390000  1
  C  C11  1  0.61850000  0.60580000  0.99390000  1
  C  C12  1  0.19120000  0.63810000  0.49730000  1
  C  C13  1  0.85920000  0.80610000  0.99730000  1
  C  C14  1  0.17630000  0.23980000  0.11850000  1
  C  C15  1  0.87870000  0.44220000  0.61850000  1
  C  C16  1  0.22300000  0.56720000  0.40860000  1
  C  C17  1  0.84140000  0.68560000  0.90860000  1
  C  C18  1  0.46020000  0.85920000  0.46440000  1
  C  C19  1  0.60520000  0.50420000  0.96440000  1
  C  C20  1  0.16020000  0.12780000  0.03340000  1
  C  C21  1  0.90560000  0.37320000  0.53340000  1
  C  C22  1  0.40130000  0.32660000  0.03730000  1
  C  C23  1  0.71070000  0.13600000  0.53730000  1
  C  C24  1  0.44150000  0.45080000  0.12210000  1
  C  C25  1  0.67130000  0.18060000  0.62210000  1
  C  C26  1  0.26010000  0.60820000  0.46730000  1
  C  C27  1  0.85910000  0.70720000  0.96730000  1
  C  C28  1  0.56900000  0.87250000  0.49830000  1
  C  C29  1  0.62580000  0.42930000  0.99830000  1
  C  C30  1  0.36720000  0.62090000  0.49950000  1
  C  C31  1  0.87860000  0.63230000  0.99950000  1
  C  C32  1  0.38210000  0.29460000  0.25830000  1
  C  C33  1  0.96370000  0.37620000  0.75830000  1
  C  C34  1  0.21620000  0.39320000  0.52740000  1
  C  C35  1  0.13420000  0.81120000  0.02740000  1
  C  C36  1  0.63400000  0.95540000  0.67820000  1
  C  C37  1  0.72280000  0.54420000  0.17820000  1
  C  C38  1  0.67820000  0.40470000  0.08610000  1
  C  C39  1  0.68140000  0.90790000  0.58610000  1
  C  C40  1  0.62820000  0.27140000  0.00420000  1
  C  C41  1  0.73280000  0.87600000  0.50420000  1
  C  C42  1  0.57670000  0.12100000  0.91670000  1
  C  C43  1  0.79570000  0.84000000  0.41670000  1
  C  C44  1  0.37470000  0.00930000  0.02240000  1
  C  C45  1  0.01310000  0.14770000  0.52240000  1
  C  C46  1  0.20010000  0.56930000  0.75940000  1
  C  C47  1  0.19010000  0.05930000  0.25940000  1
  C  C48  1  0.39670000  0.31870000  0.31700000  1
  C  C49  1  0.99830000  0.42030000  0.81700000  1
  C  C50  1  0.28570000  0.37740000  0.49630000  1
  C  C51  1  0.11890000  0.71060000  0.99630000  1
  C  C52  1  0.59440000  0.60020000  0.41340000  1
  C  C53  1  0.81320000  0.31900000  0.91340000  1
  C  C54  1  0.53360000  0.62640000  0.50300000  1
  C  C55  1  0.87660000  0.46940000  0.00300000  1
  C  C56  1  0.48440000  0.65050000  0.58550000  1
  C  C57  1  0.93500000  0.60110000  0.08550000  1
  C  C58  1  0.65830000  0.97380000  0.73810000  1
  C  C59  1  0.76430000  0.57980000  0.23810000  1
  C  C60  1  0.70330000  0.92950000  0.65000000  1
  C  C61  1  0.72050000  0.44670000  0.15000000  1
  C  C62  1  0.42810000  0.67680000  0.67590000  1
  C  C63  1  0.99910000  0.74780000  0.17590000  1
  C  C64  1  0.61240000  0.16000000  0.97500000  1
  C  C65  1  0.81500000  0.86260000  0.47500000  1
  C  C66  1  0.56790000  0.01830000  0.89060000  1
  C  C67  1  0.87230000  0.82270000  0.39060000  1
  C  C68  1  0.23980000  0.61300000  0.81900000  1
  C  C69  1  0.20600000  0.07920000  0.31900000  1
  C  C70  1  0.36270000  0.90720000  0.99190000  1
  C  C71  1  0.08470000  0.12920000  0.49190000  1
  C  C72  1  0.61400000  0.61630000  0.47230000  1
  C  C73  1  0.85600000  0.35830000  0.97230000  1
  C  C74  1  0.67120000  0.58740000  0.38720000  1
  C  C75  1  0.79980000  0.21600000  0.88720000  1
  C  C76  1  0.50570000  0.67010000  0.64900000  1
  C  C77  1  0.97890000  0.64330000  0.14900000  1
  C  C78  1  0.45030000  0.69570000  0.73440000  1
  C  C79  1  0.03870000  0.78410000  0.23440000  1
  C  C80  1  0.54970000  0.30430000  0.26560000  1
  C  C81  1  0.96130000  0.21590000  0.76560000  1
  C  C82  1  0.49430000  0.32990000  0.35100000  1
  C  C83  1  0.02110000  0.35670000  0.85100000  1
  C  C84  1  0.32880000  0.41260000  0.61280000  1
  C  C85  1  0.20020000  0.78400000  0.11280000  1
  C  C86  1  0.38600000  0.38370000  0.52770000  1
  C  C87  1  0.14400000  0.64170000  0.02770000  1
  C  C88  1  0.63730000  0.09280000  0.00810000  1
  C  C89  1  0.91530000  0.87080000  0.50810000  1
  C  C90  1  0.76020000  0.38700000  0.18100000  1
  C  C91  1  0.79400000  0.92080000  0.68100000  1
  C  C92  1  0.43210000  0.98170000  0.10940000  1
  C  C93  1  0.12770000  0.17730000  0.60940000  1
  C  C94  1  0.38760000  0.84000000  0.02500000  1
  C  C95  1  0.18500000  0.13740000  0.52500000  1
  C  C96  1  0.57190000  0.32320000  0.32410000  1
  C  C97  1  0.00090000  0.25220000  0.82410000  1
  C  C98  1  0.29670000  0.07050000  0.35000000  1
  C  C99  1  0.27950000  0.55330000  0.85000000  1
  C  C100  1  0.34170000  0.02620000  0.26190000  1
  C  C101  1  0.23570000  0.42020000  0.76190000  1
  C  C102  1  0.51560000  0.34950000  0.41450000  1
  C  C103  1  0.06500000  0.39890000  0.91450000  1
  C  C104  1  0.46640000  0.37360000  0.49700000  1
  C  C105  1  0.12340000  0.53060000  0.99700000  1
  C  C106  1  0.40560000  0.39980000  0.58660000  1
  C  C107  1  0.18680000  0.68100000  0.08660000  1
  C  C108  1  0.71430000  0.62260000  0.50370000  1
  C  C109  1  0.88110000  0.28940000  0.00370000  1
  C  C110  1  0.60330000  0.68130000  0.68300000  1
  C  C111  1  0.00170000  0.57970000  0.18300000  1
  C  C112  1  0.79990000  0.43070000  0.24060000  1
  C  C113  1  0.80990000  0.94070000  0.74060000  1
  C  C114  1  0.62530000  0.99070000  0.97760000  1
  C  C115  1  0.98690000  0.85230000  0.47760000  1
  C  C116  1  0.42330000  0.87900000  0.08330000  1
  C  C117  1  0.20430000  0.16000000  0.58330000  1
  C  C118  1  0.37180000  0.72860000  0.99580000  1
  C  C119  1  0.26720000  0.12400000  0.49580000  1
  C  C120  1  0.32180000  0.59530000  0.91390000  1
  C  C121  1  0.31860000  0.09210000  0.41390000  1
  C  C122  1  0.36600000  0.04460000  0.32180000  1
  C  C123  1  0.27720000  0.45580000  0.82180000  1
  C  C124  1  0.78380000  0.60680000  0.47260000  1
  C  C125  1  0.86580000  0.18880000  0.97260000  1
  C  C126  1  0.61790000  0.70540000  0.74170000  1
  C  C127  1  0.03630000  0.62380000  0.24170000  1
  C  C128  1  0.63280000  0.37910000  0.50050000  1
  C  C129  1  0.12140000  0.36770000  0.00050000  1
  C  C130  1  0.43100000  0.12750000  0.50170000  1
  C  C131  1  0.37420000  0.57070000  0.00170000  1
  C  C132  1  0.73990000  0.39180000  0.53270000  1
  C  C133  1  0.14090000  0.29280000  0.03270000  1
  C  C134  1  0.55850000  0.54920000  0.87790000  1
  C  C135  1  0.32870000  0.81940000  0.37790000  1
  C  C136  1  0.59870000  0.67340000  0.96270000  1
  C  C137  1  0.28930000  0.86400000  0.46270000  1
  C  C138  1  0.83980000  0.87220000  0.96660000  1
  C  C139  1  0.09440000  0.62680000  0.46660000  1
  C  C140  1  0.53980000  0.14080000  0.53560000  1
  C  C141  1  0.39480000  0.49580000  0.03560000  1
  C  C142  1  0.77700000  0.43280000  0.59140000  1
  C  C143  1  0.15860000  0.31440000  0.09140000  1
  C  C144  1  0.82370000  0.76020000  0.88150000  1
  C  C145  1  0.12130000  0.55780000  0.38150000  1
  C  C146  1  0.80880000  0.36190000  0.50270000  1
  C  C147  1  0.14080000  0.19390000  0.00270000  1
  C  C148  1  0.61190000  0.12460000  0.50610000  1
  C  C149  1  0.38150000  0.39420000  0.00610000  1
  C  C150  1  0.57130000  0.16870000  0.59520000  1
  C  C151  1  0.42650000  0.52390000  0.09520000  1
  H  H152  1  0.47510000  0.82070000  0.38340000  1
  H  H153  1  0.56270000  0.40830000  0.88340000  1
  H  H154  1  0.40620000  0.89380000  0.53420000  1
  H  H155  1  0.64040000  0.62800000  0.03420000  1
  H  H156  1  0.21200000  0.66500000  0.53740000  1
  H  H157  1  0.87240000  0.82540000  0.03740000  1
  H  H158  1  0.18690000  0.25510000  0.15840000  1
  H  H159  1  0.90330000  0.47150000  0.65840000  1
  H  H160  1  0.26560000  0.54570000  0.38710000  1
  H  H161  1  0.84140000  0.62150000  0.88710000  1
  H  H162  1  0.16030000  0.06300000  0.01290000  1
  H  H163  1  0.94990000  0.35260000  0.51290000  1
  H  H164  1  0.39330000  0.25890000  0.01700000  1
  H  H165  1  0.75810000  0.12370000  0.51700000  1
  H  H166  1  0.46060000  0.47050000  0.16230000  1
  H  H167  1  0.69180000  0.20170000  0.66230000  1
  H  H168  1  0.15150000  0.39300000  0.50710000  1
  H  H169  1  0.11410000  0.85560000  0.00710000  1
  H  H170  1  0.31560000  0.28370000  0.23550000  1
  H  H171  1  0.95180000  0.41990000  0.73550000  1
  H  H172  1  0.57200000  0.96060000  0.65780000  1
  H  H173  1  0.69720000  0.58580000  0.15780000  1
  H  H174  1  0.55800000  0.16300000  0.89420000  1
  H  H175  1  0.73120000  0.83620000  0.39420000  1
  H  H176  1  0.17470000  0.61000000  0.73810000  1
  H  H177  1  0.12810000  0.06340000  0.23810000  1
  H  H178  1  0.35820000  0.05410000  0.00130000  1
  H  H179  1  0.94720000  0.14310000  0.50130000  1
  H  H180  1  0.53000000  0.59790000  0.39150000  1
  H  H181  1  0.79360000  0.36150000  0.89150000  1
  H  H182  1  0.36150000  0.66830000  0.65420000  1
  H  H183  1  0.98590000  0.79270000  0.15420000  1
  H  H184  1  0.34330000  0.32703333  0.33333333  1
  H  H185  1  0.00630000  0.49000000  0.83330000  1
  H  H186  1  0.26740000  0.36290000  0.45610000  1
  H  H187  1  0.09320000  0.68870000  0.95610000  1
  H  H188  1  0.61190000  0.99330000  0.75720000  1
  H  H189  1  0.76390000  0.64530000  0.25720000  1
  H  H190  1  0.23940000  0.67930000  0.83710000  1
  H  H191  1  0.15780000  0.09770000  0.33710000  1
  H  H192  1  0.54400000  0.99350000  0.85050000  1
  H  H193  1  0.85700000  0.80650000  0.35050000  1
  H  H194  1  0.33950000  0.88440000  0.95170000  1
  H  H195  1  0.06730000  0.11220000  0.45170000  1
  H  H196  1  0.65660000  0.57550000  0.34730000  1
  H  H197  1  0.77180000  0.19070000  0.84730000  1
  H  H198  1  0.39650000  0.69600000  0.75170000  1
  H  H199  1  0.05570000  0.85520000  0.25170000  1
  H  H200  1  0.60350000  0.30400000  0.24830000  1
  H  H201  1  0.94430000  0.14480000  0.74830000  1
  H  H202  1  0.34340000  0.42450000  0.65270000  1
  H  H203  1  0.22820000  0.80930000  0.15270000  1
  H  H204  1  0.66050000  0.11560000  0.04830000  1
  H  H205  1  0.93270000  0.88780000  0.54830000  1
  H  H206  1  0.45600000  0.00650000  0.14950000  1
  H  H207  1  0.14300000  0.19350000  0.64950000  1
  H  H208  1  0.76060000  0.32070000  0.16290000  1
  H  H209  1  0.84220000  0.90230000  0.66290000  1
  H  H210  1  0.38810000  0.00670000  0.24280000  1
  H  H211  1  0.23610000  0.35470000  0.74280000  1
  H  H212  1  0.73260000  0.63710000  0.54390000  1
  H  H213  1  0.90680000  0.31130000  0.04390000  1
  H  H214  1  0.65670000  0.67296667  0.66666667  1
  H  H215  1  0.99370000  0.51000000  0.16670000  1
  H  H216  1  0.63850000  0.33170000  0.34580000  1
  H  H217  1  0.01410000  0.20730000  0.84580000  1
  H  H218  1  0.47000000  0.40210000  0.60850000  1
  H  H219  1  0.20640000  0.63850000  0.10850000  1
  H  H220  1  0.64180000  0.94590000  0.99870000  1
  H  H221  1  0.05280000  0.85690000  0.49870000  1
  H  H222  1  0.82530000  0.39000000  0.26190000  1
  H  H223  1  0.87190000  0.93660000  0.76190000  1
  H  H224  1  0.44200000  0.83700000  0.10580000  1
  H  H225  1  0.26880000  0.16380000  0.60580000  1
  H  H226  1  0.42800000  0.03940000  0.34220000  1
  H  H227  1  0.30280000  0.41420000  0.84220000  1
  H  H228  1  0.68440000  0.71630000  0.76450000  1
  H  H229  1  0.04820000  0.58010000  0.26450000  1
  H  H230  1  0.84850000  0.60700000  0.49290000  1
  H  H231  1  0.88590000  0.14440000  0.99290000  1
  H  H232  1  0.53940000  0.52950000  0.83770000  1
  H  H233  1  0.30820000  0.79830000  0.33770000  1
  H  H234  1  0.60670000  0.74110000  0.98300000  1
  H  H235  1  0.24190000  0.87630000  0.48300000  1
  H  H236  1  0.83970000  0.93700000  0.98710000  1
  H  H237  1  0.05010000  0.64740000  0.48710000  1
  H  H238  1  0.73440000  0.45430000  0.61290000  1
  H  H239  1  0.15860000  0.37850000  0.11290000  1
  H  H240  1  0.81310000  0.74490000  0.84160000  1
  H  H241  1  0.09670000  0.52850000  0.34160000  1
  H  H242  1  0.78800000  0.33500000  0.46260000  1
  H  H243  1  0.12760000  0.17460000  0.96260000  1
  H  H244  1  0.59380000  0.10620000  0.46580000  1
  H  H245  1  0.35960000  0.37200000  0.96580000  1
  H  H246  1  0.52490000  0.17930000  0.61660000  1
  H  H247  1  0.43730000  0.59170000  0.11660000  1
  N  N248  1  0.17910000  0.14780000  0.09030000  1
  N  N249  1  0.94250000  0.41120000  0.59030000  1
  N  N250  1  0.43080000  0.35210000  0.09470000  1
  N  N251  1  0.74260000  0.16390000  0.59470000  1
  N  N252  1  0.58490000  0.89600000  0.55630000  1
  N  N253  1  0.66030000  0.47140000  0.05630000  1
  N  N254  1  0.61180000  0.33310000  0.97090000  1
  N  N255  1  0.63780000  0.85910000  0.47090000  1
  N  N256  1  0.43770000  0.61270000  0.47020000  1
  N  N257  1  0.85750000  0.53250000  0.97020000  1
  N  N258  1  0.38660000  0.63920000  0.55680000  1
  N  N259  1  0.91760000  0.67020000  0.05680000  1
  N  N260  1  0.45380000  0.28590000  0.23150000  1
  N  N261  1  0.94560000  0.27770000  0.73150000  1
  N  N262  1  0.23430000  0.40880000  0.58370000  1
  N  N263  1  0.17490000  0.84940000  0.08370000  1
  N  N264  1  0.66070000  0.30290000  0.06220000  1
  N  N265  1  0.75930000  0.90150000  0.56220000  1
  N  N266  1  0.40790000  0.04600000  0.07950000  1
  N  N267  1  0.03350000  0.17160000  0.57950000  1
  N  N268  1  0.25550000  0.03520000  0.23070000  1
  N  N269  1  0.19550000  0.47520000  0.73070000  1
  N  N270  1  0.55990000  0.64620000  0.56030000  1
  N  N271  1  0.91410000  0.50040000  0.06030000  1
  N  N272  1  0.44010000  0.35380000  0.43970000  1
  N  N273  1  0.08590000  0.49960000  0.93970000  1
  N  N274  1  0.74450000  0.96480000  0.76930000  1
  N  N275  1  0.80450000  0.52480000  0.26930000  1
  N  N276  1  0.59210000  0.95400000  0.92050000  1
  N  N277  1  0.96650000  0.82840000  0.42050000  1
  N  N278  1  0.33930000  0.69710000  0.93780000  1
  N  N279  1  0.24070000  0.09850000  0.43780000  1
  N  N280  1  0.76570000  0.59120000  0.41630000  1
  N  N281  1  0.82510000  0.15060000  0.91630000  1
  N  N282  1  0.54620000  0.71410000  0.76850000  1
  N  N283  1  0.05440000  0.72230000  0.26850000  1
  N  N284  1  0.61340000  0.36080000  0.44320000  1
  N  N285  1  0.08240000  0.32980000  0.94320000  1
  N  N286  1  0.56230000  0.38730000  0.52980000  1
  N  N287  1  0.14250000  0.46750000  0.02980000  1
  N  N288  1  0.38820000  0.66690000  0.02910000  1
  N  N289  1  0.36220000  0.14090000  0.52910000  1
  N  N290  1  0.41510000  0.10400000  0.44370000  1
  N  N291  1  0.33970000  0.52860000  0.94370000  1
  N  N292  1  0.56920000  0.64790000  0.90530000  1
  N  N293  1  0.25740000  0.83610000  0.40530000  1
  N  N294  1  0.82090000  0.85220000  0.90970000  1
  N  N295  1  0.05750000  0.58880000  0.40970000  1
