# generated using pymatgen
data_Cu3H16C30(NO7)2
_symmetry_space_group_name_H-M   'P 1'
_cell_length_a   11.64160000
_cell_length_b   14.95170000
_cell_length_c   16.61080000
_cell_angle_alpha   90.00000000
_cell_angle_beta   93.89300000
_cell_angle_gamma   90.00000000
_symmetry_Int_Tables_number   1
_chemical_formula_structural   Cu3H16C30(NO7)2
_chemical_formula_sum   'Cu6 H32 C60 N4 O28'
_cell_volume   2884.63281411
_cell_formula_units_Z   2
loop_
 _symmetry_equiv_pos_site_id
 _symmetry_equiv_pos_as_xyz
  1  'x, y, z'
loop_
 _atom_site_type_symbol
 _atom_site_label
 _atom_site_symmetry_multiplicity
 _atom_site_fract_x
 _atom_site_fract_y
 _atom_site_fract_z
 _atom_site_occupancy
  Cu  Cu0  1  0.10323000  0.53630000  0.49135000  1
  Cu  Cu1  1  0.39677000  0.03630000  0.00865000  1
  Cu  Cu2  1  0.50000000  0.50000000  0.00000000  1
  Cu  Cu3  1  0.60323000  0.96370000  0.99135000  1
  Cu  Cu4  1  0.89677000  0.46370000  0.50865000  1
  Cu  Cu5  1  0.00000000  0.00000000  0.50000000  1
  H  H6  1  0.00800000  0.26790000  0.93870000  1
  H  H7  1  0.01710000  0.80410000  0.51760000  1
  H  H8  1  0.04780000  0.63770000  0.25570000  1
  H  H9  1  0.07050000  0.74590000  0.14410000  1
  H  H10  1  0.18330000  0.35680000  0.93730000  1
  H  H11  1  0.20730000  0.79600000  0.07010000  1
  H  H12  1  0.23730000  0.02880000  0.44970000  1
  H  H13  1  0.24540000  0.99470000  0.76400000  1
  H  H14  1  0.25460000  0.49470000  0.73600000  1
  H  H15  1  0.26270000  0.52880000  0.05030000  1
  H  H16  1  0.29270000  0.29600000  0.42990000  1
  H  H17  1  0.31670000  0.85680000  0.56270000  1
  H  H18  1  0.42950000  0.24590000  0.35590000  1
  H  H19  1  0.45220000  0.13770000  0.24430000  1
  H  H20  1  0.48290000  0.30410000  0.98240000  1
  H  H21  1  0.49200000  0.76790000  0.56130000  1
  H  H22  1  0.50800000  0.23210000  0.43870000  1
  H  H23  1  0.51710000  0.69590000  0.01760000  1
  H  H24  1  0.54780000  0.86230000  0.75570000  1
  H  H25  1  0.57050000  0.75410000  0.64410000  1
  H  H26  1  0.68330000  0.14320000  0.43730000  1
  H  H27  1  0.70730000  0.70400000  0.57010000  1
  H  H28  1  0.73730000  0.47120000  0.94970000  1
  H  H29  1  0.74540000  0.50530000  0.26400000  1
  H  H30  1  0.75460000  0.00530000  0.23600000  1
  H  H31  1  0.76270000  0.97120000  0.55030000  1
  H  H32  1  0.79270000  0.20400000  0.92990000  1
  H  H33  1  0.81670000  0.64320000  0.06270000  1
  H  H34  1  0.92950000  0.25410000  0.85590000  1
  H  H35  1  0.95220000  0.36230000  0.74430000  1
  H  H36  1  0.98290000  0.19590000  0.48240000  1
  H  H37  1  0.99200000  0.73210000  0.06130000  1
  C  C38  1  0.02460000  0.37948000  0.76961000  1
  C  C39  1  0.03020000  0.70108000  0.10850000  1
  C  C40  1  0.05490000  0.35027000  0.84704000  1
  C  C41  1  0.06090000  0.18623000  0.47120000  1
  C  C42  1  0.06140000  0.46167000  0.64356000  1
  C  C43  1  0.08210000  0.35112000  0.46552000  1
  C  C44  1  0.09740000  0.43333000  0.72785000  1
  C  C45  1  0.12930000  0.25891000  0.45725000  1
  C  C46  1  0.15480000  0.96327000  0.61540000  1
  C  C47  1  0.16120000  0.37629000  0.88406000  1
  C  C48  1  0.20360000  0.45870000  0.76439000  1
  C  C49  1  0.20930000  0.08841000  0.45152000  1
  C  C50  1  0.21640000  0.65903000  0.06480000  1
  C  C51  1  0.23450000  0.43068000  0.84303000  1
  C  C52  1  0.24400000  0.24663000  0.43913000  1
  C  C53  1  0.25600000  0.74663000  0.06087000  1
  C  C54  1  0.26550000  0.93068000  0.65697000  1
  C  C55  1  0.28360000  0.15903000  0.43520000  1
  C  C56  1  0.29070000  0.58841000  0.04848000  1
  C  C57  1  0.29640000  0.95870000  0.73561000  1
  C  C58  1  0.33880000  0.87629000  0.61594000  1
  C  C59  1  0.34520000  0.46327000  0.88460000  1
  C  C60  1  0.37070000  0.75891000  0.04275000  1
  C  C61  1  0.40260000  0.93333000  0.77215000  1
  C  C62  1  0.41790000  0.85112000  0.03448000  1
  C  C63  1  0.43860000  0.96167000  0.85644000  1
  C  C64  1  0.43910000  0.68623000  0.02880000  1
  C  C65  1  0.44510000  0.85027000  0.65296000  1
  C  C66  1  0.46980000  0.20108000  0.39150000  1
  C  C67  1  0.47540000  0.87948000  0.73039000  1
  C  C68  1  0.52460000  0.12052000  0.26961000  1
  C  C69  1  0.53020000  0.79892000  0.60850000  1
  C  C70  1  0.55490000  0.14973000  0.34704000  1
  C  C71  1  0.56090000  0.31377000  0.97120000  1
  C  C72  1  0.56140000  0.03833000  0.14356000  1
  C  C73  1  0.58210000  0.14888000  0.96552000  1
  C  C74  1  0.59740000  0.06667000  0.22785000  1
  C  C75  1  0.62930000  0.24109000  0.95725000  1
  C  C76  1  0.65480000  0.53673000  0.11540000  1
  C  C77  1  0.66120000  0.12371000  0.38406000  1
  C  C78  1  0.70360000  0.04130000  0.26439000  1
  C  C79  1  0.70930000  0.41159000  0.95152000  1
  C  C80  1  0.71640000  0.84097000  0.56480000  1
  C  C81  1  0.73450000  0.06932000  0.34303000  1
  C  C82  1  0.74400000  0.25337000  0.93913000  1
  C  C83  1  0.75600000  0.75337000  0.56087000  1
  C  C84  1  0.76550000  0.56932000  0.15697000  1
  C  C85  1  0.78360000  0.34097000  0.93520000  1
  C  C86  1  0.79070000  0.91159000  0.54848000  1
  C  C87  1  0.79640000  0.54130000  0.23561000  1
  C  C88  1  0.83880000  0.62371000  0.11594000  1
  C  C89  1  0.84520000  0.03673000  0.38460000  1
  C  C90  1  0.87070000  0.74109000  0.54275000  1
  C  C91  1  0.90260000  0.56667000  0.27215000  1
  C  C92  1  0.91790000  0.64888000  0.53448000  1
  C  C93  1  0.93860000  0.53833000  0.35644000  1
  C  C94  1  0.93910000  0.81377000  0.52880000  1
  C  C95  1  0.94510000  0.64973000  0.15296000  1
  C  C96  1  0.96980000  0.29892000  0.89150000  1
  C  C97  1  0.97540000  0.62052000  0.23039000  1
  N  N98  1  0.10092000  0.10212000  0.46949000  1
  N  N99  1  0.39908000  0.60212000  0.03051000  1
  N  N100  1  0.60092000  0.39788000  0.96949000  1
  N  N101  1  0.89908000  0.89788000  0.53051000  1
  O  O102  1  0.02370000  0.64515000  0.52246000  1
  O  O103  1  0.04062000  0.55737000  0.38094000  1
  O  O104  1  0.08990000  0.01411000  0.64916000  1
  O  O105  1  0.10992000  0.63350000  0.08313000  1
  O  O106  1  0.13442000  0.50216000  0.60473000  1
  O  O107  1  0.13587000  0.93605000  0.54215000  1
  O  O108  1  0.15020000  0.41482000  0.46175000  1
  O  O109  1  0.34980000  0.91482000  0.03825000  1
  O  O110  1  0.36413000  0.43605000  0.95785000  1
  O  O111  1  0.36558000  0.00216000  0.89527000  1
  O  O112  1  0.39008000  0.13350000  0.41687000  1
  O  O113  1  0.41010000  0.51411000  0.85084000  1
  O  O114  1  0.45938000  0.05737000  0.11906000  1
  O  O115  1  0.47630000  0.14515000  0.97754000  1
  O  O116  1  0.52370000  0.85485000  0.02246000  1
  O  O117  1  0.54062000  0.94263000  0.88094000  1
  O  O118  1  0.58990000  0.48589000  0.14916000  1
  O  O119  1  0.60992000  0.86650000  0.58313000  1
  O  O120  1  0.63442000  0.99784000  0.10473000  1
  O  O121  1  0.63587000  0.56395000  0.04215000  1
  O  O122  1  0.65020000  0.08518000  0.96175000  1
  O  O123  1  0.84980000  0.58518000  0.53825000  1
  O  O124  1  0.86413000  0.06395000  0.45785000  1
  O  O125  1  0.86558000  0.49784000  0.39527000  1
  O  O126  1  0.89008000  0.36650000  0.91687000  1
  O  O127  1  0.91010000  0.98589000  0.35084000  1
  O  O128  1  0.95938000  0.44263000  0.61906000  1
  O  O129  1  0.97630000  0.35485000  0.47754000  1
