# generated using pymatgen
data_Nd2H6C18(SO4)3
_symmetry_space_group_name_H-M   'P 1'
_cell_length_a   12.14550000
_cell_length_b   17.00720000
_cell_length_c   25.59370000
_cell_angle_alpha   102.38500000
_cell_angle_beta   90.00000000
_cell_angle_gamma   90.00000000
_symmetry_Int_Tables_number   1
_chemical_formula_structural   Nd2H6C18(SO4)3
_chemical_formula_sum   'Nd8 H24 C72 S12 O48'
_cell_volume   5163.63024286
_cell_formula_units_Z   4
loop_
 _symmetry_equiv_pos_site_id
 _symmetry_equiv_pos_as_xyz
  1  'x, y, z'
loop_
 _atom_site_type_symbol
 _atom_site_label
 _atom_site_symmetry_multiplicity
 _atom_site_fract_x
 _atom_site_fract_y
 _atom_site_fract_z
 _atom_site_occupancy
  Nd  Nd0  1  0.02740000  0.51463000  0.08101000  1
  Nd  Nd1  1  0.02740000  0.98537000  0.41899000  1
  Nd  Nd2  1  0.49908000  0.53925000  0.58282000  1
  Nd  Nd3  1  0.49908000  0.96075000  0.91718000  1
  Nd  Nd4  1  0.50092000  0.03925000  0.08282000  1
  Nd  Nd5  1  0.50092000  0.46075000  0.41718000  1
  Nd  Nd6  1  0.97260000  0.01463000  0.58101000  1
  Nd  Nd7  1  0.97260000  0.48537000  0.91899000  1
  H  H8  1  0.01610000  0.07540000  0.23570000  1
  H  H9  1  0.01610000  0.42460000  0.26430000  1
  H  H10  1  0.09970000  0.58350000  0.65900000  1
  H  H11  1  0.09970000  0.91650000  0.84100000  1
  H  H12  1  0.23190000  0.24800000  0.60390000  1
  H  H13  1  0.23190000  0.25200000  0.89610000  1
  H  H14  1  0.25500000  0.64660000  0.07470000  1
  H  H15  1  0.25500000  0.85340000  0.42530000  1
  H  H16  1  0.32950000  0.13380000  0.91060000  1
  H  H17  1  0.32950000  0.36620000  0.58940000  1
  H  H18  1  0.36700000  0.73250000  0.40850000  1
  H  H19  1  0.36700000  0.76750000  0.09150000  1
  H  H20  1  0.63300000  0.23250000  0.90850000  1
  H  H21  1  0.63300000  0.26750000  0.59150000  1
  H  H22  1  0.67050000  0.63380000  0.41060000  1
  H  H23  1  0.67050000  0.86620000  0.08940000  1
  H  H24  1  0.74500000  0.14660000  0.57470000  1
  H  H25  1  0.74500000  0.35340000  0.92530000  1
  H  H26  1  0.76810000  0.74800000  0.10390000  1
  H  H27  1  0.76810000  0.75200000  0.39610000  1
  H  H28  1  0.90030000  0.08350000  0.15900000  1
  H  H29  1  0.90030000  0.41650000  0.34100000  1
  H  H30  1  0.98390000  0.57540000  0.73570000  1
  H  H31  1  0.98390000  0.92460000  0.76430000  1
  C  C32  1  0.05390000  0.55290000  0.73010000  1
  C  C33  1  0.05390000  0.94710000  0.76990000  1
  C  C34  1  0.05690000  0.00340000  0.68570000  1
  C  C35  1  0.05690000  0.49660000  0.81430000  1
  C  C36  1  0.10280000  0.51210000  0.76330000  1
  C  C37  1  0.10280000  0.98790000  0.73670000  1
  C  C38  1  0.11590000  0.14500000  0.51890000  1
  C  C39  1  0.11590000  0.35500000  0.98110000  1
  C  C40  1  0.12090000  0.55770000  0.68600000  1
  C  C41  1  0.12090000  0.94230000  0.81400000  1
  C  C42  1  0.15330000  0.59220000  0.97360000  1
  C  C43  1  0.15330000  0.90780000  0.52640000  1
  C  C44  1  0.18350000  0.22080000  0.52640000  1
  C  C45  1  0.18350000  0.27920000  0.97360000  1
  C  C46  1  0.21880000  0.52100000  0.68700000  1
  C  C47  1  0.21880000  0.97900000  0.81300000  1
  C  C48  1  0.22910000  0.65850000  0.99820000  1
  C  C49  1  0.22910000  0.84150000  0.50180000  1
  C  C50  1  0.23470000  0.23720000  0.92900000  1
  C  C51  1  0.23470000  0.26280000  0.57100000  1
  C  C52  1  0.26900000  0.67710000  0.04930000  1
  C  C53  1  0.26900000  0.82290000  0.45070000  1
  C  C54  1  0.28680000  0.16200000  0.98890000  1
  C  C55  1  0.28680000  0.33800000  0.51110000  1
  C  C56  1  0.29210000  0.16950000  0.93740000  1
  C  C57  1  0.29210000  0.33050000  0.56260000  1
  C  C58  1  0.31030000  0.52020000  0.64910000  1
  C  C59  1  0.31030000  0.97980000  0.85090000  1
  C  C60  1  0.33320000  0.74660000  0.05890000  1
  C  C61  1  0.33320000  0.75340000  0.44110000  1
  C  C62  1  0.33910000  0.10280000  0.01500000  1
  C  C63  1  0.33910000  0.39720000  0.48500000  1
  C  C64  1  0.34120000  0.71940000  0.48440000  1
  C  C65  1  0.34120000  0.78060000  0.01560000  1
  C  C66  1  0.39910000  0.64330000  0.48860000  1
  C  C67  1  0.39910000  0.85670000  0.01140000  1
  C  C68  1  0.60090000  0.14330000  0.98860000  1
  C  C69  1  0.60090000  0.35670000  0.51140000  1
  C  C70  1  0.65880000  0.21940000  0.98440000  1
  C  C71  1  0.65880000  0.28060000  0.51560000  1
  C  C72  1  0.66090000  0.60280000  0.51500000  1
  C  C73  1  0.66090000  0.89720000  0.98500000  1
  C  C74  1  0.66680000  0.24660000  0.55890000  1
  C  C75  1  0.66680000  0.25340000  0.94110000  1
  C  C76  1  0.68970000  0.02020000  0.14910000  1
  C  C77  1  0.68970000  0.47980000  0.35090000  1
  C  C78  1  0.70790000  0.66950000  0.43740000  1
  C  C79  1  0.70790000  0.83050000  0.06260000  1
  C  C80  1  0.71320000  0.66200000  0.48890000  1
  C  C81  1  0.71320000  0.83800000  0.01110000  1
  C  C82  1  0.73100000  0.17710000  0.54930000  1
  C  C83  1  0.73100000  0.32290000  0.95070000  1
  C  C84  1  0.76530000  0.73720000  0.42900000  1
  C  C85  1  0.76530000  0.76280000  0.07100000  1
  C  C86  1  0.77090000  0.15850000  0.49820000  1
  C  C87  1  0.77090000  0.34150000  0.00180000  1
  C  C88  1  0.78120000  0.02100000  0.18700000  1
  C  C89  1  0.78120000  0.47900000  0.31300000  1
  C  C90  1  0.81650000  0.72080000  0.02640000  1
  C  C91  1  0.81650000  0.77920000  0.47360000  1
  C  C92  1  0.84670000  0.09220000  0.47360000  1
  C  C93  1  0.84670000  0.40780000  0.02640000  1
  C  C94  1  0.87910000  0.05770000  0.18600000  1
  C  C95  1  0.87910000  0.44230000  0.31400000  1
  C  C96  1  0.88410000  0.64500000  0.01890000  1
  C  C97  1  0.88410000  0.85500000  0.48110000  1
  C  C98  1  0.89720000  0.01210000  0.26330000  1
  C  C99  1  0.89720000  0.48790000  0.23670000  1
  C  C100  1  0.94310000  0.50340000  0.18570000  1
  C  C101  1  0.94310000  0.99660000  0.31430000  1
  C  C102  1  0.94610000  0.05290000  0.23010000  1
  C  C103  1  0.94610000  0.44710000  0.26990000  1
  S  S104  1  0.20991000  0.23841000  0.02757000  1
  S  S105  1  0.20991000  0.26159000  0.47243000  1
  S  S106  1  0.23017000  0.02213000  0.75852000  1
  S  S107  1  0.23017000  0.47787000  0.74148000  1
  S  S108  1  0.27527000  0.72498000  0.96174000  1
  S  S109  1  0.27527000  0.77502000  0.53826000  1
  S  S110  1  0.72473000  0.22498000  0.46174000  1
  S  S111  1  0.72473000  0.27502000  0.03826000  1
  S  S112  1  0.76983000  0.52213000  0.25852000  1
  S  S113  1  0.76983000  0.97787000  0.24148000  1
  S  S114  1  0.79009000  0.73841000  0.52757000  1
  S  S115  1  0.79009000  0.76159000  0.97243000  1
  O  O116  1  0.02840000  0.03390000  0.33350000  1
  O  O117  1  0.02840000  0.46610000  0.16650000  1
  O  O118  1  0.08880000  0.11398000  0.47208000  1
  O  O119  1  0.08880000  0.38602000  0.02792000  1
  O  O120  1  0.09300000  0.11920000  0.56010000  1
  O  O121  1  0.09300000  0.38080000  0.93990000  1
  O  O122  1  0.10480000  0.05190000  0.66280000  1
  O  O123  1  0.10480000  0.44810000  0.83720000  1
  O  O124  1  0.11220000  0.54855000  0.00245000  1
  O  O125  1  0.11220000  0.95145000  0.49755000  1
  O  O126  1  0.13040000  0.58330000  0.92520000  1
  O  O127  1  0.13040000  0.91670000  0.57480000  1
  O  O128  1  0.29950000  0.55920000  0.61270000  1
  O  O129  1  0.29950000  0.94080000  0.88730000  1
  O  O130  1  0.33490000  0.11440000  0.06530000  1
  O  O131  1  0.33490000  0.38560000  0.43470000  1
  O  O132  1  0.38890000  0.04240000  0.98800000  1
  O  O133  1  0.38890000  0.45760000  0.51200000  1
  O  O134  1  0.39890000  0.01740000  0.84570000  1
  O  O135  1  0.39890000  0.48260000  0.65430000  1
  O  O136  1  0.42010000  0.59420000  0.44550000  1
  O  O137  1  0.42010000  0.90580000  0.05450000  1
  O  O138  1  0.42030000  0.63490000  0.53490000  1
  O  O139  1  0.42030000  0.86510000  0.96510000  1
  O  O140  1  0.57970000  0.13490000  0.03490000  1
  O  O141  1  0.57970000  0.36510000  0.46510000  1
  O  O142  1  0.57990000  0.09420000  0.94550000  1
  O  O143  1  0.57990000  0.40580000  0.55450000  1
  O  O144  1  0.60110000  0.51740000  0.34570000  1
  O  O145  1  0.60110000  0.98260000  0.15430000  1
  O  O146  1  0.61110000  0.54240000  0.48800000  1
  O  O147  1  0.61110000  0.95760000  0.01200000  1
  O  O148  1  0.66510000  0.61440000  0.56530000  1
  O  O149  1  0.66510000  0.88560000  0.93470000  1
  O  O150  1  0.70050000  0.05920000  0.11270000  1
  O  O151  1  0.70050000  0.44080000  0.38730000  1
  O  O152  1  0.86960000  0.08330000  0.42520000  1
  O  O153  1  0.86960000  0.41670000  0.07480000  1
  O  O154  1  0.88780000  0.04855000  0.50245000  1
  O  O155  1  0.88780000  0.45145000  0.99755000  1
  O  O156  1  0.89520000  0.55190000  0.16280000  1
  O  O157  1  0.89520000  0.94810000  0.33720000  1
  O  O158  1  0.90700000  0.61920000  0.06010000  1
  O  O159  1  0.90700000  0.88080000  0.43990000  1
  O  O160  1  0.91120000  0.61398000  0.97208000  1
  O  O161  1  0.91120000  0.88602000  0.52792000  1
  O  O162  1  0.97160000  0.53390000  0.83350000  1
  O  O163  1  0.97160000  0.96610000  0.66650000  1
