# generated using pymatgen
data_ZnHC4O3
_symmetry_space_group_name_H-M   'P 1'
_cell_length_a   6.86420000
_cell_length_b   15.13830000
_cell_length_c   15.13830517
_cell_angle_alpha   117.75767003
_cell_angle_beta   98.69332318
_cell_angle_gamma   98.69320000
_symmetry_Int_Tables_number   1
_chemical_formula_structural   ZnHC4O3
_chemical_formula_sum   'Zn6 H6 C24 O18'
_cell_volume   1331.18533084
_cell_formula_units_Z   6
loop_
 _symmetry_equiv_pos_site_id
 _symmetry_equiv_pos_as_xyz
  1  'x, y, z'
loop_
 _atom_site_type_symbol
 _atom_site_label
 _atom_site_symmetry_multiplicity
 _atom_site_fract_x
 _atom_site_fract_y
 _atom_site_fract_z
 _atom_site_occupancy
  Zn  Zn0  1  0.28320000  0.67173000  0.26273000  1
  Zn  Zn1  1  0.61147000  0.59100000  0.32827000  1
  Zn  Zn2  1  0.97953000  0.26273000  0.59100000  1
  Zn  Zn3  1  0.02047000  0.73727000  0.40900000  1
  Zn  Zn4  1  0.38853000  0.40900000  0.67173000  1
  Zn  Zn5  1  0.71680000  0.32827000  0.73727000  1
  H  H6  1  0.16919000  0.47447000  0.02913000  1
  H  H7  1  0.69472000  0.55466000  0.52553000  1
  H  H8  1  0.85994000  0.02913000  0.55466000  1
  H  H9  1  0.14006000  0.97087000  0.44534000  1
  H  H10  1  0.30528000  0.44534000  0.47447000  1
  H  H11  1  0.83081000  0.52553000  0.97087000  1
  C  C12  1  0.62829000  0.10286000  0.56025000  1
  C  C13  1  0.58503000  0.91404000  0.47172000  1
  C  C14  1  0.75934000  0.43485000  0.60463000  1
  C  C15  1  0.71356000  0.01814000  0.53433000  1
  C  C16  1  0.67551000  0.83022000  0.43485000  1
  C  C17  1  0.30458000  0.48381000  0.01814000  1
  C  C18  1  0.82077000  0.53433000  0.51619000  1
  C  C19  1  0.15471000  0.39537000  0.83022000  1
  C  C20  1  0.88669000  0.47172000  0.55768000  1
  C  C21  1  0.47457000  0.54261000  0.10286000  1
  C  C22  1  0.32901000  0.44232000  0.91404000  1
  C  C23  1  0.93196000  0.56025000  0.45739000  1
  C  C24  1  0.06804000  0.43975000  0.54261000  1
  C  C25  1  0.67099000  0.55768000  0.08596000  1
  C  C26  1  0.52543000  0.45739000  0.89714000  1
  C  C27  1  0.11331000  0.52828000  0.44232000  1
  C  C28  1  0.84529000  0.60463000  0.16978000  1
  C  C29  1  0.17923000  0.46567000  0.48381000  1
  C  C30  1  0.69542000  0.51619000  0.98186000  1
  C  C31  1  0.32449000  0.16978000  0.56515000  1
  C  C32  1  0.28644000  0.98186000  0.46567000  1
  C  C33  1  0.24066000  0.56515000  0.39537000  1
  C  C34  1  0.41497000  0.08596000  0.52828000  1
  C  C35  1  0.37171000  0.89714000  0.43975000  1
  O  O36  1  0.39530000  0.53058000  0.37627000  1
  O  O37  1  0.74656000  0.20140000  0.63442000  1
  O  O38  1  0.98097000  0.37627000  0.84569000  1
  O  O39  1  0.82088000  0.38467000  0.64575000  1
  O  O40  1  0.56379000  0.73892000  0.38467000  1
  O  O41  1  0.45484000  0.56698000  0.20140000  1
  O  O42  1  0.86472000  0.84569000  0.46942000  1
  O  O43  1  0.17513000  0.35425000  0.73892000  1
  O  O44  1  0.88786000  0.63442000  0.43302000  1
  O  O45  1  0.11214000  0.36558000  0.56698000  1
  O  O46  1  0.82487000  0.64575000  0.26108000  1
  O  O47  1  0.13528000  0.15431000  0.53058000  1
  O  O48  1  0.54516000  0.43302000  0.79860000  1
  O  O49  1  0.43621000  0.26108000  0.61533000  1
  O  O50  1  0.17912000  0.61533000  0.35425000  1
  O  O51  1  0.01903000  0.62373000  0.15431000  1
  O  O52  1  0.25344000  0.79860000  0.36558000  1
  O  O53  1  0.60470000  0.46942000  0.62373000  1
