# generated using pymatgen
data_Cd2H24(C11O4)3
_symmetry_space_group_name_H-M   'P 1'
_cell_length_a   8.89620000
_cell_length_b   16.57820000
_cell_length_c   16.57820569
_cell_angle_alpha   85.87163960
_cell_angle_beta   74.43622937
_cell_angle_gamma   74.43620000
_symmetry_Int_Tables_number   1
_chemical_formula_structural   Cd2H24(C11O4)3
_chemical_formula_sum   'Cd4 H48 C66 O24'
_cell_volume   2268.98552470
_cell_formula_units_Z   2
loop_
 _symmetry_equiv_pos_site_id
 _symmetry_equiv_pos_as_xyz
  1  'x, y, z'
loop_
 _atom_site_type_symbol
 _atom_site_label
 _atom_site_symmetry_multiplicity
 _atom_site_fract_x
 _atom_site_fract_y
 _atom_site_fract_z
 _atom_site_occupancy
  Cd  Cd0  1  0.45474000  0.90205000  0.53595000  1
  Cd  Cd1  1  0.64321000  0.46405000  0.90205000  1
  Cd  Cd2  1  0.89274000  0.09795000  0.46405000  1
  Cd  Cd3  1  0.00931000  0.53595000  0.09795000  1
  H  H4  1  0.88070000  0.05530000  0.11550000  1
  H  H5  1  0.16970000  0.51860000  0.81620000  1
  H  H6  1  0.00380000  0.11550000  0.94470000  1
  H  H7  1  0.05150000  0.94470000  0.88450000  1
  H  H8  1  0.65600000  0.47930000  0.27790000  1
  H  H9  1  0.34920000  0.35510000  0.57650000  1
  H  H10  1  0.53920000  0.33190000  0.35370000  1
  H  H11  1  0.91910000  0.91250000  0.95230000  1
  H  H12  1  0.22480000  0.66810000  0.64630000  1
  H  H13  1  0.64650000  0.10150000  0.20290000  1
  H  H14  1  0.78390000  0.08750000  0.04770000  1
  H  H15  1  0.31170000  0.18380000  0.51860000  1
  H  H16  1  0.10710000  0.35370000  0.66810000  1
  H  H17  1  0.95090000  0.89850000  0.79710000  1
  H  H18  1  0.07430000  0.57650000  0.64490000  1
  H  H19  1  0.77550000  0.77860000  0.93480000  1
  H  H20  1  0.40050000  0.12880000  0.30560000  1
  H  H21  1  0.28080000  0.64490000  0.42350000  1
  H  H22  1  0.50450000  0.48140000  0.18380000  1
  H  H23  1  0.53890000  0.90570000  0.12290000  1
  H  H24  1  0.29570000  0.42350000  0.35510000  1
  H  H25  1  0.47070000  0.69440000  0.12880000  1
  H  H26  1  0.06610000  0.27790000  0.52070000  1
  H  H27  1  0.48890000  0.22140000  0.06520000  1
  H  H28  1  0.83490000  0.87120000  0.69440000  1
  H  H29  1  0.28970000  0.93480000  0.22140000  1
  H  H30  1  0.01410000  0.81620000  0.48140000  1
  H  H31  1  0.91000000  0.42180000  0.55920000  1
  H  H32  1  0.55540000  0.87710000  0.90570000  1
  H  H33  1  0.12890000  0.64630000  0.33190000  1
  H  H34  1  0.56750000  0.09430000  0.87710000  1
  H  H35  1  0.33820000  0.12290000  0.09430000  1
  H  H36  1  0.25200000  0.79710000  0.10150000  1
  H  H37  1  0.84370000  0.37230000  0.50510000  1
  H  H38  1  0.86470000  0.72210000  0.47930000  1
  H  H39  1  0.89100000  0.57820000  0.44080000  1
  H  H40  1  0.65120000  0.50510000  0.62770000  1
  H  H41  1  0.44590000  0.06520000  0.77860000  1
  H  H42  1  0.12860000  0.95230000  0.08750000  1
  H  H43  1  0.72110000  0.62770000  0.49490000  1
  H  H44  1  0.29390000  0.30560000  0.87120000  1
  H  H45  1  0.78400000  0.49490000  0.37230000  1
  H  H46  1  0.41320000  0.52070000  0.72210000  1
  H  H47  1  0.06400000  0.88450000  0.05530000  1
  H  H48  1  0.53080000  0.55920000  0.57820000  1
  H  H49  1  0.66820000  0.44080000  0.42180000  1
  H  H50  1  0.16840000  0.04770000  0.91250000  1
  H  H51  1  0.15060000  0.20290000  0.89850000  1
  C  C52  1  0.00000000  0.00000000  0.00000000  1
  C  C53  1  0.20490000  0.48640000  0.76780000  1
  C  C54  1  0.31160000  0.38860000  0.62400000  1
  C  C55  1  0.84990000  0.03840000  0.06880000  1
  C  C56  1  0.45380000  0.24720000  0.43700000  1
  C  C57  1  0.95710000  0.96160000  0.93120000  1
  C  C58  1  0.10920000  0.43700000  0.75280000  1
  C  C59  1  0.16780000  0.38740000  0.67900000  1
  C  C60  1  0.48050000  0.56050000  0.36130000  1
  C  C61  1  0.55010000  0.51200000  0.28840000  1
  C  C62  1  0.78030000  0.66000000  0.05440000  1
  C  C63  1  0.44480000  0.32100000  0.38740000  1
  C  C64  1  0.24620000  0.80810000  0.55910000  1
  C  C65  1  0.30870000  0.23220000  0.48640000  1
  C  C66  1  0.57650000  0.06750000  0.20790000  1
  C  C67  1  0.61760000  0.99860000  0.15460000  1
  C  C68  1  0.15320000  0.67900000  0.61260000  1
  C  C69  1  0.94570000  0.44090000  0.80810000  1
  C  C70  1  0.13800000  0.75280000  0.56300000  1
  C  C71  1  0.32420000  0.61140000  0.37600000  1
  C  C72  1  0.42790000  0.08430000  0.26870000  1
  C  C73  1  0.45910000  0.51360000  0.23220000  1
  C  C74  1  0.29980000  0.37600000  0.38860000  1
  C  C75  1  0.64130000  0.72590000  0.03590000  1
  C  C76  1  0.06440000  0.62400000  0.61140000  1
  C  C77  1  0.51070000  0.95040000  0.15960000  1
  C  C78  1  0.16150000  0.28840000  0.48800000  1
  C  C79  1  0.85190000  0.93250000  0.79210000  1
  C  C80  1  0.67110000  0.78160000  0.96720000  1
  C  C81  1  0.77080000  0.00140000  0.84540000  1
  C  C82  1  0.15820000  0.36130000  0.43950000  1
  C  C83  1  0.32280000  0.03590000  0.27410000  1
  C  C84  1  0.36170000  0.96720000  0.21840000  1
  C  C85  1  0.48780000  0.73130000  0.08430000  1
  C  C86  1  0.23420000  0.61260000  0.32100000  1
  C  C87  1  0.29900000  0.56300000  0.24720000  1
  C  C88  1  0.02730000  0.76780000  0.51360000  1
  C  C89  1  0.95900000  0.63870000  0.56050000  1
  C  C90  1  0.78090000  0.91570000  0.73130000  1
  C  C91  1  0.16530000  0.05440000  0.34000000  1
  C  C92  1  0.53890000  0.84040000  0.95040000  1
  C  C93  1  0.62070000  0.04960000  0.84040000  1
  C  C94  1  0.41990000  0.21840000  0.03280000  1
  C  C95  1  0.93790000  0.71160000  0.51200000  1
  C  C96  1  0.49470000  0.34000000  0.94560000  1
  C  C97  1  0.35600000  0.79210000  0.06750000  1
  C  C98  1  0.88150000  0.42170000  0.50670000  1
  C  C99  1  0.19470000  0.55910000  0.19190000  1
  C  C100  1  0.38380000  0.84540000  0.99860000  1
  C  C101  1  0.32970000  0.15960000  0.04960000  1
  C  C102  1  0.40310000  0.27410000  0.96410000  1
  C  C103  1  0.63280000  0.96410000  0.72590000  1
  C  C104  1  0.54730000  0.03280000  0.78160000  1
  C  C105  1  0.80990000  0.57830000  0.49330000  1
  C  C106  1  0.75000000  0.50000000  0.50000000  1
  C  C107  1  0.22780000  0.15460000  0.00140000  1
  C  C108  1  0.55970000  0.94560000  0.66000000  1
  C  C109  1  0.30340000  0.26870000  0.91570000  1
  C  C110  1  0.61180000  0.50670000  0.57830000  1
  C  C111  1  0.11170000  0.93120000  0.03840000  1
  C  C112  1  0.21560000  0.20790000  0.93250000  1
  C  C113  1  0.69680000  0.49330000  0.42170000  1
  C  C114  1  0.35050000  0.48800000  0.71160000  1
  C  C115  1  0.61340000  0.19190000  0.44090000  1
  C  C116  1  0.08130000  0.06880000  0.96160000  1
  C  C117  1  0.40230000  0.43950000  0.63870000  1
  O  O118  1  0.56034000  0.56186000  0.42066000  1
  O  O119  1  0.91920000  0.67180000  0.03520000  1
  O  O120  1  0.36870000  0.78330000  0.58390000  1
  O  O121  1  0.76065000  0.97625000  0.09545000  1
  O  O122  1  0.75100000  0.59350000  0.09070000  1
  O  O123  1  0.90920000  0.47230000  0.88090000  1
  O  O124  1  0.20990000  0.88090000  0.52770000  1
  O  O125  1  0.83235000  0.02375000  0.90455000  1
  O  O126  1  0.84800000  0.41610000  0.78330000  1
  O  O127  1  0.62620000  0.32820000  0.96480000  1
  O  O128  1  0.15830000  0.09070000  0.40650000  1
  O  O129  1  0.01900000  0.42066000  0.43814000  1
  O  O130  1  0.87780000  0.57934000  0.56186000  1
  O  O131  1  0.26240000  0.52770000  0.11910000  1
  O  O132  1  0.04560000  0.03520000  0.32820000  1
  O  O133  1  0.43520000  0.40650000  0.90930000  1
  O  O134  1  0.04740000  0.58390000  0.21670000  1
  O  O135  1  0.65550000  0.90930000  0.59350000  1
  O  O136  1  0.26310000  0.90455000  0.97625000  1
  O  O137  1  0.14390000  0.09545000  0.02375000  1
  O  O138  1  0.73590000  0.21670000  0.41610000  1
  O  O139  1  0.54286000  0.43814000  0.57934000  1
  O  O140  1  0.61850000  0.11910000  0.47230000  1
  O  O141  1  0.40900000  0.96480000  0.67180000  1
