# generated using pymatgen
data_Co2H7C16O9
_symmetry_space_group_name_H-M   'P 1'
_cell_length_a   10.85670000
_cell_length_b   13.54970000
_cell_length_c   14.62630000
_cell_angle_alpha   109.78400000
_cell_angle_beta   90.00000000
_cell_angle_gamma   90.00000000
_symmetry_Int_Tables_number   1
_chemical_formula_structural   Co2H7C16O9
_chemical_formula_sum   'Co8 H28 C64 O36'
_cell_volume   2024.60464771
_cell_formula_units_Z   4
loop_
 _symmetry_equiv_pos_site_id
 _symmetry_equiv_pos_as_xyz
  1  'x, y, z'
loop_
 _atom_site_type_symbol
 _atom_site_label
 _atom_site_symmetry_multiplicity
 _atom_site_fract_x
 _atom_site_fract_y
 _atom_site_fract_z
 _atom_site_occupancy
  Co  Co0  1  0.41509000  0.59640000  0.04287000  1
  Co  Co1  1  0.08491000  0.59640000  0.54287000  1
  Co  Co2  1  0.47856000  0.50478000  0.79475000  1
  Co  Co3  1  0.02144000  0.50478000  0.29475000  1
  Co  Co4  1  0.97856000  0.49522000  0.70525000  1
  Co  Co5  1  0.52144000  0.49522000  0.20525000  1
  Co  Co6  1  0.91509000  0.40360000  0.45713000  1
  Co  Co7  1  0.58491000  0.40360000  0.95713000  1
  H  H8  1  0.93850000  0.00000000  0.29130000  1
  H  H9  1  0.56150000  1.00000000  0.79130000  1
  H  H10  1  0.43850000  0.00000000  0.20870000  1
  H  H11  1  0.06150000  0.00000000  0.70870000  1
  H  H12  1  0.81060000  0.95330000  0.54510000  1
  H  H13  1  0.68940000  0.95330000  0.04510000  1
  H  H14  1  0.35200000  0.90730000  0.00710000  1
  H  H15  1  0.14800000  0.90730000  0.50710000  1
  H  H16  1  0.86140000  0.86450000  0.64300000  1
  H  H17  1  0.63860000  0.86450000  0.14300000  1
  H  H18  1  0.96340000  0.86000000  0.34460000  1
  H  H19  1  0.53660000  0.86000000  0.84460000  1
  H  H20  1  0.33940000  0.84840000  0.21000000  1
  H  H21  1  0.16060000  0.84840000  0.71000000  1
  H  H22  1  0.89770000  0.58520000  0.44180000  1
  H  H23  1  0.60230000  0.58520000  0.94180000  1
  H  H24  1  0.39770000  0.41480000  0.05820000  1
  H  H25  1  0.10230000  0.41480000  0.55820000  1
  H  H26  1  0.83940000  0.15160000  0.29000000  1
  H  H27  1  0.66060000  0.15160000  0.79000000  1
  H  H28  1  0.46340000  0.14000000  0.15540000  1
  H  H29  1  0.03660000  0.14000000  0.65540000  1
  H  H30  1  0.36140000  0.13550000  0.85700000  1
  H  H31  1  0.13860000  0.13550000  0.35700000  1
  H  H32  1  0.85200000  0.09270000  0.49290000  1
  H  H33  1  0.64800000  0.09270000  0.99290000  1
  H  H34  1  0.31060000  0.04670000  0.95490000  1
  H  H35  1  0.18940000  0.04670000  0.45490000  1
  C  C36  1  0.28964000  0.97901000  0.91574000  1
  C  C37  1  0.21036000  0.97901000  0.41574000  1
  C  C38  1  0.26643000  0.96249000  0.32567000  1
  C  C39  1  0.23357000  0.96249000  0.82567000  1
  C  C40  1  0.78536000  0.94835000  0.21126000  1
  C  C41  1  0.71464000  0.94835000  0.71126000  1
  C  C42  1  0.88263000  0.94475000  0.27192000  1
  C  C43  1  0.61737000  0.94475000  0.77192000  1
  C  C44  1  0.31426000  0.89514000  0.94722000  1
  C  C45  1  0.18574000  0.89514000  0.44722000  1
  C  C46  1  0.79584000  0.86368000  0.68365000  1
  C  C47  1  0.70416000  0.86368000  0.18365000  1
  C  C48  1  0.30092000  0.86047000  0.26957000  1
  C  C49  1  0.19908000  0.86047000  0.76957000  1
  C  C50  1  0.89770000  0.86040000  0.30386000  1
  C  C51  1  0.60230000  0.86040000  0.80386000  1
  C  C52  1  0.28314000  0.79318000  0.89036000  1
  C  C53  1  0.21686000  0.79318000  0.39036000  1
  C  C54  1  0.78226000  0.77788000  0.71477000  1
  C  C55  1  0.71774000  0.77788000  0.21477000  1
  C  C56  1  0.27824000  0.77705000  0.30199000  1
  C  C57  1  0.22176000  0.77705000  0.80199000  1
  C  C58  1  0.81568000  0.77542000  0.27594000  1
  C  C59  1  0.68432000  0.77542000  0.77594000  1
  C  C60  1  0.32512000  0.70095000  0.91692000  1
  C  C61  1  0.17488000  0.70095000  0.41692000  1
  C  C62  1  0.87303000  0.68967000  0.67889000  1
  C  C63  1  0.62697000  0.68967000  0.17889000  1
  C  C64  1  0.84098000  0.68434000  0.31206000  1
  C  C65  1  0.65902000  0.68434000  0.81206000  1
  C  C66  1  0.32407000  0.66919000  0.24038000  1
  C  C67  1  0.17593000  0.66919000  0.74038000  1
  C  C68  1  0.82407000  0.33081000  0.25962000  1
  C  C69  1  0.67593000  0.33081000  0.75962000  1
  C  C70  1  0.34098000  0.31566000  0.18794000  1
  C  C71  1  0.15902000  0.31566000  0.68794000  1
  C  C72  1  0.37303000  0.31033000  0.82111000  1
  C  C73  1  0.12697000  0.31033000  0.32111000  1
  C  C74  1  0.82512000  0.29905000  0.58308000  1
  C  C75  1  0.67488000  0.29905000  0.08308000  1
  C  C76  1  0.31568000  0.22458000  0.22406000  1
  C  C77  1  0.18432000  0.22458000  0.72406000  1
  C  C78  1  0.77824000  0.22295000  0.19801000  1
  C  C79  1  0.72176000  0.22295000  0.69801000  1
  C  C80  1  0.28226000  0.22212000  0.78523000  1
  C  C81  1  0.21774000  0.22212000  0.28523000  1
  C  C82  1  0.78314000  0.20682000  0.60964000  1
  C  C83  1  0.71686000  0.20682000  0.10964000  1
  C  C84  1  0.39770000  0.13960000  0.19614000  1
  C  C85  1  0.10230000  0.13960000  0.69614000  1
  C  C86  1  0.80092000  0.13953000  0.23043000  1
  C  C87  1  0.69908000  0.13953000  0.73043000  1
  C  C88  1  0.29584000  0.13632000  0.81635000  1
  C  C89  1  0.20416000  0.13632000  0.31635000  1
  C  C90  1  0.81426000  0.10486000  0.55278000  1
  C  C91  1  0.68574000  0.10486000  0.05278000  1
  C  C92  1  0.38263000  0.05525000  0.22808000  1
  C  C93  1  0.11737000  0.05525000  0.72808000  1
  C  C94  1  0.28536000  0.05165000  0.28874000  1
  C  C95  1  0.21464000  0.05165000  0.78874000  1
  C  C96  1  0.76643000  0.03751000  0.17433000  1
  C  C97  1  0.73357000  0.03751000  0.67433000  1
  C  C98  1  0.78964000  0.02099000  0.58426000  1
  C  C99  1  0.71036000  0.02099000  0.08426000  1
  O  O100  1  0.34601000  0.71499000  0.00453000  1
  O  O101  1  0.15399000  0.71499000  0.50453000  1
  O  O102  1  0.96206000  0.70320000  0.63054000  1
  O  O103  1  0.53794000  0.70320000  0.13054000  1
  O  O104  1  0.78750000  0.68260000  0.38759000  1
  O  O105  1  0.71250000  0.68260000  0.88759000  1
  O  O106  1  0.28409000  0.63307000  0.15489000  1
  O  O107  1  0.21591000  0.63307000  0.65489000  1
  O  O108  1  0.40562000  0.62777000  0.27721000  1
  O  O109  1  0.09438000  0.62777000  0.77721000  1
  O  O110  1  0.92022000  0.62006000  0.26488000  1
  O  O111  1  0.57978000  0.62006000  0.76488000  1
  O  O112  1  0.33878000  0.61649000  0.84814000  1
  O  O113  1  0.16122000  0.61649000  0.34814000  1
  O  O114  1  0.85270000  0.60880000  0.70067000  1
  O  O115  1  0.64730000  0.60880000  0.20067000  1
  O  O116  1  0.95638000  0.53840000  0.43331000  1
  O  O117  1  0.54362000  0.53840000  0.93331000  1
  O  O118  1  0.45638000  0.46160000  0.06669000  1
  O  O119  1  0.04362000  0.46160000  0.56669000  1
  O  O120  1  0.35270000  0.39120000  0.79933000  1
  O  O121  1  0.14730000  0.39120000  0.29933000  1
  O  O122  1  0.83878000  0.38351000  0.65186000  1
  O  O123  1  0.66122000  0.38351000  0.15186000  1
  O  O124  1  0.42022000  0.37994000  0.23512000  1
  O  O125  1  0.07978000  0.37994000  0.73512000  1
  O  O126  1  0.90562000  0.37223000  0.22279000  1
  O  O127  1  0.59438000  0.37223000  0.72279000  1
  O  O128  1  0.78409000  0.36693000  0.34511000  1
  O  O129  1  0.71591000  0.36693000  0.84511000  1
  O  O130  1  0.28750000  0.31740000  0.11241000  1
  O  O131  1  0.21250000  0.31740000  0.61241000  1
  O  O132  1  0.46206000  0.29680000  0.86946000  1
  O  O133  1  0.03794000  0.29680000  0.36946000  1
  O  O134  1  0.84601000  0.28501000  0.49547000  1
  O  O135  1  0.65399000  0.28501000  0.99547000  1
