# generated using pymatgen
data_NdC12(OF)6
_symmetry_space_group_name_H-M   'P 1'
_cell_length_a   7.86600000
_cell_length_b   10.20500000
_cell_length_c   21.21500000
_cell_angle_alpha   90.00000000
_cell_angle_beta   90.00000000
_cell_angle_gamma   98.64200000
_symmetry_Int_Tables_number   1
_chemical_formula_structural   NdC12(OF)6
_chemical_formula_sum   'Nd4 C48 O24 F24'
_cell_volume   1683.64692141
_cell_formula_units_Z   4
loop_
 _symmetry_equiv_pos_site_id
 _symmetry_equiv_pos_as_xyz
  1  'x, y, z'
loop_
 _atom_site_type_symbol
 _atom_site_label
 _atom_site_symmetry_multiplicity
 _atom_site_fract_x
 _atom_site_fract_y
 _atom_site_fract_z
 _atom_site_occupancy
  Nd  Nd0  1  0.49580000  0.49075000  0.71527000  1
  Nd  Nd1  1  0.99580000  0.49075000  0.78473000  1
  Nd  Nd2  1  0.00420000  0.50925000  0.21527000  1
  Nd  Nd3  1  0.50420000  0.50925000  0.28473000  1
  C  C4  1  0.73330000  0.03060000  0.69500000  1
  C  C5  1  0.23330000  0.03060000  0.80500000  1
  C  C6  1  0.24860000  0.05200000  0.18220000  1
  C  C7  1  0.74860000  0.05200000  0.31780000  1
  C  C8  1  0.20700000  0.07070000  0.69580000  1
  C  C9  1  0.70700000  0.07070000  0.80420000  1
  C  C10  1  0.72060000  0.08980000  0.20830000  1
  C  C11  1  0.22060000  0.08980000  0.29170000  1
  C  C12  1  0.69510000  0.11500000  0.74330000  1
  C  C13  1  0.19510000  0.11500000  0.75670000  1
  C  C14  1  0.21380000  0.13520000  0.22950000  1
  C  C15  1  0.71380000  0.13520000  0.27050000  1
  C  C16  1  0.64300000  0.24850000  0.72800000  1
  C  C17  1  0.14300000  0.24850000  0.77200000  1
  C  C18  1  0.15980000  0.26850000  0.21630000  1
  C  C19  1  0.65980000  0.26850000  0.28370000  1
  C  C20  1  0.50720000  0.38350000  0.03020000  1
  C  C21  1  0.00720000  0.38350000  0.46980000  1
  C  C22  1  0.94380000  0.38490000  0.52990000  1
  C  C23  1  0.44380000  0.38490000  0.97010000  1
  C  C24  1  0.56980000  0.49910000  0.06080000  1
  C  C25  1  0.06980000  0.49910000  0.43920000  1
  C  C26  1  0.63490000  0.50000000  0.12690000  1
  C  C27  1  0.13490000  0.50000000  0.37310000  1
  C  C28  1  0.86510000  0.50000000  0.62690000  1
  C  C29  1  0.36510000  0.50000000  0.87310000  1
  C  C30  1  0.93020000  0.50090000  0.56080000  1
  C  C31  1  0.43020000  0.50090000  0.93920000  1
  C  C32  1  0.55620000  0.61510000  0.02990000  1
  C  C33  1  0.05620000  0.61510000  0.47010000  1
  C  C34  1  0.99280000  0.61650000  0.53020000  1
  C  C35  1  0.49280000  0.61650000  0.96980000  1
  C  C36  1  0.34020000  0.73150000  0.71630000  1
  C  C37  1  0.84020000  0.73150000  0.78370000  1
  C  C38  1  0.85700000  0.75150000  0.22800000  1
  C  C39  1  0.35700000  0.75150000  0.27200000  1
  C  C40  1  0.28620000  0.86480000  0.72950000  1
  C  C41  1  0.78620000  0.86480000  0.77050000  1
  C  C42  1  0.80490000  0.88500000  0.24330000  1
  C  C43  1  0.30490000  0.88500000  0.25670000  1
  C  C44  1  0.77940000  0.91020000  0.70830000  1
  C  C45  1  0.27940000  0.91020000  0.79170000  1
  C  C46  1  0.29300000  0.92930000  0.19580000  1
  C  C47  1  0.79300000  0.92930000  0.30420000  1
  C  C48  1  0.25140000  0.94800000  0.68220000  1
  C  C49  1  0.75140000  0.94800000  0.81780000  1
  C  C50  1  0.76670000  0.96940000  0.19500000  1
  C  C51  1  0.26670000  0.96940000  0.30500000  1
  O  O52  1  0.53060000  0.25470000  0.68970000  1
  O  O53  1  0.03060000  0.25470000  0.81030000  1
  O  O54  1  0.03390000  0.27550000  0.18420000  1
  O  O55  1  0.53390000  0.27550000  0.31580000  1
  O  O56  1  0.21700000  0.34940000  0.74230000  1
  O  O57  1  0.71700000  0.34940000  0.75770000  1
  O  O58  1  0.24660000  0.37030000  0.24050000  1
  O  O59  1  0.74660000  0.37030000  0.25950000  1
  O  O60  1  0.97030000  0.48720000  0.66960000  1
  O  O61  1  0.47030000  0.48720000  0.83040000  1
  O  O62  1  0.79140000  0.48840000  0.13330000  1
  O  O63  1  0.29140000  0.48840000  0.36670000  1
  O  O64  1  0.70860000  0.51160000  0.63330000  1
  O  O65  1  0.20860000  0.51160000  0.86670000  1
  O  O66  1  0.52970000  0.51280000  0.16960000  1
  O  O67  1  0.02970000  0.51280000  0.33040000  1
  O  O68  1  0.25340000  0.62970000  0.74050000  1
  O  O69  1  0.75340000  0.62970000  0.75950000  1
  O  O70  1  0.28300000  0.65060000  0.24230000  1
  O  O71  1  0.78300000  0.65060000  0.25770000  1
  O  O72  1  0.46610000  0.72450000  0.68420000  1
  O  O73  1  0.96610000  0.72450000  0.81580000  1
  O  O74  1  0.96940000  0.74530000  0.18970000  1
  O  O75  1  0.46940000  0.74530000  0.31030000  1
  F  F76  1  0.72750000  0.06880000  0.63520000  1
  F  F77  1  0.22750000  0.06880000  0.86480000  1
  F  F78  1  0.24260000  0.08920000  0.12190000  1
  F  F79  1  0.74260000  0.08920000  0.37810000  1
  F  F80  1  0.16410000  0.14610000  0.64790000  1
  F  F81  1  0.66410000  0.14610000  0.85210000  1
  F  F82  1  0.67640000  0.16460000  0.16110000  1
  F  F83  1  0.17640000  0.16460000  0.33890000  1
  F  F84  1  0.51640000  0.26780000  0.05870000  1
  F  F85  1  0.01640000  0.26780000  0.44130000  1
  F  F86  1  0.88730000  0.26910000  0.55900000  1
  F  F87  1  0.38730000  0.26910000  0.94100000  1
  F  F88  1  0.61270000  0.73090000  0.05900000  1
  F  F89  1  0.11270000  0.73090000  0.44100000  1
  F  F90  1  0.98360000  0.73220000  0.55870000  1
  F  F91  1  0.48360000  0.73220000  0.94130000  1
  F  F92  1  0.82360000  0.83540000  0.66110000  1
  F  F93  1  0.32360000  0.83540000  0.83890000  1
  F  F94  1  0.33590000  0.85390000  0.14790000  1
  F  F95  1  0.83590000  0.85390000  0.35210000  1
  F  F96  1  0.25740000  0.91080000  0.62190000  1
  F  F97  1  0.75740000  0.91080000  0.87810000  1
  F  F98  1  0.77250000  0.93120000  0.13520000  1
  F  F99  1  0.27250000  0.93120000  0.36480000  1
