# generated using pymatgen
data_ZnH12C18N2O5
_symmetry_space_group_name_H-M   'P 1'
_cell_length_a   11.47200000
_cell_length_b   12.00250000
_cell_length_c   19.94000000
_cell_angle_alpha   90.00000000
_cell_angle_beta   90.00000000
_cell_angle_gamma   101.47500000
_symmetry_Int_Tables_number   1
_chemical_formula_structural   ZnH12C18N2O5
_chemical_formula_sum   'Zn4 H48 C72 N8 O20'
_cell_volume   2690.71205280
_cell_formula_units_Z   4
loop_
 _symmetry_equiv_pos_site_id
 _symmetry_equiv_pos_as_xyz
  1  'x, y, z'
loop_
 _atom_site_type_symbol
 _atom_site_label
 _atom_site_symmetry_multiplicity
 _atom_site_fract_x
 _atom_site_fract_y
 _atom_site_fract_z
 _atom_site_occupancy
  Zn  Zn0  1  0.50487000  0.91851000  0.91839000  1
  Zn  Zn1  1  0.50487000  0.41851000  0.58161000  1
  Zn  Zn2  1  0.49513000  0.58149000  0.41839000  1
  Zn  Zn3  1  0.49513000  0.08149000  0.08161000  1
  H  H4  1  0.94870000  0.08430000  0.89730000  1
  H  H5  1  0.94870000  0.58430000  0.60270000  1
  H  H6  1  0.93850000  0.74860000  0.43830000  1
  H  H7  1  0.93850000  0.24860000  0.06170000  1
  H  H8  1  0.87930000  0.75430000  0.94220000  1
  H  H9  1  0.87930000  0.25430000  0.55780000  1
  H  H10  1  0.87120000  0.41700000  0.39280000  1
  H  H11  1  0.87120000  0.91700000  0.10720000  1
  H  H12  1  0.75030000  0.08030000  0.89960000  1
  H  H13  1  0.75030000  0.58030000  0.60040000  1
  H  H14  1  0.73920000  0.74070000  0.44020000  1
  H  H15  1  0.73920000  0.24070000  0.05980000  1
  H  H16  1  0.68310000  0.76180000  0.94810000  1
  H  H17  1  0.68310000  0.26180000  0.55190000  1
  H  H18  1  0.67430000  0.42070000  0.39360000  1
  H  H19  1  0.67430000  0.92070000  0.10640000  1
  H  H20  1  0.53980000  0.40210000  0.97230000  1
  H  H21  1  0.53980000  0.90210000  0.52770000  1
  H  H22  1  0.53310000  0.51300000  0.78300000  1
  H  H23  1  0.53310000  0.01300000  0.71700000  1
  H  H24  1  0.52750000  0.18240000  0.81930000  1
  H  H25  1  0.52750000  0.68240000  0.68070000  1
  H  H26  1  0.52720000  0.62320000  0.87740000  1
  H  H27  1  0.52720000  0.12320000  0.62260000  1
  H  H28  1  0.47280000  0.87680000  0.37740000  1
  H  H29  1  0.47280000  0.37680000  0.12260000  1
  H  H30  1  0.47250000  0.31760000  0.31930000  1
  H  H31  1  0.47250000  0.81760000  0.18070000  1
  H  H32  1  0.46690000  0.98700000  0.28300000  1
  H  H33  1  0.46690000  0.48700000  0.21700000  1
  H  H34  1  0.46020000  0.09790000  0.47230000  1
  H  H35  1  0.46020000  0.59790000  0.02770000  1
  H  H36  1  0.32570000  0.07930000  0.89360000  1
  H  H37  1  0.32570000  0.57930000  0.60640000  1
  H  H38  1  0.31690000  0.73820000  0.44810000  1
  H  H39  1  0.31690000  0.23820000  0.05190000  1
  H  H40  1  0.26080000  0.75930000  0.94020000  1
  H  H41  1  0.26080000  0.25930000  0.55980000  1
  H  H42  1  0.24970000  0.41970000  0.39960000  1
  H  H43  1  0.24970000  0.91970000  0.10040000  1
  H  H44  1  0.12880000  0.08300000  0.89280000  1
  H  H45  1  0.12880000  0.58300000  0.60720000  1
  H  H46  1  0.12070000  0.74570000  0.44220000  1
  H  H47  1  0.12070000  0.24570000  0.05780000  1
  H  H48  1  0.06150000  0.75140000  0.93830000  1
  H  H49  1  0.06150000  0.25140000  0.56170000  1
  H  H50  1  0.05130000  0.41570000  0.39730000  1
  H  H51  1  0.05130000  0.91570000  0.10270000  1
  C  C52  1  0.94020000  0.91840000  0.91881000  1
  C  C53  1  0.94020000  0.41840000  0.58119000  1
  C  C54  1  0.93140000  0.58200000  0.41679000  1
  C  C55  1  0.93140000  0.08200000  0.08321000  1
  C  C56  1  0.89640000  0.01650000  0.90686000  1
  C  C57  1  0.89640000  0.51650000  0.59314000  1
  C  C58  1  0.88670000  0.68000000  0.42989000  1
  C  C59  1  0.88670000  0.18000000  0.07011000  1
  C  C60  1  0.85580000  0.82270000  0.93387000  1
  C  C61  1  0.85580000  0.32270000  0.56613000  1
  C  C62  1  0.84690000  0.48450000  0.40275000  1
  C  C63  1  0.84690000  0.98450000  0.09725000  1
  C  C64  1  0.77670000  0.01360000  0.90914000  1
  C  C65  1  0.77670000  0.51360000  0.59086000  1
  C  C66  1  0.76630000  0.67450000  0.43031000  1
  C  C67  1  0.76630000  0.17450000  0.06969000  1
  C  C68  1  0.73720000  0.82760000  0.93672000  1
  C  C69  1  0.73720000  0.32760000  0.56328000  1
  C  C70  1  0.72820000  0.48740000  0.40345000  1
  C  C71  1  0.72820000  0.98740000  0.09655000  1
  C  C72  1  0.53820000  0.47520000  0.88109000  1
  C  C73  1  0.53820000  0.97520000  0.61891000  1
  C  C74  1  0.53780000  0.38760000  0.92644000  1
  C  C75  1  0.53780000  0.88760000  0.57356000  1
  C  C76  1  0.53450000  0.27852000  0.90303000  1
  C  C77  1  0.53450000  0.77852000  0.59697000  1
  C  C78  1  0.53310000  0.45370000  0.81305000  1
  C  C79  1  0.53310000  0.95370000  0.68695000  1
  C  C80  1  0.53195000  0.18380000  0.95223000  1
  C  C81  1  0.53195000  0.68380000  0.54777000  1
  C  C82  1  0.52960000  0.25595000  0.83465000  1
  C  C83  1  0.52960000  0.75595000  0.66535000  1
  C  C84  1  0.52800000  0.34390000  0.78910000  1
  C  C85  1  0.52800000  0.84390000  0.71090000  1
  C  C86  1  0.52090000  0.82180000  0.78525000  1
  C  C87  1  0.52090000  0.32180000  0.71475000  1
  C  C88  1  0.47910000  0.67820000  0.28525000  1
  C  C89  1  0.47910000  0.17820000  0.21475000  1
  C  C90  1  0.47200000  0.15610000  0.28910000  1
  C  C91  1  0.47200000  0.65610000  0.21090000  1
  C  C92  1  0.47040000  0.24405000  0.33465000  1
  C  C93  1  0.47040000  0.74405000  0.16535000  1
  C  C94  1  0.46805000  0.31620000  0.45223000  1
  C  C95  1  0.46805000  0.81620000  0.04777000  1
  C  C96  1  0.46690000  0.04630000  0.31305000  1
  C  C97  1  0.46690000  0.54630000  0.18695000  1
  C  C98  1  0.46550000  0.22148000  0.40303000  1
  C  C99  1  0.46550000  0.72148000  0.09697000  1
  C  C100  1  0.46220000  0.11240000  0.42644000  1
  C  C101  1  0.46220000  0.61240000  0.07356000  1
  C  C102  1  0.46180000  0.02480000  0.38109000  1
  C  C103  1  0.46180000  0.52480000  0.11891000  1
  C  C104  1  0.27180000  0.01260000  0.90345000  1
  C  C105  1  0.27180000  0.51260000  0.59655000  1
  C  C106  1  0.26280000  0.67240000  0.43672000  1
  C  C107  1  0.26280000  0.17240000  0.06328000  1
  C  C108  1  0.23370000  0.82550000  0.93031000  1
  C  C109  1  0.23370000  0.32550000  0.56969000  1
  C  C110  1  0.22330000  0.48640000  0.40914000  1
  C  C111  1  0.22330000  0.98640000  0.09086000  1
  C  C112  1  0.15310000  0.01550000  0.90275000  1
  C  C113  1  0.15310000  0.51550000  0.59725000  1
  C  C114  1  0.14420000  0.67730000  0.43387000  1
  C  C115  1  0.14420000  0.17730000  0.06613000  1
  C  C116  1  0.11330000  0.82000000  0.92989000  1
  C  C117  1  0.11330000  0.32000000  0.57011000  1
  C  C118  1  0.10360000  0.48350000  0.40686000  1
  C  C119  1  0.10360000  0.98350000  0.09314000  1
  C  C120  1  0.06860000  0.91800000  0.91679000  1
  C  C121  1  0.06860000  0.41800000  0.58321000  1
  C  C122  1  0.05980000  0.58160000  0.41881000  1
  C  C123  1  0.05980000  0.08160000  0.08119000  1
  N  N124  1  0.69553000  0.92125000  0.92414000  1
  N  N125  1  0.69553000  0.42125000  0.57586000  1
  N  N126  1  0.68513000  0.58052000  0.41752000  1
  N  N127  1  0.68513000  0.08052000  0.08248000  1
  N  N128  1  0.31487000  0.91948000  0.91752000  1
  N  N129  1  0.31487000  0.41948000  0.58248000  1
  N  N130  1  0.30447000  0.57875000  0.42414000  1
  N  N131  1  0.30447000  0.07875000  0.07586000  1
  O  O132  1  0.54154000  0.08850000  0.93014000  1
  O  O133  1  0.54154000  0.58850000  0.56986000  1
  O  O134  1  0.54120000  0.58147000  0.90669000  1
  O  O135  1  0.54120000  0.08147000  0.59331000  1
  O  O136  1  0.53050000  0.72863000  0.80645000  1
  O  O137  1  0.53050000  0.22863000  0.69355000  1
  O  O138  1  0.52137000  0.70570000  0.48665000  1
  O  O139  1  0.52137000  0.20570000  0.01335000  1
  O  O140  1  0.50501000  0.90411000  0.82063000  1
  O  O141  1  0.50501000  0.40411000  0.67937000  1
  O  O142  1  0.49499000  0.59589000  0.32063000  1
  O  O143  1  0.49499000  0.09589000  0.17937000  1
  O  O144  1  0.47863000  0.79430000  0.98665000  1
  O  O145  1  0.47863000  0.29430000  0.51335000  1
  O  O146  1  0.46950000  0.77137000  0.30645000  1
  O  O147  1  0.46950000  0.27137000  0.19355000  1
  O  O148  1  0.45880000  0.91853000  0.40669000  1
  O  O149  1  0.45880000  0.41853000  0.09331000  1
  O  O150  1  0.45846000  0.41150000  0.43014000  1
  O  O151  1  0.45846000  0.91150000  0.06986000  1
