# generated using pymatgen
data_Gd4H2C2S5O24
_symmetry_space_group_name_H-M   'P 1'
_cell_length_a   9.71630000
_cell_length_b   11.69017538
_cell_length_c   11.69017538
_cell_angle_alpha   67.50927292
_cell_angle_beta   87.24845741
_cell_angle_gamma   87.24845741
_symmetry_Int_Tables_number   1
_chemical_formula_structural   Gd4H2C2S5O24
_chemical_formula_sum   'Gd8 H4 C4 S10 O48'
_cell_volume   1224.79190603
_cell_formula_units_Z   2
loop_
 _symmetry_equiv_pos_site_id
 _symmetry_equiv_pos_as_xyz
  1  'x, y, z'
loop_
 _atom_site_type_symbol
 _atom_site_label
 _atom_site_symmetry_multiplicity
 _atom_site_fract_x
 _atom_site_fract_y
 _atom_site_fract_z
 _atom_site_occupancy
  C  C0  1  0.78310000  0.12130000  0.41330000  1
  C  C1  1  0.28310000  0.41330000  0.12130000  1
  C  C2  1  0.21690000  0.87870000  0.58670000  1
  C  C3  1  0.71690000  0.58670000  0.87870000  1
  Gd  Gd4  1  0.49648000  0.22967000  0.52445000  1
  Gd  Gd5  1  0.99648000  0.52445000  0.22967000  1
  Gd  Gd6  1  0.90206000  0.00163000  0.66347000  1
  Gd  Gd7  1  0.40206000  0.66347000  0.00163000  1
  Gd  Gd8  1  0.09794000  0.99837000  0.33653000  1
  Gd  Gd9  1  0.59794000  0.33653000  0.99837000  1
  Gd  Gd10  1  0.50352000  0.77033000  0.47555000  1
  Gd  Gd11  1  0.00352000  0.47555000  0.77033000  1
  H  H12  1  0.25630000  0.83990000  0.66150000  1
  H  H13  1  0.75630000  0.66150000  0.83990000  1
  H  H14  1  0.74370000  0.16010000  0.33850000  1
  H  H15  1  0.24370000  0.33850000  0.16010000  1
  O  O16  1  0.65710000  0.28200000  0.64220000  1
  O  O17  1  0.15710000  0.64220000  0.28200000  1
  O  O18  1  0.83080000  0.13770000  0.76470000  1
  O  O19  1  0.33080000  0.76470000  0.13770000  1
  O  O20  1  0.12840000  0.37220000  0.39020000  1
  O  O21  1  0.62840000  0.39020000  0.37220000  1
  O  O22  1  0.25300000  0.20380000  0.54240000  1
  O  O23  1  0.75300000  0.54240000  0.20380000  1
  O  O24  1  0.00570000  0.20170000  0.54170000  1
  O  O25  1  0.50570000  0.54170000  0.20170000  1
  O  O26  1  0.67150000  0.92660000  0.75320000  1
  O  O27  1  0.17150000  0.75320000  0.92660000  1
  O  O28  1  0.44770000  0.84850000  0.83010000  1
  O  O29  1  0.94770000  0.83010000  0.84850000  1
  O  O30  1  0.46690000  0.02200000  0.63820000  1
  O  O31  1  0.96690000  0.63820000  0.02200000  1
  O  O32  1  0.71830000  0.12700000  0.50760000  1
  O  O33  1  0.21830000  0.50760000  0.12700000  1
  O  O34  1  0.14460000  0.17370000  0.37530000  1
  O  O35  1  0.64460000  0.37530000  0.17370000  1
  O  O36  1  0.45450000  0.18040000  0.35040000  1
  O  O37  1  0.95450000  0.35040000  0.18040000  1
  O  O38  1  0.10790000  0.94350000  0.57250000  1
  O  O39  1  0.60790000  0.57250000  0.94350000  1
  O  O40  1  0.89210000  0.05650000  0.42750000  1
  O  O41  1  0.39210000  0.42750000  0.05650000  1
  O  O42  1  0.54550000  0.81960000  0.64960000  1
  O  O43  1  0.04550000  0.64960000  0.81960000  1
  O  O44  1  0.85540000  0.82630000  0.62470000  1
  O  O45  1  0.35540000  0.62470000  0.82630000  1
  O  O46  1  0.28170000  0.87300000  0.49240000  1
  O  O47  1  0.78170000  0.49240000  0.87300000  1
  O  O48  1  0.53310000  0.97800000  0.36180000  1
  O  O49  1  0.03310000  0.36180000  0.97800000  1
  O  O50  1  0.55230000  0.15150000  0.16990000  1
  O  O51  1  0.05230000  0.16990000  0.15150000  1
  O  O52  1  0.32850000  0.07340000  0.24680000  1
  O  O53  1  0.82850000  0.24680000  0.07340000  1
  O  O54  1  0.99430000  0.79830000  0.45830000  1
  O  O55  1  0.49430000  0.45830000  0.79830000  1
  O  O56  1  0.74700000  0.79620000  0.45760000  1
  O  O57  1  0.24700000  0.45760000  0.79620000  1
  O  O58  1  0.87160000  0.62780000  0.60980000  1
  O  O59  1  0.37160000  0.60980000  0.62780000  1
  O  O60  1  0.16920000  0.86230000  0.23530000  1
  O  O61  1  0.66920000  0.23530000  0.86230000  1
  O  O62  1  0.34290000  0.71800000  0.35780000  1
  O  O63  1  0.84290000  0.35780000  0.71800000  1
  S  S64  1  0.75000000  0.25300000  0.74700000  1
  S  S65  1  0.25000000  0.74700000  0.25300000  1
  S  S66  1  0.13216000  0.23618000  0.46186000  1
  S  S67  1  0.63216000  0.46186000  0.23618000  1
  S  S68  1  0.53473000  0.90355000  0.71733000  1
  S  S69  1  0.03473000  0.71733000  0.90355000  1
  S  S70  1  0.46527000  0.09645000  0.28267000  1
  S  S71  1  0.96527000  0.28267000  0.09645000  1
  S  S72  1  0.86784000  0.76382000  0.53814000  1
  S  S73  1  0.36784000  0.53814000  0.76382000  1
