# generated using pymatgen
data_Tb3H19C43(NO9)2
_symmetry_space_group_name_H-M   'P 1'
_cell_length_a   14.23400000
_cell_length_b   14.23400000
_cell_length_c   33.43108999
_cell_angle_alpha   102.29151372
_cell_angle_beta   102.29151372
_cell_angle_gamma   90.00000000
_symmetry_Int_Tables_number   1
_chemical_formula_structural   Tb3H19C43(NO9)2
_chemical_formula_sum   'Tb12 H76 C172 N8 O72'
_cell_volume   6459.10338128
_cell_formula_units_Z   4
loop_
 _symmetry_equiv_pos_site_id
 _symmetry_equiv_pos_as_xyz
  1  'x, y, z'
loop_
 _atom_site_type_symbol
 _atom_site_label
 _atom_site_symmetry_multiplicity
 _atom_site_fract_x
 _atom_site_fract_y
 _atom_site_fract_z
 _atom_site_occupancy
  C  C0  1  0.44170000  0.44170000  0.88340000  1
  C  C1  1  0.55830000  0.55830000  0.11660000  1
  C  C2  1  0.69170000  0.19170000  0.38340000  1
  C  C3  1  0.80830000  0.30830000  0.61660000  1
  C  C4  1  0.34638000  0.97468000  0.65176000  1
  C  C5  1  0.94462000  0.77532000  0.84824000  1
  C  C6  1  0.98043000  0.07583000  0.91626000  1
  C  C7  1  0.31417000  0.67417000  0.58374000  1
  C  C8  1  0.99054000  0.11964000  0.84148000  1
  C  C9  1  0.39906000  0.63036000  0.65852000  1
  C  C10  1  0.39944000  0.42764000  0.65708000  1
  C  C11  1  0.99236000  0.32236000  0.84292000  1
  C  C12  1  0.98826000  0.15016000  0.80232000  1
  C  C13  1  0.43594000  0.59984000  0.69768000  1
  C  C14  1  0.74637000  0.32117000  0.30814000  1
  C  C15  1  0.68823000  0.42883000  0.19186000  1
  C  C16  1  0.44245000  0.50025000  0.69710000  1
  C  C17  1  0.99535000  0.24975000  0.80290000  1
  C  C18  1  0.33460000  0.93190000  0.47360000  1
  C  C19  1  0.11100000  0.81810000  0.02640000  1
  C  C20  1  0.67764000  0.14944000  0.15708000  1
  C  C21  1  0.77056000  0.60056000  0.34292000  1
  C  C22  1  0.09849000  0.73439000  0.99418000  1
  C  C23  1  0.35431000  0.01561000  0.50582000  1
  C  C24  1  0.71996000  0.23506000  0.23232000  1
  C  C25  1  0.73764000  0.51494000  0.26768000  1
  C  C26  1  0.06295000  0.12255000  0.91510000  1
  C  C27  1  0.39785000  0.62745000  0.58490000  1
  C  C28  1  0.98751000  0.08591000  0.76382000  1
  C  C29  1  0.47369000  0.66409000  0.73618000  1
  C  C30  1  0.32583000  0.73043000  0.41626000  1
  C  C31  1  0.15957000  0.01957000  0.08374000  1
  C  C32  1  0.48506000  0.46996000  0.73232000  1
  C  C33  1  0.00274000  0.28004000  0.76768000  1
  C  C34  1  0.51143000  0.63223000  0.77106000  1
  C  C35  1  0.99037000  0.11777000  0.72894000  1
  C  C36  1  0.06913000  0.14443000  0.87586000  1
  C  C37  1  0.44327000  0.60557000  0.62414000  1
  C  C38  1  0.85630000  0.92460000  0.44740000  1
  C  C39  1  0.65890000  0.82540000  0.05260000  1
  C  C40  1  0.52061000  0.53531000  0.76882000  1
  C  C41  1  0.00179000  0.21469000  0.73118000  1
  C  C42  1  0.67472000  0.20832000  0.05764000  1
  C  C43  1  0.86708000  0.54168000  0.44236000  1
  C  C44  1  0.22468000  0.09638000  0.15176000  1
  C  C45  1  0.32292000  0.65362000  0.34824000  1
  C  C46  1  0.78531000  0.27061000  0.26882000  1
  C  C47  1  0.76649000  0.47939000  0.23118000  1
  C  C48  1  0.75025000  0.19245000  0.19710000  1
  C  C49  1  0.80315000  0.55755000  0.30290000  1
  C  C50  1  0.37255000  0.81295000  0.41510000  1
  C  C51  1  0.20745000  0.93705000  0.08490000  1
  C  C52  1  0.57117000  0.49637000  0.80814000  1
  C  C53  1  0.01303000  0.25363000  0.69186000  1
  C  C54  1  0.14722000  0.15142000  0.95164000  1
  C  C55  1  0.44558000  0.59858000  0.54836000  1
  C  C56  1  0.40142000  0.89722000  0.45164000  1
  C  C57  1  0.19978000  0.85278000  0.04836000  1
  C  C58  1  0.45832000  0.42472000  0.55764000  1
  C  C59  1  0.15068000  0.32528000  0.94236000  1
  C  C60  1  0.17600000  0.69500000  0.98240000  1
  C  C61  1  0.44360000  0.05500000  0.51760000  1
  C  C62  1  0.18190000  0.08460000  0.97360000  1
  C  C63  1  0.45830000  0.66540000  0.52640000  1
  C  C64  1  0.36964000  0.74054000  0.34148000  1
  C  C65  1  0.27816000  0.00946000  0.15852000  1
  C  C66  1  0.17460000  0.60630000  0.94740000  1
  C  C67  1  0.47720000  0.14370000  0.55260000  1
  C  C68  1  0.94500000  0.92600000  0.48240000  1
  C  C69  1  0.71260000  0.82400000  0.01760000  1
  C  C70  1  0.33591000  0.73751000  0.26382000  1
  C  C71  1  0.32209000  0.01249000  0.23618000  1
  C  C72  1  0.39443000  0.81913000  0.37586000  1
  C  C73  1  0.26857000  0.93087000  0.12414000  1
  C  C74  1  0.47591000  0.50571000  0.53722000  1
  C  C75  1  0.18869000  0.24429000  0.96278000  1
  C  C76  1  0.72550000  0.73230000  0.99380000  1
  C  C77  1  0.98170000  0.01770000  0.50620000  1
  C  C78  1  0.98230000  0.47550000  0.49380000  1
  C  C79  1  0.73850000  0.27450000  0.00620000  1
  C  C80  1  0.75571000  0.22591000  0.03722000  1
  C  C81  1  0.96849000  0.52409000  0.46278000  1
  C  C82  1  0.98439000  0.84849000  0.49418000  1
  C  C83  1  0.74021000  0.90151000  0.00582000  1
  C  C84  1  0.88223000  0.26143000  0.27106000  1
  C  C85  1  0.86117000  0.48857000  0.22894000  1
  C  C86  1  0.40016000  0.73826000  0.30232000  1
  C  C87  1  0.34784000  0.01174000  0.19768000  1
  C  C88  1  0.84984000  0.18594000  0.19768000  1
  C  C89  1  0.90216000  0.56406000  0.30232000  1
  C  C90  1  0.36777000  0.74037000  0.22894000  1
  C  C91  1  0.38883000  0.00963000  0.27106000  1
  C  C92  1  0.26561000  0.10431000  0.00582000  1
  C  C93  1  0.50979000  0.64569000  0.49418000  1
  C  C94  1  0.49429000  0.93869000  0.46278000  1
  C  C95  1  0.28151000  0.81131000  0.03722000  1
  C  C96  1  0.26770000  0.73170000  0.00620000  1
  C  C97  1  0.51150000  0.01830000  0.49380000  1
  C  C98  1  0.52450000  0.48850000  0.50620000  1
  C  C99  1  0.26830000  0.26150000  0.99380000  1
  C  C100  1  0.77409000  0.71849000  0.96278000  1
  C  C101  1  0.06131000  0.03151000  0.53722000  1
  C  C102  1  0.85557000  0.19327000  0.12414000  1
  C  C103  1  0.98143000  0.55673000  0.37586000  1
  C  C104  1  0.91409000  0.22369000  0.23618000  1
  C  C105  1  0.92791000  0.52631000  0.26382000  1
  C  C106  1  0.30500000  0.19360000  0.01760000  1
  C  C107  1  0.53740000  0.55640000  0.48240000  1
  C  C108  1  0.07540000  0.40890000  0.55260000  1
  C  C109  1  0.77280000  0.34110000  0.94740000  1
  C  C110  1  0.88036000  0.14906000  0.15852000  1
  C  C111  1  0.97184000  0.60094000  0.34148000  1
  C  C112  1  0.06810000  0.86100000  0.52640000  1
  C  C113  1  0.79170000  0.88900000  0.97360000  1
  C  C114  1  0.07400000  0.46260000  0.51760000  1
  C  C115  1  0.80640000  0.28740000  0.98240000  1
  C  C116  1  0.79168000  0.61708000  0.94236000  1
  C  C117  1  0.09932000  0.13292000  0.55764000  1
  C  C118  1  0.84858000  0.19558000  0.04836000  1
  C  C119  1  0.05022000  0.55442000  0.45164000  1
  C  C120  1  0.10278000  0.94978000  0.54836000  1
  C  C121  1  0.80442000  0.80022000  0.95164000  1
  C  C122  1  0.67883000  0.43823000  0.69186000  1
  C  C123  1  0.23697000  0.31177000  0.80814000  1
  C  C124  1  0.87745000  0.14785000  0.08490000  1
  C  C125  1  0.04255000  0.60215000  0.41510000  1
  C  C126  1  0.49975000  0.74535000  0.30290000  1
  C  C127  1  0.44685000  0.00465000  0.19710000  1
  C  C128  1  0.46469000  0.75179000  0.23118000  1
  C  C129  1  0.48351000  0.99821000  0.26882000  1
  C  C130  1  0.02532000  0.69462000  0.34824000  1
  C  C131  1  0.92708000  0.05538000  0.15176000  1
  C  C132  1  0.57528000  0.90068000  0.44236000  1
  C  C133  1  0.38292000  0.84932000  0.05764000  1
  C  C134  1  0.72939000  0.51649000  0.73118000  1
  C  C135  1  0.24821000  0.23351000  0.76882000  1
  C  C136  1  0.39370000  0.22720000  0.05260000  1
  C  C137  1  0.59110000  0.52280000  0.44740000  1
  C  C138  1  0.18087000  0.01857000  0.62414000  1
  C  C139  1  0.80673000  0.73143000  0.87586000  1
  C  C140  1  0.73857000  0.61117000  0.72894000  1
  C  C141  1  0.25963000  0.13883000  0.77106000  1
  C  C142  1  0.76494000  0.48764000  0.76768000  1
  C  C143  1  0.24726000  0.26236000  0.73232000  1
  C  C144  1  0.92417000  0.06417000  0.08374000  1
  C  C145  1  0.09043000  0.68583000  0.41626000  1
  C  C146  1  0.26249000  0.07209000  0.73618000  1
  C  C147  1  0.77631000  0.67791000  0.76382000  1
  C  C148  1  0.18705000  0.95745000  0.58490000  1
  C  C149  1  0.85215000  0.79255000  0.91510000  1
  C  C150  1  0.53004000  0.75274000  0.26768000  1
  C  C151  1  0.51236000  0.99726000  0.23232000  1
  C  C152  1  0.15151000  0.49021000  0.50582000  1
  C  C153  1  0.89569000  0.25979000  0.99418000  1
  C  C154  1  0.57236000  0.74236000  0.34292000  1
  C  C155  1  0.47944000  0.00764000  0.15708000  1
  C  C156  1  0.91540000  0.20830000  0.02640000  1
  C  C157  1  0.13900000  0.54170000  0.47360000  1
  C  C158  1  0.80755000  0.55315000  0.80290000  1
  C  C159  1  0.25465000  0.19685000  0.69710000  1
  C  C160  1  0.50363000  0.76303000  0.19186000  1
  C  C161  1  0.56177000  0.98697000  0.30814000  1
  C  C162  1  0.26174000  0.09784000  0.69768000  1
  C  C163  1  0.81406000  0.65216000  0.80232000  1
  C  C164  1  0.85056000  0.52056000  0.84292000  1
  C  C165  1  0.25764000  0.22944000  0.65708000  1
  C  C166  1  0.25946000  0.02816000  0.65852000  1
  C  C167  1  0.85094000  0.72184000  0.84148000  1
  C  C168  1  0.26957000  0.90957000  0.58374000  1
  C  C169  1  0.93583000  0.84043000  0.91626000  1
  C  C170  1  0.90362000  0.07292000  0.84824000  1
  C  C171  1  0.30538000  0.67708000  0.65176000  1
  H  H172  1  0.42710000  0.42710000  0.85420000  1
  H  H173  1  0.57290000  0.57290000  0.14580000  1
  H  H174  1  0.67710000  0.17710000  0.35420000  1
  H  H175  1  0.82290000  0.32290000  0.64580000  1
  H  H176  1  0.97730000  0.06130000  0.94180000  1
  H  H177  1  0.28550000  0.68870000  0.55820000  1
  H  H178  1  0.65450000  0.24010000  0.23160000  1
  H  H179  1  0.67290000  0.50990000  0.26840000  1
  H  H180  1  0.27460000  0.89990000  0.46740000  1
  H  H181  1  0.05720000  0.85010000  0.03260000  1
  H  H182  1  0.03720000  0.70710000  0.98140000  1
  H  H183  1  0.30580000  0.04290000  0.51860000  1
  H  H184  1  0.40110000  0.98410000  0.67320000  1
  H  H185  1  0.97790000  0.76590000  0.82680000  1
  H  H186  1  0.31130000  0.72730000  0.44180000  1
  H  H187  1  0.11950000  0.02270000  0.05820000  1
  H  H188  1  0.98500000  0.01990000  0.76240000  1
  H  H189  1  0.47260000  0.73010000  0.73760000  1
  H  H190  1  0.49010000  0.40450000  0.73160000  1
  H  H191  1  0.00850000  0.34550000  0.76840000  1
  H  H192  1  0.98460000  0.07430000  0.70340000  1
  H  H193  1  0.53120000  0.67570000  0.79660000  1
  H  H194  1  0.26990000  0.73500000  0.26240000  1
  H  H195  1  0.25750000  0.01500000  0.23760000  1
  H  H196  1  0.23410000  0.15110000  0.17320000  1
  H  H197  1  0.31090000  0.59890000  0.32680000  1
  H  H198  1  0.14990000  0.02460000  0.96740000  1
  H  H199  1  0.43250000  0.72540000  0.53260000  1
  H  H200  1  0.92860000  0.44900000  0.49980000  1
  H  H201  1  0.67880000  0.30100000  0.00020000  1
  H  H202  1  0.12460000  0.17480000  0.87320000  1
  H  H203  1  0.50140000  0.57520000  0.62680000  1
  H  H204  1  0.69900000  0.67860000  0.99980000  1
  H  H205  1  0.94920000  0.07140000  0.50020000  1
  H  H206  1  0.95710000  0.78720000  0.48140000  1
  H  H207  1  0.72570000  0.96280000  0.01860000  1
  H  H208  1  0.32430000  0.73460000  0.20340000  1
  H  H209  1  0.37090000  0.01540000  0.29660000  1
  H  H210  1  0.42480000  0.87460000  0.37320000  1
  H  H211  1  0.30160000  0.87540000  0.12680000  1
  H  H212  1  0.82520000  0.25140000  0.12680000  1
  H  H213  1  0.94840000  0.49860000  0.37320000  1
  H  H214  1  0.92570000  0.28120000  0.29660000  1
  H  H215  1  0.87910000  0.46880000  0.20340000  1
  H  H216  1  0.29290000  0.05580000  0.01860000  1
  H  H217  1  0.52430000  0.69420000  0.48140000  1
  H  H218  1  0.55100000  0.42880000  0.50020000  1
  H  H219  1  0.30080000  0.32120000  0.99980000  1
  H  H220  1  0.12540000  0.05160000  0.62680000  1
  H  H221  1  0.74860000  0.69840000  0.87320000  1
  H  H222  1  0.32140000  0.69920000  0.00020000  1
  H  H223  1  0.57120000  0.05080000  0.49980000  1
  H  H224  1  0.10010000  0.80720000  0.53260000  1
  H  H225  1  0.81750000  0.94280000  0.96740000  1
  H  H226  1  0.01590000  0.72790000  0.32680000  1
  H  H227  1  0.93910000  0.02210000  0.17320000  1
  H  H228  1  0.98010000  0.22260000  0.23760000  1
  H  H229  1  0.99250000  0.52740000  0.26240000  1
  H  H230  1  0.26540000  0.12090000  0.79660000  1
  H  H231  1  0.71880000  0.62910000  0.70340000  1
  H  H232  1  0.75990000  0.42290000  0.76840000  1
  H  H233  1  0.24150000  0.32710000  0.73160000  1
  H  H234  1  0.26500000  0.00750000  0.73760000  1
  H  H235  1  0.77740000  0.74250000  0.76240000  1
  H  H236  1  0.93870000  0.03550000  0.05820000  1
  H  H237  1  0.13050000  0.71450000  0.44180000  1
  H  H238  1  0.84890000  0.06090000  0.82680000  1
  H  H239  1  0.27210000  0.68910000  0.67320000  1
  H  H240  1  0.21280000  0.47570000  0.51860000  1
  H  H241  1  0.94420000  0.27430000  0.98140000  1
  H  H242  1  0.97540000  0.18250000  0.03260000  1
  H  H243  1  0.19280000  0.56750000  0.46740000  1
  H  H244  1  0.59550000  0.75850000  0.26840000  1
  H  H245  1  0.57710000  0.99150000  0.23160000  1
  H  H246  1  0.27270000  0.86950000  0.55820000  1
  H  H247  1  0.96450000  0.88050000  0.94180000  1
  N  N248  1  0.34800000  0.91340000  0.61560000  1
  N  N249  1  0.98240000  0.83660000  0.88440000  1
  N  N250  1  0.16340000  0.09800000  0.11560000  1
  N  N251  1  0.29780000  0.65200000  0.38440000  1
  N  N252  1  0.08660000  0.73240000  0.38440000  1
  N  N253  1  0.95220000  0.01760000  0.11560000  1
  N  N254  1  0.90200000  0.04780000  0.88440000  1
  N  N255  1  0.26760000  0.70220000  0.61560000  1
  O  O256  1  0.93542000  0.54292000  0.86044000  1
  O  O257  1  0.32498000  0.20708000  0.63956000  1
  O  O258  1  0.65941000  0.32841000  0.30442000  1
  O  O259  1  0.60499000  0.42159000  0.19558000  1
  O  O260  1  0.71015000  0.27465000  0.39890000  1
  O  O261  1  0.56125000  0.47535000  0.10110000  1
  O  O262  1  0.61092000  0.20272000  0.14364000  1
  O  O263  1  0.71728000  0.54728000  0.35636000  1
  O  O264  1  0.52465000  0.46015000  0.89890000  1
  O  O265  1  0.87575000  0.28985000  0.60110000  1
  O  O266  1  0.80819000  0.84369000  0.43098000  1
  O  O267  1  0.62721000  0.90631000  0.06902000  1
  O  O268  1  0.62910000  0.28090000  0.07140000  1
  O  O269  1  0.80770000  0.46910000  0.42860000  1
  O  O270  1  0.37407000  0.40827000  0.55994000  1
  O  O271  1  0.06413000  0.34173000  0.94006000  1
  O  O272  1  0.64360000  0.75100000  0.06400000  1
  O  O273  1  0.82960000  0.99900000  0.43600000  1
  O  O274  1  0.79292000  0.68542000  0.36044000  1
  O  O275  1  0.68248000  0.06458000  0.13956000  1
  O  O276  1  0.09369000  0.55819000  0.93098000  1
  O  O277  1  0.41271000  0.19181000  0.56902000  1
  O  O278  1  0.65827000  0.12407000  0.05994000  1
  O  O279  1  0.84833000  0.62593000  0.44006000  1
  O  O280  1  0.45272000  0.36092000  0.64364000  1
  O  O281  1  0.05908000  0.38908000  0.85636000  1
  O  O282  1  0.80687000  0.35277000  0.34154000  1
  O  O283  1  0.71533000  0.39723000  0.15846000  1
  O  O284  1  0.57841000  0.40941000  0.80442000  1
  O  O285  1  0.02399000  0.34059000  0.69558000  1
  O  O286  1  0.60277000  0.55687000  0.84154000  1
  O  O287  1  0.01123000  0.19313000  0.65846000  1
  O  O288  1  0.00100000  0.39360000  0.56400000  1
  O  O289  1  0.68700000  0.35640000  0.93600000  1
  O  O290  1  0.53090000  0.37910000  0.57140000  1
  O  O291  1  0.20950000  0.37090000  0.92860000  1
  O  O292  1  0.71910000  0.55770000  0.92860000  1
  O  O293  1  0.04050000  0.19230000  0.57140000  1
  O  O294  1  0.24900000  0.57960000  0.93600000  1
  O  O295  1  0.56300000  0.17040000  0.56400000  1
  O  O296  1  0.64723000  0.46533000  0.65846000  1
  O  O297  1  0.23877000  0.28467000  0.84154000  1
  O  O298  1  0.67159000  0.35499000  0.69558000  1
  O  O299  1  0.22601000  0.39501000  0.80442000  1
  O  O300  1  0.44313000  0.76123000  0.15846000  1
  O  O301  1  0.53467000  0.98877000  0.34154000  1
  O  O302  1  0.79728000  0.46728000  0.85636000  1
  O  O303  1  0.19092000  0.28272000  0.64364000  1
  O  O304  1  0.59173000  0.81413000  0.44006000  1
  O  O305  1  0.40167000  0.93587000  0.05994000  1
  O  O306  1  0.15631000  0.37721000  0.56902000  1
  O  O307  1  0.83729000  0.37279000  0.93098000  1
  O  O308  1  0.45708000  0.07498000  0.13956000  1
  O  O309  1  0.56752000  0.67502000  0.36044000  1
  O  O310  1  0.60640000  0.43700000  0.43600000  1
  O  O311  1  0.42040000  0.31300000  0.06400000  1
  O  O312  1  0.87593000  0.59833000  0.94006000  1
  O  O313  1  0.18587000  0.15167000  0.55994000  1
  O  O314  1  0.62090000  0.95950000  0.42860000  1
  O  O315  1  0.44230000  0.79050000  0.07140000  1
  O  O316  1  0.44181000  0.16271000  0.06902000  1
  O  O317  1  0.62279000  0.58729000  0.43098000  1
  O  O318  1  0.72535000  0.31125000  0.60110000  1
  O  O319  1  0.37425000  0.43875000  0.89890000  1
  O  O320  1  0.63908000  0.80908000  0.35636000  1
  O  O321  1  0.53272000  0.94092000  0.14364000  1
  O  O322  1  0.53985000  0.62575000  0.10110000  1
  O  O323  1  0.68875000  0.12425000  0.39890000  1
  O  O324  1  0.59059000  0.77399000  0.19558000  1
  O  O325  1  0.64501000  0.97601000  0.30442000  1
  O  O326  1  0.31458000  0.43248000  0.63956000  1
  O  O327  1  0.92502000  0.31752000  0.86044000  1
  Tb  Tb328  1  0.29059000  0.29059000  0.58118000  1
  Tb  Tb329  1  0.70941000  0.70941000  0.41882000  1
  Tb  Tb330  1  0.54059000  0.04059000  0.08118000  1
  Tb  Tb331  1  0.95941000  0.45941000  0.91882000  1
  Tb  Tb332  1  0.57857000  0.78588000  0.12360000  1
  Tb  Tb333  1  0.70497000  0.96412000  0.37640000  1
  Tb  Tb334  1  0.03588000  0.32857000  0.62360000  1
  Tb  Tb335  1  0.66228000  0.42143000  0.87640000  1
  Tb  Tb336  1  0.21412000  0.45497000  0.87640000  1
  Tb  Tb337  1  0.58772000  0.29503000  0.62360000  1
  Tb  Tb338  1  0.67143000  0.41228000  0.37640000  1
  Tb  Tb339  1  0.54503000  0.33772000  0.12360000  1
