# generated using pymatgen
data_CoHC4O3
_symmetry_space_group_name_H-M   'P 1'
_cell_length_a   6.80300000
_cell_length_b   15.11440000
_cell_length_c   15.11440991
_cell_angle_alpha   117.79016069
_cell_angle_beta   98.62900195
_cell_angle_gamma   98.62880000
_symmetry_Int_Tables_number   1
_chemical_formula_structural   CoHC4O3
_chemical_formula_sum   'Co6 H6 C24 O18'
_cell_volume   1315.60470354
_cell_formula_units_Z   6
loop_
 _symmetry_equiv_pos_site_id
 _symmetry_equiv_pos_as_xyz
  1  'x, y, z'
loop_
 _atom_site_type_symbol
 _atom_site_label
 _atom_site_symmetry_multiplicity
 _atom_site_fract_x
 _atom_site_fract_y
 _atom_site_fract_z
 _atom_site_occupancy
  Co  Co0  1  0.38420000  0.58250000  0.28310000  1
  Co  Co1  1  0.80170000  0.41750000  0.70060000  1
  Co  Co2  1  0.80170000  0.70060000  0.41750000  1
  Co  Co3  1  0.10110000  0.29940000  0.71690000  1
  Co  Co4  1  0.10110000  0.71690000  0.29940000  1
  Co  Co5  1  0.38420000  0.28310000  0.58250000  1
  H  H6  1  0.53850000  0.00000000  0.43150000  1
  H  H7  1  0.72350000  0.48375000  0.48375000  1
  H  H8  1  0.23975000  0.51625000  0.00000000  1
  H  H9  1  0.10700000  0.56850000  0.56850000  1
  H  H10  1  0.53850000  0.43150000  0.00000000  1
  H  H11  1  0.23975000  0.00000000  0.51625000  1
  C  C12  1  0.50780000  0.56210000  0.46780000  1
  C  C13  1  0.94570000  0.43790000  0.90570000  1
  C  C14  1  0.58700000  0.49920000  0.49920000  1
  C  C15  1  0.08780000  0.50080000  0.00000000  1
  C  C16  1  0.56130000  0.81390000  0.35810000  1
  C  C17  1  0.74740000  0.18610000  0.54420000  1
  C  C18  1  0.67155000  0.00000000  0.44305000  1
  C  C19  1  0.72810000  0.90540000  0.41480000  1
  C  C20  1  0.82270000  0.09460000  0.50940000  1
  C  C21  1  0.94570000  0.90570000  0.43790000  1
  C  C22  1  0.04000000  0.09430000  0.53220000  1
  C  C23  1  0.74740000  0.54420000  0.18610000  1
  C  C24  1  0.20320000  0.45580000  0.64190000  1
  C  C25  1  0.08780000  0.00000000  0.50080000  1
  C  C26  1  0.22850000  0.55695000  0.55695000  1
  C  C27  1  0.67155000  0.44305000  1.00000000  1
  C  C28  1  0.82270000  0.50940000  0.09460000  1
  C  C29  1  0.31330000  0.49060000  0.58520000  1
  C  C30  1  0.20320000  0.64190000  0.45580000  1
  C  C31  1  0.56130000  0.35810000  0.81390000  1
  C  C32  1  0.31330000  0.58520000  0.49060000  1
  C  C33  1  0.72810000  0.41480000  0.90540000  1
  C  C34  1  0.04000000  0.53220000  0.09430000  1
  C  C35  1  0.50780000  0.46780000  0.56210000  1
  O  O36  1  0.38020000  0.82050000  0.32810000  1
  O  O37  1  0.55970000  0.17950000  0.50760000  1
  O  O38  1  0.57940000  0.58150000  0.39890000  1
  O  O39  1  0.99790000  0.41850000  0.81740000  1
  O  O40  1  0.59620000  0.72500000  0.34050000  1
  O  O41  1  0.87120000  0.27500000  0.61550000  1
  O  O42  1  0.55970000  0.50760000  0.17950000  1
  O  O43  1  0.05210000  0.49240000  0.67190000  1
  O  O44  1  0.05210000  0.67190000  0.49240000  1
  O  O45  1  0.38020000  0.32810000  0.82050000  1
  O  O46  1  0.99790000  0.81740000  0.41850000  1
  O  O47  1  0.18050000  0.18260000  0.60110000  1
  O  O48  1  0.87120000  0.61550000  0.27500000  1
  O  O49  1  0.25570000  0.38450000  0.65950000  1
  O  O50  1  0.25570000  0.65950000  0.38450000  1
  O  O51  1  0.59620000  0.34050000  0.72500000  1
  O  O52  1  0.18050000  0.60110000  0.18260000  1
  O  O53  1  0.57940000  0.39890000  0.58150000  1
