# generated using pymatgen
data_MgH8C13NO5
_symmetry_space_group_name_H-M   'P 1'
_cell_length_a   12.40280069
_cell_length_b   12.40280069
_cell_length_c   12.85700000
_cell_angle_alpha   114.57145453
_cell_angle_beta   114.57145453
_cell_angle_gamma   91.37295926
_symmetry_Int_Tables_number   1
_chemical_formula_structural   MgH8C13NO5
_chemical_formula_sum   'Mg4 H32 C52 N4 O20'
_cell_volume   1588.78393619
_cell_formula_units_Z   4
loop_
 _symmetry_equiv_pos_site_id
 _symmetry_equiv_pos_as_xyz
  1  'x, y, z'
loop_
 _atom_site_type_symbol
 _atom_site_label
 _atom_site_symmetry_multiplicity
 _atom_site_fract_x
 _atom_site_fract_y
 _atom_site_fract_z
 _atom_site_occupancy
  C  C0  1  0.88770000  0.09970000  0.00070000  1
  C  C1  1  0.09970000  0.88770000  0.50070000  1
  C  C2  1  0.95220000  0.02020000  0.51880000  1
  C  C3  1  0.02020000  0.95220000  0.01880000  1
  C  C4  1  0.81050000  0.14650000  0.53200000  1
  C  C5  1  0.14650000  0.81050000  0.03200000  1
  C  C6  1  0.90810000  0.96550000  0.57260000  1
  C  C7  1  0.96550000  0.90810000  0.07260000  1
  C  C8  1  0.81630000  0.00150000  0.60330000  1
  C  C9  1  0.00150000  0.81630000  0.10330000  1
  C  C10  1  0.42840000  0.38580000  0.01100000  1
  C  C11  1  0.38580000  0.42840000  0.51100000  1
  C  C12  1  0.49310000  0.32010000  0.95200000  1
  C  C13  1  0.32010000  0.49310000  0.45200000  1
  C  C14  1  0.44740000  0.23600000  0.50490000  1
  C  C15  1  0.23600000  0.44740000  0.00490000  1
  C  C16  1  0.50556000  0.16944000  0.75620000  1
  C  C17  1  0.16944000  0.50556000  0.25620000  1
  C  C18  1  0.36640000  0.30360000  0.44270000  1
  C  C19  1  0.30360000  0.36640000  0.94270000  1
  C  C20  1  0.43402000  0.23198000  0.82440000  1
  C  C21  1  0.23198000  0.43402000  0.32440000  1
  C  C22  1  0.27680000  0.24380000  0.31520000  1
  C  C23  1  0.24380000  0.27680000  0.81520000  1
  C  C24  1  0.30870000  0.20870000  0.75710000  1
  C  C25  1  0.20870000  0.30870000  0.25710000  1
  C  C26  1  0.69130000  0.79130000  0.24290000  1
  C  C27  1  0.79130000  0.69130000  0.74290000  1
  C  C28  1  0.72320000  0.75620000  0.68480000  1
  C  C29  1  0.75620000  0.72320000  0.18480000  1
  C  C30  1  0.56598000  0.76802000  0.17560000  1
  C  C31  1  0.76802000  0.56598000  0.67560000  1
  C  C32  1  0.63360000  0.69640000  0.55730000  1
  C  C33  1  0.69640000  0.63360000  0.05730000  1
  C  C34  1  0.49444000  0.83056000  0.24380000  1
  C  C35  1  0.83056000  0.49444000  0.74380000  1
  C  C36  1  0.55260000  0.76400000  0.49510000  1
  C  C37  1  0.76400000  0.55260000  0.99510000  1
  C  C38  1  0.50690000  0.67990000  0.04800000  1
  C  C39  1  0.67990000  0.50690000  0.54800000  1
  C  C40  1  0.57160000  0.61420000  0.98900000  1
  C  C41  1  0.61420000  0.57160000  0.48900000  1
  C  C42  1  0.18370000  0.99850000  0.39670000  1
  C  C43  1  0.99850000  0.18370000  0.89670000  1
  C  C44  1  0.09190000  0.03450000  0.42740000  1
  C  C45  1  0.03450000  0.09190000  0.92740000  1
  C  C46  1  0.18950000  0.85350000  0.46800000  1
  C  C47  1  0.85350000  0.18950000  0.96800000  1
  C  C48  1  0.04780000  0.97980000  0.48120000  1
  C  C49  1  0.97980000  0.04780000  0.98120000  1
  C  C50  1  0.11230000  0.90030000  0.99930000  1
  C  C51  1  0.90030000  0.11230000  0.49930000  1
  H  H52  1  0.77750000  0.20910000  0.51900000  1
  H  H53  1  0.20910000  0.77750000  0.01900000  1
  H  H54  1  0.84870000  0.07290000  0.03670000  1
  H  H55  1  0.07290000  0.84870000  0.53670000  1
  H  H56  1  0.46950000  0.44390000  0.09780000  1
  H  H57  1  0.44390000  0.46950000  0.59780000  1
  H  H58  1  0.57740000  0.33540000  0.99910000  1
  H  H59  1  0.33540000  0.57740000  0.49910000  1
  H  H60  1  0.90370000  0.94090000  0.08820000  1
  H  H61  1  0.94090000  0.90370000  0.58820000  1
  H  H62  1  0.78690000  0.96350000  0.63850000  1
  H  H63  1  0.96350000  0.78690000  0.13850000  1
  H  H64  1  0.73260000  0.85320000  0.32800000  1
  H  H65  1  0.85320000  0.73260000  0.82800000  1
  H  H66  1  0.73810000  0.84050000  0.73200000  1
  H  H67  1  0.84050000  0.73810000  0.23200000  1
  H  H68  1  0.26190000  0.15950000  0.26800000  1
  H  H69  1  0.15950000  0.26190000  0.76800000  1
  H  H70  1  0.26740000  0.14680000  0.67200000  1
  H  H71  1  0.14680000  0.26740000  0.17200000  1
  H  H72  1  0.21310000  0.03650000  0.36150000  1
  H  H73  1  0.03650000  0.21310000  0.86150000  1
  H  H74  1  0.09630000  0.05910000  0.91180000  1
  H  H75  1  0.05910000  0.09630000  0.41180000  1
  H  H76  1  0.42260000  0.66460000  0.00090000  1
  H  H77  1  0.66460000  0.42260000  0.50090000  1
  H  H78  1  0.53050000  0.55610000  0.90220000  1
  H  H79  1  0.55610000  0.53050000  0.40220000  1
  H  H80  1  0.15130000  0.92710000  0.96330000  1
  H  H81  1  0.92710000  0.15130000  0.46330000  1
  H  H82  1  0.22250000  0.79090000  0.48100000  1
  H  H83  1  0.79090000  0.22250000  0.98100000  1
  Mg  Mg84  1  0.69483000  0.30517000  0.75000000  1
  Mg  Mg85  1  0.30517000  0.69483000  0.25000000  1
  Mg  Mg86  1  0.50000000  1.00000000  0.50000000  1
  Mg  Mg87  1  1.00000000  0.50000000  1.00000000  1
  N  N88  1  0.76954000  0.09066000  0.58260000  1
  N  N89  1  0.09066000  0.76954000  0.08260000  1
  N  N90  1  0.23046000  0.90934000  0.41740000  1
  N  N91  1  0.90934000  0.23046000  0.91740000  1
  O  O92  1  0.61863000  0.21723000  0.81410000  1
  O  O93  1  0.21723000  0.61863000  0.31410000  1
  O  O94  1  0.52893000  0.29877000  0.61930000  1
  O  O95  1  0.29877000  0.52893000  0.11930000  1
  O  O96  1  0.68137000  0.12387000  0.61320000  1
  O  O97  1  0.12387000  0.68137000  0.11320000  1
  O  O98  1  0.42745000  0.12163000  0.43710000  1
  O  O99  1  0.12163000  0.42745000  0.93710000  1
  O  O100  1  0.45011000  0.07779000  0.64670000  1
  O  O101  1  0.07779000  0.45011000  0.14670000  1
  O  O102  1  0.54989000  0.92221000  0.35330000  1
  O  O103  1  0.92221000  0.54989000  0.85330000  1
  O  O104  1  0.57255000  0.87837000  0.56290000  1
  O  O105  1  0.87837000  0.57255000  0.06290000  1
  O  O106  1  0.31863000  0.87613000  0.38680000  1
  O  O107  1  0.87613000  0.31863000  0.88680000  1
  O  O108  1  0.47107000  0.70123000  0.38070000  1
  O  O109  1  0.70123000  0.47107000  0.88070000  1
  O  O110  1  0.38137000  0.78277000  0.18590000  1
  O  O111  1  0.78277000  0.38137000  0.68590000  1
