# generated using pymatgen
data_Cu2H24C25(NO)4
_symmetry_space_group_name_H-M   'P 1'
_cell_length_a   9.80400000
_cell_length_b   16.83860000
_cell_length_c   16.83860513
_cell_angle_alpha   85.13849024
_cell_angle_beta   73.07514260
_cell_angle_gamma   73.07530000
_symmetry_Int_Tables_number   1
_chemical_formula_structural   Cu2H24C25(NO)4
_chemical_formula_sum   'Cu4 H48 C50 N8 O8'
_cell_volume   2544.22692440
_cell_formula_units_Z   2
loop_
 _symmetry_equiv_pos_site_id
 _symmetry_equiv_pos_as_xyz
  1  'x, y, z'
loop_
 _atom_site_type_symbol
 _atom_site_label
 _atom_site_symmetry_multiplicity
 _atom_site_fract_x
 _atom_site_fract_y
 _atom_site_fract_z
 _atom_site_occupancy
  Cu  Cu0  1  0.50000000  0.50000000  0.50000000  1
  Cu  Cu1  1  0.50000000  0.00000000  1.00000000  1
  Cu  Cu2  1  0.00000000  0.00000000  0.50000000  1
  Cu  Cu3  1  0.50000000  0.50000000  1.00000000  1
  H  H4  1  0.51420000  0.82340000  0.44640000  1
  H  H5  1  0.30190000  0.26330000  0.65110000  1
  H  H6  1  0.78370000  0.76330000  0.15110000  1
  H  H7  1  0.07220000  0.31210000  0.86110000  1
  H  H8  1  0.11570000  0.13890000  0.81210000  1
  H  H9  1  0.24540000  0.18790000  0.63890000  1
  H  H10  1  0.78400000  0.67660000  0.05360000  1
  H  H11  1  0.35420000  0.67800000  0.47620000  1
  H  H12  1  0.56990000  0.57810000  0.25870000  1
  H  H13  1  0.27570000  0.88520000  0.52080000  1
  H  H14  1  0.96060000  0.05360000  0.82340000  1
  H  H15  1  0.04700000  0.15110000  0.73670000  1
  H  H16  1  0.06670000  0.36110000  0.68790000  1
  H  H17  1  0.33910000  0.47920000  0.38520000  1
  H  H18  1  0.93480000  0.34890000  0.76330000  1
  H  H19  1  0.79650000  0.97920000  0.88520000  1
  H  H20  1  0.68170000  0.61480000  0.97920000  1
  H  H21  1  0.40670000  0.92190000  0.24130000  1
  H  H22  1  0.46780000  0.52380000  0.17800000  1
  H  H23  1  0.17140000  0.75870000  0.42190000  1
  H  H24  1  0.64800000  0.25870000  0.92190000  1
  H  H25  1  0.50840000  0.82200000  0.02380000  1
  H  H26  1  0.83760000  0.44640000  0.67660000  1
  H  H27  1  0.83040000  0.02380000  0.67800000  1
  H  H28  1  0.16960000  0.97620000  0.32200000  1
  H  H29  1  0.16240000  0.55360000  0.32340000  1
  H  H30  1  0.49160000  0.17800000  0.97620000  1
  H  H31  1  0.35200000  0.74130000  0.07810000  1
  H  H32  1  0.82860000  0.24130000  0.57810000  1
  H  H33  1  0.53220000  0.47620000  0.82200000  1
  H  H34  1  0.59330000  0.07810000  0.75870000  1
  H  H35  1  0.31830000  0.38520000  0.02080000  1
  H  H36  1  0.20350000  0.02080000  0.11480000  1
  H  H37  1  0.06520000  0.65110000  0.23670000  1
  H  H38  1  0.66090000  0.52080000  0.61480000  1
  H  H39  1  0.93330000  0.63890000  0.31210000  1
  H  H40  1  0.95300000  0.84890000  0.26330000  1
  H  H41  1  0.03940000  0.94640000  0.17660000  1
  H  H42  1  0.72430000  0.11480000  0.47920000  1
  H  H43  1  0.43010000  0.42190000  0.74130000  1
  H  H44  1  0.64580000  0.32200000  0.52380000  1
  H  H45  1  0.21600000  0.32340000  0.94640000  1
  H  H46  1  0.75460000  0.81210000  0.36110000  1
  H  H47  1  0.88430000  0.86110000  0.18790000  1
  H  H48  1  0.92780000  0.68790000  0.13890000  1
  H  H49  1  0.21630000  0.23670000  0.84890000  1
  H  H50  1  0.69810000  0.73670000  0.34890000  1
  H  H51  1  0.48580000  0.17660000  0.55360000  1
  C  C52  1  0.16246000  0.28247000  0.82091000  1
  C  C53  1  0.26584000  0.21753000  0.67909000  1
  C  C54  1  0.12500000  0.25000000  0.75000000  1
  C  C55  1  0.44628000  0.85600000  0.41972000  1
  C  C56  1  0.69146000  0.63214000  0.16392000  1
  C  C57  1  0.05507000  0.17909000  0.78247000  1
  C  C58  1  0.48752000  0.86786000  0.33608000  1
  C  C59  1  0.72200000  0.64400000  0.08028000  1
  C  C60  1  0.59458000  0.58636000  0.20152000  1
  C  C61  1  0.30319000  0.89281000  0.46365000  1
  C  C62  1  0.31190000  0.65252000  0.44664000  1
  C  C63  1  0.01663000  0.32091000  0.71753000  1
  C  C64  1  0.86600000  0.08028000  0.85600000  1
  C  C65  1  0.30400000  0.53635000  0.39281000  1
  C  C66  1  0.65965000  0.60719000  0.03635000  1
  C  C67  1  0.82360000  0.16392000  0.86786000  1
  C  C68  1  0.53558000  0.55336000  0.15252000  1
  C  C69  1  0.38246000  0.91364000  0.29848000  1
  C  C70  1  0.76684000  0.03635000  0.89281000  1
  C  C71  1  0.20390000  0.70152000  0.41364000  1
  C  C72  1  0.68094000  0.20152000  0.91364000  1
  C  C73  1  0.24146000  0.94664000  0.34748000  1
  C  C74  1  0.19772000  0.58028000  0.35600000  1
  C  C75  1  0.58894000  0.15252000  0.94664000  1
  C  C76  1  0.14462000  0.66392000  0.36786000  1
  C  C77  1  0.85538000  0.33608000  0.63214000  1
  C  C78  1  0.41106000  0.84748000  0.05336000  1
  C  C79  1  0.80228000  0.41972000  0.64400000  1
  C  C80  1  0.75854000  0.05336000  0.65252000  1
  C  C81  1  0.31906000  0.79848000  0.08636000  1
  C  C82  1  0.79610000  0.29848000  0.58636000  1
  C  C83  1  0.23316000  0.96365000  0.10719000  1
  C  C84  1  0.61754000  0.08636000  0.70152000  1
  C  C85  1  0.46442000  0.44664000  0.84748000  1
  C  C86  1  0.17640000  0.83608000  0.13214000  1
  C  C87  1  0.34035000  0.39281000  0.96365000  1
  C  C88  1  0.69600000  0.46365000  0.60719000  1
  C  C89  1  0.13400000  0.91972000  0.14400000  1
  C  C90  1  0.98337000  0.67909000  0.28247000  1
  C  C91  1  0.68810000  0.34748000  0.55336000  1
  C  C92  1  0.69681000  0.10719000  0.53635000  1
  C  C93  1  0.40542000  0.41364000  0.79848000  1
  C  C94  1  0.27800000  0.35600000  0.91972000  1
  C  C95  1  0.51248000  0.13214000  0.66392000  1
  C  C96  1  0.94493000  0.82091000  0.21753000  1
  C  C97  1  0.30854000  0.36786000  0.83608000  1
  C  C98  1  0.55372000  0.14400000  0.58028000  1
  C  C99  1  0.87500000  0.75000000  0.25000000  1
  C  C100  1  0.73416000  0.78247000  0.32091000  1
  C  C101  1  0.83754000  0.71753000  0.17909000  1
  N  N102  1  0.35913000  0.57140000  0.43878000  1
  N  N103  1  0.56947000  0.56122000  0.07140000  1
  N  N104  1  0.20209000  0.93878000  0.42860000  1
  N  N105  1  0.63069000  0.07140000  0.93878000  1
  N  N106  1  0.36931000  0.92860000  0.06122000  1
  N  N107  1  0.79791000  0.06122000  0.57140000  1
  N  N108  1  0.43053000  0.43878000  0.92860000  1
  N  N109  1  0.64087000  0.42860000  0.56122000  1
  O  O110  1  0.74800000  0.66289000  0.21491000  1
  O  O111  1  0.62580000  0.83711000  0.28509000  1
  O  O112  1  0.91089000  0.21491000  0.83711000  1
  O  O113  1  0.96291000  0.28509000  0.66289000  1
  O  O114  1  0.03709000  0.71491000  0.33711000  1
  O  O115  1  0.08911000  0.78509000  0.16289000  1
  O  O116  1  0.37420000  0.16289000  0.71491000  1
  O  O117  1  0.25200000  0.33711000  0.78509000  1
