# generated using pymatgen
data_ZnH12C18N2O3
_symmetry_space_group_name_H-M   'P 1'
_cell_length_a   5.08830000
_cell_length_b   19.05950901
_cell_length_c   19.05950901
_cell_angle_alpha   88.97904259
_cell_angle_beta   82.32900207
_cell_angle_gamma   82.32900207
_symmetry_Int_Tables_number   1
_chemical_formula_structural   ZnH12C18N2O3
_chemical_formula_sum   'Zn4 H48 C72 N8 O12'
_cell_volume   1815.46567239
_cell_formula_units_Z   4
loop_
 _symmetry_equiv_pos_site_id
 _symmetry_equiv_pos_as_xyz
  1  'x, y, z'
loop_
 _atom_site_type_symbol
 _atom_site_label
 _atom_site_symmetry_multiplicity
 _atom_site_fract_x
 _atom_site_fract_y
 _atom_site_fract_z
 _atom_site_occupancy
  C  C0  1  0.12310000  0.76610000  0.21590000  1
  C  C1  1  0.87429000  0.74560000  0.23062000  1
  C  C2  1  0.73680000  0.21350000  0.72290000  1
  C  C3  1  0.14511000  0.56912000  0.35946000  1
  C  C4  1  0.25830000  0.17440000  0.75160000  1
  C  C5  1  0.47909000  0.63148000  0.28734000  1
  C  C6  1  0.97468000  0.51975000  0.36529000  1
  C  C7  1  0.31053000  0.57855000  0.29399000  1
  C  C8  1  0.63548000  0.63696000  0.22308000  1
  C  C9  1  0.66003000  0.36529000  0.48025000  1
  C  C10  1  0.89130000  0.15530000  0.69010000  1
  C  C11  1  0.14112000  0.13450000  0.70506000  1
  C  C12  1  0.73070000  0.30780000  0.52560000  1
  C  C13  1  0.91883000  0.66264000  0.12970000  1
  C  C14  1  0.49543000  0.35946000  0.43088000  1
  C  C15  1  0.96150000  0.47440000  0.30780000  1
  C  C16  1  0.30446000  0.53188000  0.23580000  1
  C  C17  1  0.63404000  0.24453000  0.51939000  1
  C  C18  1  0.63231000  0.58955000  0.16643000  1
  C  C19  1  0.30816000  0.07011000  0.67057000  1
  C  C20  1  0.12143000  0.48061000  0.24453000  1
  C  C21  1  0.39548000  0.29399000  0.42145000  1
  C  C22  1  0.46874000  0.53853000  0.17119000  1
  C  C23  1  0.45974000  0.23580000  0.46812000  1
  C  C24  1  0.23357000  0.28734000  0.36852000  1
  C  C25  1  0.36007000  0.17119000  0.46147000  1
  C  C26  1  0.02127000  0.67057000  0.92989000  1
  C  C27  1  0.14144000  0.22308000  0.36304000  1
  C  C28  1  0.99010000  0.75160000  0.82560000  1
  C  C29  1  0.20126000  0.16643000  0.41045000  1
  C  C30  1  0.15382000  0.70506000  0.86550000  1
  C  C31  1  0.11080000  0.78410000  0.76610000  1
  C  C32  1  0.41860000  0.69010000  0.84470000  1
  C  C33  1  0.41853000  0.87030000  0.66264000  1
  C  C34  1  0.38011000  0.76938000  0.74560000  1
  C  C35  1  0.54030000  0.72290000  0.78650000  1
  C  C36  1  0.04970000  0.27710000  0.21350000  1
  C  C37  1  0.89509000  0.23062000  0.25440000  1
  C  C38  1  0.95147000  0.12970000  0.33736000  1
  C  C39  1  0.95340000  0.30990000  0.15530000  1
  C  C40  1  0.66100000  0.21590000  0.23390000  1
  C  C41  1  0.72438000  0.29494000  0.13450000  1
  C  C42  1  0.77814000  0.83357000  0.58955000  1
  C  C43  1  0.56730000  0.24840000  0.17440000  1
  C  C44  1  0.72756000  0.77692000  0.63696000  1
  C  C45  1  0.62173000  0.32943000  0.07011000  1
  C  C46  1  0.99273000  0.82881000  0.53853000  1
  C  C47  1  0.88943000  0.71266000  0.63148000  1
  C  C48  1  0.16366000  0.76420000  0.53188000  1
  C  C49  1  0.17846000  0.46147000  0.82881000  1
  C  C50  1  0.11092000  0.70601000  0.57855000  1
  C  C51  1  0.84657000  0.51939000  0.75547000  1
  C  C52  1  0.04884000  0.92989000  0.32943000  1
  C  C53  1  0.38829000  0.41045000  0.83357000  1
  C  C54  1  0.39796000  0.75547000  0.48061000  1
  C  C55  1  0.07214000  0.46812000  0.76420000  1
  C  C56  1  0.74370000  0.52560000  0.69220000  1
  C  C57  1  0.28577000  0.64054000  0.56912000  1
  C  C58  1  0.71117000  0.33736000  0.87030000  1
  C  C59  1  0.56410000  0.69220000  0.47440000  1
  C  C60  1  0.98068000  0.86550000  0.29494000  1
  C  C61  1  0.73670000  0.84470000  0.30990000  1
  C  C62  1  0.50557000  0.63471000  0.51975000  1
  C  C63  1  0.49552000  0.36304000  0.77692000  1
  C  C64  1  0.18307000  0.42145000  0.70601000  1
  C  C65  1  0.85972000  0.48025000  0.63471000  1
  C  C66  1  0.39791000  0.36852000  0.71266000  1
  C  C67  1  0.18430000  0.82560000  0.24840000  1
  C  C68  1  0.07369000  0.43088000  0.64054000  1
  C  C69  1  0.67320000  0.78650000  0.27710000  1
  C  C70  1  0.85051000  0.25440000  0.76938000  1
  C  C71  1  0.10510000  0.23390000  0.78410000  1
  H  H72  1  0.15480000  0.59770000  0.39910000  1
  H  H73  1  0.48530000  0.66230000  0.32550000  1
  H  H74  1  0.55670000  0.22600000  0.71460000  1
  H  H75  1  0.86190000  0.51540000  0.40860000  1
  H  H76  1  0.25520000  0.73960000  0.18340000  1
  H  H77  1  0.43740000  0.16070000  0.76050000  1
  H  H78  1  0.72950000  0.40860000  0.48460000  1
  H  H79  1  0.84470000  0.31320000  0.56020000  1
  H  H80  1  0.44610000  0.39910000  0.40230000  1
  H  H81  1  0.82050000  0.12950000  0.65650000  1
  H  H82  1  0.04930000  0.68520000  0.10060000  1
  H  H83  1  0.68370000  0.20610000  0.54950000  1
  H  H84  1  0.84210000  0.43980000  0.31320000  1
  H  H85  1  0.18920000  0.32550000  0.33770000  1
  H  H86  1  0.11020000  0.45050000  0.20610000  1
  H  H87  1  0.46530000  0.50830000  0.13230000  1
  H  H88  1  0.40240000  0.13230000  0.49170000  1
  H  H89  1  0.81287000  0.06711000  0.55475000  1
  H  H90  1  0.80210000  0.76050000  0.83930000  1
  H  H91  1  0.26550000  0.89940000  0.68520000  1
  H  H92  1  0.00520000  0.81660000  0.73960000  1
  H  H93  1  0.52300000  0.65650000  0.87050000  1
  H  H94  1  0.12002000  0.44525000  0.06711000  1
  H  H95  1  0.21730000  0.28540000  0.22600000  1
  H  H96  1  0.72870000  0.71460000  0.77400000  1
  H  H97  1  0.63238000  0.55475000  0.93289000  1
  H  H98  1  0.05000000  0.34350000  0.12950000  1
  H  H99  1  0.56140000  0.18340000  0.26040000  1
  H  H100  1  0.85010000  0.10060000  0.31480000  1
  H  H101  1  0.40190000  0.23950000  0.16070000  1
  H  H102  1  0.43473000  0.93289000  0.44525000  1
  H  H103  1  0.02640000  0.86770000  0.50830000  1
  H  H104  1  0.10590000  0.49170000  0.86770000  1
  H  H105  1  0.76680000  0.54950000  0.79390000  1
  H  H106  1  0.85240000  0.67450000  0.66230000  1
  H  H107  1  0.59510000  0.56020000  0.68680000  1
  H  H108  1  0.43930000  0.79390000  0.45050000  1
  H  H109  1  0.83510000  0.31480000  0.89940000  1
  H  H110  1  0.60650000  0.87050000  0.34350000  1
  H  H111  1  0.24750000  0.60090000  0.59770000  1
  H  H112  1  0.71810000  0.68680000  0.43980000  1
  H  H113  1  0.62270000  0.59140000  0.51540000  1
  H  H114  1  0.35860000  0.83930000  0.23950000  1
  H  H115  1  0.17820000  0.26040000  0.81660000  1
  H  H116  1  0.78590000  0.48460000  0.59140000  1
  H  H117  1  0.49730000  0.77400000  0.28540000  1
  H  H118  1  0.47310000  0.33770000  0.67450000  1
  H  H119  1  0.15160000  0.40230000  0.60090000  1
  N  N120  1  0.81758000  0.68362000  0.19662000  1
  N  N121  1  0.81696000  0.60756000  0.10932000  1
  N  N122  1  0.98580000  0.19662000  0.31638000  1
  N  N123  1  0.07372000  0.10932000  0.39244000  1
  N  N124  1  0.57548000  0.89068000  0.60756000  1
  N  N125  1  0.49880000  0.80338000  0.68362000  1
  N  N126  1  0.53384000  0.39244000  0.89068000  1
  N  N127  1  0.69782000  0.31638000  0.80338000  1
  O  O128  1  0.54960000  0.05370000  0.68670000  1
  O  O129  1  0.25152000  0.05152000  0.61204000  1
  O  O130  1  0.76370000  0.68670000  0.94630000  1
  O  O131  1  0.84282000  0.02967000  0.53229000  1
  O  O132  1  0.13644000  0.61204000  0.94848000  1
  O  O133  1  0.62489000  0.53229000  0.97033000  1
  O  O134  1  0.12751000  0.46771000  0.02967000  1
  O  O135  1  0.69696000  0.38796000  0.05152000  1
  O  O136  1  0.40478000  0.97033000  0.46771000  1
  O  O137  1  0.39670000  0.31330000  0.05370000  1
  O  O138  1  0.91508000  0.94848000  0.38796000  1
  O  O139  1  0.29000000  0.94630000  0.31330000  1
  Zn  Zn140  1  0.91279000  0.55761000  0.01579000  1
  Zn  Zn141  1  0.52960000  0.98421000  0.55761000  1
  Zn  Zn142  1  0.07142000  0.01579000  0.44239000  1
  Zn  Zn143  1  0.48619000  0.44239000  0.98421000  1
