# generated using pymatgen
data_Cu2H5C4IN3
_symmetry_space_group_name_H-M   'P 1'
_cell_length_a   15.47213975
_cell_length_b   15.47210000
_cell_length_c   15.47210000
_cell_angle_alpha   104.23100000
_cell_angle_beta   112.15329900
_cell_angle_gamma   112.15309900
_symmetry_Int_Tables_number   1
_chemical_formula_structural   Cu2H5C4IN3
_chemical_formula_sum   'Cu16 H40 C32 I8 N24'
_cell_volume   2833.52607370
_cell_formula_units_Z   8
loop_
 _symmetry_equiv_pos_site_id
 _symmetry_equiv_pos_as_xyz
  1  'x, y, z'
loop_
 _atom_site_type_symbol
 _atom_site_label
 _atom_site_symmetry_multiplicity
 _atom_site_fract_x
 _atom_site_fract_y
 _atom_site_fract_z
 _atom_site_occupancy
  Cu  Cu0  1  0.18143000  0.77474000  0.19973000  1
  Cu  Cu1  1  0.34120000  0.58602000  0.39384000  1
  Cu  Cu2  1  0.15880000  0.55264000  0.24482000  1
  Cu  Cu3  1  0.42499000  0.19973000  0.51830000  1
  Cu  Cu4  1  0.30782000  0.75518000  0.41398000  1
  Cu  Cu5  1  0.19218000  0.60616000  0.44736000  1
  Cu  Cu6  1  0.31857000  0.51830000  0.59331000  1
  Cu  Cu7  1  0.92499000  0.40669000  0.22526000  1
  Cu  Cu8  1  0.07501000  0.59331000  0.77474000  1
  Cu  Cu9  1  0.68143000  0.48170000  0.40669000  1
  Cu  Cu10  1  0.80782000  0.39384000  0.55264000  1
  Cu  Cu11  1  0.69218000  0.24482000  0.58602000  1
  Cu  Cu12  1  0.57501000  0.80027000  0.48170000  1
  Cu  Cu13  1  0.84120000  0.44736000  0.75518000  1
  Cu  Cu14  1  0.65880000  0.41398000  0.60616000  1
  Cu  Cu15  1  0.81857000  0.22526000  0.80027000  1
  H  H16  1  0.79280000  0.03140000  0.79460000  1
  H  H17  1  0.65670000  0.61840000  0.67010000  1
  H  H18  1  0.68290000  0.92240000  0.72670000  1
  H  H19  1  0.56220000  0.63850000  0.61810000  1
  H  H20  1  0.21900000  0.06000000  0.28980000  1
  H  H21  1  0.52040000  0.07630000  0.63850000  1
  H  H22  1  0.84330000  0.51340000  0.96170000  1
  H  H23  1  0.93780000  0.55590000  0.07630000  1
  H  H24  1  0.44830000  0.96170000  0.61840000  1
  H  H25  1  0.72980000  0.15900000  0.94000000  1
  H  H26  1  0.69570000  0.23950000  0.92240000  1
  H  H27  1  0.19570000  0.27330000  0.45620000  1
  H  H28  1  0.23680000  0.20540000  0.49820000  1
  H  H29  1  0.73680000  0.23860000  0.03140000  1
  H  H30  1  0.22980000  0.28980000  0.57080000  1
  H  H31  1  0.81710000  0.54380000  0.23950000  1
  H  H32  1  0.02040000  0.38190000  0.44410000  1
  H  H33  1  0.71900000  0.42920000  0.15900000  1
  H  H34  1  0.05170000  0.67010000  0.51340000  1
  H  H35  1  0.29280000  0.49820000  0.76140000  1
  H  H36  1  0.70720000  0.50180000  0.23860000  1
  H  H37  1  0.94830000  0.32990000  0.48660000  1
  H  H38  1  0.28100000  0.57080000  0.84100000  1
  H  H39  1  0.97960000  0.61810000  0.55590000  1
  H  H40  1  0.18290000  0.45620000  0.76050000  1
  H  H41  1  0.77020000  0.71020000  0.42920000  1
  H  H42  1  0.26320000  0.76140000  0.96860000  1
  H  H43  1  0.76320000  0.79460000  0.50180000  1
  H  H44  1  0.80430000  0.72670000  0.54380000  1
  H  H45  1  0.30430000  0.76050000  0.07760000  1
  H  H46  1  0.27020000  0.84100000  0.06000000  1
  H  H47  1  0.55170000  0.03830000  0.38160000  1
  H  H48  1  0.06220000  0.44410000  0.92370000  1
  H  H49  1  0.15670000  0.48660000  0.03830000  1
  H  H50  1  0.47960000  0.92370000  0.36150000  1
  H  H51  1  0.78100000  0.94000000  0.71020000  1
  H  H52  1  0.43780000  0.36150000  0.38190000  1
  H  H53  1  0.31710000  0.07760000  0.27330000  1
  H  H54  1  0.34330000  0.38160000  0.32990000  1
  H  H55  1  0.20720000  0.96860000  0.20540000  1
  C  C56  1  0.00740000  0.39100000  0.01060000  1
  C  C57  1  0.25670000  0.02790000  0.27340000  1
  C  C58  1  0.29910000  0.99250000  0.35440000  1
  C  C59  1  0.58920000  0.60990000  0.66290000  1
  C  C60  1  0.50740000  0.49680000  0.61640000  1
  C  C61  1  0.91080000  0.57370000  0.02070000  1
  C  C62  1  0.38040000  0.98940000  0.49680000  1
  C  C63  1  0.86190000  0.30660000  0.00750000  1
  C  C64  1  0.44700000  0.02070000  0.60990000  1
  C  C65  1  0.36190000  0.35440000  0.55530000  1
  C  C66  1  0.74550000  0.22880000  0.97210000  1
  C  C67  1  0.24550000  0.27340000  0.51670000  1
  C  C68  1  0.75670000  0.48330000  0.22880000  1
  C  C69  1  0.94700000  0.33710000  0.42630000  1
  C  C70  1  0.11960000  0.61640000  0.60900000  1
  C  C71  1  0.20090000  0.55530000  0.69340000  1
  C  C72  1  0.79910000  0.44470000  0.30660000  1
  C  C73  1  0.88040000  0.38360000  0.39100000  1
  C  C74  1  0.05300000  0.66290000  0.57370000  1
  C  C75  1  0.24330000  0.51670000  0.77120000  1
  C  C76  1  0.75450000  0.72660000  0.48330000  1
  C  C77  1  0.25450000  0.77120000  0.02790000  1
  C  C78  1  0.63810000  0.64560000  0.44470000  1
  C  C79  1  0.55300000  0.97930000  0.39010000  1
  C  C80  1  0.13810000  0.69340000  0.99250000  1
  C  C81  1  0.61960000  0.01060000  0.50320000  1
  C  C82  1  0.08920000  0.42630000  0.97930000  1
  C  C83  1  0.49260000  0.50320000  0.38360000  1
  C  C84  1  0.41080000  0.39010000  0.33710000  1
  C  C85  1  0.70090000  0.00750000  0.64560000  1
  C  C86  1  0.74330000  0.97210000  0.72660000  1
  C  C87  1  0.99260000  0.60900000  0.98940000  1
  I  I88  1  0.66572000  0.32346000  0.74546000  1
  I  I89  1  0.42200000  0.74546000  0.57974000  1
  I  I90  1  0.16572000  0.42026000  0.34226000  1
  I  I91  1  0.07800000  0.65774000  0.32346000  1
  I  I92  1  0.92200000  0.34226000  0.67654000  1
  I  I93  1  0.83428000  0.57974000  0.65774000  1
  I  I94  1  0.57800000  0.25454000  0.42026000  1
  I  I95  1  0.33428000  0.67654000  0.25454000  1
  N  N96  1  0.90270000  0.31190000  0.94600000  1
  N  N97  1  0.27380000  0.89460000  0.33020000  1
  N  N98  1  0.53020000  0.42220000  0.59580000  1
  N  N99  1  0.03020000  0.43440000  0.10800000  1
  N  N100  1  0.36590000  0.05400000  0.45670000  1
  N  N101  1  0.32640000  0.89200000  0.42220000  1
  N  N102  1  0.43560000  0.33020000  0.55640000  1
  N  N103  1  0.93560000  0.37920000  0.10540000  1
  N  N104  1  0.40270000  0.45670000  0.59080000  1
  N  N105  1  0.17360000  0.59580000  0.56560000  1
  N  N106  1  0.22620000  0.55640000  0.62080000  1
  N  N107  1  0.86590000  0.40920000  0.31190000  1
  N  N108  1  0.13410000  0.59080000  0.68810000  1
  N  N109  1  0.77380000  0.44360000  0.37920000  1
  N  N110  1  0.82640000  0.40420000  0.43440000  1
  N  N111  1  0.59730000  0.54330000  0.40920000  1
  N  N112  1  0.06440000  0.62080000  0.89460000  1
  N  N113  1  0.56440000  0.66980000  0.44360000  1
  N  N114  1  0.67360000  0.10800000  0.57780000  1
  N  N115  1  0.63410000  0.94600000  0.54330000  1
  N  N116  1  0.96980000  0.56560000  0.89200000  1
  N  N117  1  0.46980000  0.57780000  0.40420000  1
  N  N118  1  0.72620000  0.10540000  0.66980000  1
  N  N119  1  0.09730000  0.68810000  0.05400000  1
