# generated using pymatgen
data_TbH9C21NO8
_symmetry_space_group_name_H-M   'P 1'
_cell_length_a   11.46884294
_cell_length_b   11.46884294
_cell_length_c   21.93640000
_cell_angle_alpha   83.86136543
_cell_angle_beta   83.86136543
_cell_angle_gamma   62.51251724
_symmetry_Int_Tables_number   1
_chemical_formula_structural   TbH9C21NO8
_chemical_formula_sum   'Tb4 H36 C84 N4 O32'
_cell_volume   2539.55806160
_cell_formula_units_Z   4
loop_
 _symmetry_equiv_pos_site_id
 _symmetry_equiv_pos_as_xyz
  1  'x, y, z'
loop_
 _atom_site_type_symbol
 _atom_site_label
 _atom_site_symmetry_multiplicity
 _atom_site_fract_x
 _atom_site_fract_y
 _atom_site_fract_z
 _atom_site_occupancy
  C  C0  1  0.17639000  0.86939000  0.52218000  1
  C  C1  1  0.86939000  0.17639000  0.02218000  1
  C  C2  1  0.08945000  0.96005000  0.56244000  1
  C  C3  1  0.96005000  0.08945000  0.06244000  1
  C  C4  1  0.26388000  0.81968000  0.97643000  1
  C  C5  1  0.81968000  0.26388000  0.47643000  1
  C  C6  1  0.25539000  0.90339000  0.47762000  1
  C  C7  1  0.90339000  0.25539000  0.97762000  1
  C  C8  1  0.08663000  0.07763000  0.05822000  1
  C  C9  1  0.07763000  0.08663000  0.55822000  1
  C  C10  1  0.61069000  0.65909000  0.36897000  1
  C  C11  1  0.65909000  0.61069000  0.86897000  1
  C  C12  1  0.24738000  0.02898000  0.47482000  1
  C  C13  1  0.02898000  0.24738000  0.97482000  1
  C  C14  1  0.15627000  0.12107000  0.51470000  1
  C  C15  1  0.12107000  0.15627000  0.01470000  1
  C  C16  1  0.60008000  0.72108000  0.30455000  1
  C  C17  1  0.72108000  0.60008000  0.80455000  1
  C  C18  1  0.48968000  0.83848000  0.28891000  1
  C  C19  1  0.83848000  0.48968000  0.78891000  1
  C  C20  1  0.66127000  0.69967000  0.75979000  1
  C  C21  1  0.69967000  0.66127000  0.25979000  1
  C  C22  1  0.48119000  0.89339000  0.22927000  1
  C  C23  1  0.89339000  0.48119000  0.72927000  1
  C  C24  1  0.50573000  0.87137000  0.65434000  1
  C  C25  1  0.87137000  0.50573000  0.15434000  1
  C  C26  1  0.33567000  0.06287000  0.42918000  1
  C  C27  1  0.06287000  0.33567000  0.92918000  1
  C  C28  1  0.68990000  0.71170000  0.19832000  1
  C  C29  1  0.71170000  0.68990000  0.69832000  1
  C  C30  1  0.25384000  0.15084000  0.01725000  1
  C  C31  1  0.15084000  0.25384000  0.51725000  1
  C  C32  1  0.57790000  0.82850000  0.18303000  1
  C  C33  1  0.82850000  0.57790000  0.68303000  1
  C  C34  1  0.44862000  0.97882000  0.61312000  1
  C  C35  1  0.97882000  0.44862000  0.11312000  1
  C  C36  1  0.55101000  0.88595000  0.11808000  1
  C  C37  1  0.88595000  0.55101000  0.61808000  1
  C  C38  1  0.64499000  0.80079000  0.65209000  1
  C  C39  1  0.80079000  0.64499000  0.15209000  1
  C  C40  1  0.47252000  0.98532000  0.42885000  1
  C  C41  1  0.98532000  0.47252000  0.92885000  1
  C  C42  1  0.52748000  0.01468000  0.57115000  1
  C  C43  1  0.01468000  0.52748000  0.07115000  1
  C  C44  1  0.35501000  0.19921000  0.34791000  1
  C  C45  1  0.19921000  0.35501000  0.84791000  1
  C  C46  1  0.44899000  0.11405000  0.88192000  1
  C  C47  1  0.11405000  0.44899000  0.38192000  1
  C  C48  1  0.55138000  0.02118000  0.38688000  1
  C  C49  1  0.02118000  0.55138000  0.88688000  1
  C  C50  1  0.42210000  0.17150000  0.81697000  1
  C  C51  1  0.17150000  0.42210000  0.31697000  1
  C  C52  1  0.74616000  0.84916000  0.98275000  1
  C  C53  1  0.84916000  0.74616000  0.48275000  1
  C  C54  1  0.31010000  0.28830000  0.80168000  1
  C  C55  1  0.28830000  0.31010000  0.30168000  1
  C  C56  1  0.66433000  0.93713000  0.57082000  1
  C  C57  1  0.93713000  0.66433000  0.07082000  1
  C  C58  1  0.49427000  0.12863000  0.34566000  1
  C  C59  1  0.12863000  0.49427000  0.84566000  1
  C  C60  1  0.51881000  0.10661000  0.77073000  1
  C  C61  1  0.10661000  0.51881000  0.27073000  1
  C  C62  1  0.33873000  0.30033000  0.24021000  1
  C  C63  1  0.30033000  0.33873000  0.74021000  1
  C  C64  1  0.51032000  0.16152000  0.71109000  1
  C  C65  1  0.16152000  0.51032000  0.21109000  1
  C  C66  1  0.39992000  0.27892000  0.69545000  1
  C  C67  1  0.27892000  0.39992000  0.19545000  1
  C  C68  1  0.84373000  0.87893000  0.48530000  1
  C  C69  1  0.87893000  0.84373000  0.98530000  1
  C  C70  1  0.75262000  0.97102000  0.52518000  1
  C  C71  1  0.97102000  0.75262000  0.02518000  1
  C  C72  1  0.38931000  0.34091000  0.63103000  1
  C  C73  1  0.34091000  0.38931000  0.13103000  1
  C  C74  1  0.91337000  0.92237000  0.94178000  1
  C  C75  1  0.92237000  0.91337000  0.44178000  1
  C  C76  1  0.74461000  0.09661000  0.52238000  1
  C  C77  1  0.09661000  0.74461000  0.02238000  1
  C  C78  1  0.73612000  0.18032000  0.02357000  1
  C  C79  1  0.18032000  0.73612000  0.52357000  1
  C  C80  1  0.91055000  0.03995000  0.43756000  1
  C  C81  1  0.03995000  0.91055000  0.93756000  1
  C  C82  1  0.82361000  0.13061000  0.47782000  1
  C  C83  1  0.13061000  0.82361000  0.97782000  1
  H  H84  1  0.06410000  0.96210000  0.90700000  1
  H  H85  1  0.96210000  0.06410000  0.40700000  1
  H  H86  1  0.31390000  0.84110000  0.44960000  1
  H  H87  1  0.84110000  0.31390000  0.94960000  1
  H  H88  1  0.15000000  0.01580000  0.08500000  1
  H  H89  1  0.01580000  0.15000000  0.58500000  1
  H  H90  1  0.45310000  0.84550000  0.68340000  1
  H  H91  1  0.84550000  0.45310000  0.18340000  1
  H  H92  1  0.42060000  0.88040000  0.31920000  1
  H  H93  1  0.88040000  0.42060000  0.81920000  1
  H  H94  1  0.58400000  0.77660000  0.77100000  1
  H  H95  1  0.77660000  0.58400000  0.27100000  1
  H  H96  1  0.35540000  0.02800000  0.61350000  1
  H  H97  1  0.02800000  0.35540000  0.11350000  1
  H  H98  1  0.40890000  0.97610000  0.21940000  1
  H  H99  1  0.97610000  0.40890000  0.71940000  1
  H  H100  1  0.51020000  0.91020000  0.45670000  1
  H  H101  1  0.91020000  0.51020000  0.95670000  1
  H  H102  1  0.48980000  0.08980000  0.54330000  1
  H  H103  1  0.08980000  0.48980000  0.04330000  1
  H  H104  1  0.59110000  0.02390000  0.78060000  1
  H  H105  1  0.02390000  0.59110000  0.28060000  1
  H  H106  1  0.64460000  0.97200000  0.38650000  1
  H  H107  1  0.97200000  0.64460000  0.88650000  1
  H  H108  1  0.41600000  0.22340000  0.22900000  1
  H  H109  1  0.22340000  0.41600000  0.72900000  1
  H  H110  1  0.57940000  0.11960000  0.68080000  1
  H  H111  1  0.11960000  0.57940000  0.18080000  1
  H  H112  1  0.54690000  0.15450000  0.31660000  1
  H  H113  1  0.15450000  0.54690000  0.81660000  1
  H  H114  1  0.85000000  0.98420000  0.91500000  1
  H  H115  1  0.98420000  0.85000000  0.41500000  1
  H  H116  1  0.68610000  0.15890000  0.55040000  1
  H  H117  1  0.15890000  0.68610000  0.05040000  1
  H  H118  1  0.93590000  0.03790000  0.09300000  1
  H  H119  1  0.03790000  0.93590000  0.59300000  1
  N  N120  1  0.27794000  0.16814000  0.38954000  1
  N  N121  1  0.16814000  0.27794000  0.88954000  1
  N  N122  1  0.72206000  0.83186000  0.61046000  1
  N  N123  1  0.83186000  0.72206000  0.11046000  1
  O  O124  1  0.33232000  0.77224000  0.02231000  1
  O  O125  1  0.77224000  0.33232000  0.52231000  1
  O  O126  1  0.30378000  0.86822000  0.92966000  1
  O  O127  1  0.86822000  0.30378000  0.42966000  1
  O  O128  1  0.50469000  0.68611000  0.40202000  1
  O  O129  1  0.68611000  0.50469000  0.90202000  1
  O  O130  1  0.58242000  0.72322000  0.88575000  1
  O  O131  1  0.72322000  0.58242000  0.38575000  1
  O  O132  1  0.54259000  0.81333000  0.08051000  1
  O  O133  1  0.81333000  0.54259000  0.58051000  1
  O  O134  1  0.35718000  0.04240000  0.01471000  1
  O  O135  1  0.04240000  0.35718000  0.51471000  1
  O  O136  1  0.46842000  0.99764000  0.89205000  1
  O  O137  1  0.99764000  0.46842000  0.39205000  1
  O  O138  1  0.74056000  0.74480000  0.97566000  1
  O  O139  1  0.74480000  0.74056000  0.47566000  1
  O  O140  1  0.25944000  0.25520000  0.02434000  1
  O  O141  1  0.25520000  0.25944000  0.52434000  1
  O  O142  1  0.53158000  0.00236000  0.10795000  1
  O  O143  1  0.00236000  0.53158000  0.60795000  1
  O  O144  1  0.64282000  0.95760000  0.98529000  1
  O  O145  1  0.95760000  0.64282000  0.48529000  1
  O  O146  1  0.45741000  0.18667000  0.91949000  1
  O  O147  1  0.18667000  0.45741000  0.41949000  1
  O  O148  1  0.41758000  0.27678000  0.11425000  1
  O  O149  1  0.27678000  0.41758000  0.61425000  1
  O  O150  1  0.49531000  0.31389000  0.59798000  1
  O  O151  1  0.31389000  0.49531000  0.09798000  1
  O  O152  1  0.69622000  0.13178000  0.07034000  1
  O  O153  1  0.13178000  0.69622000  0.57034000  1
  O  O154  1  0.66768000  0.22776000  0.97769000  1
  O  O155  1  0.22776000  0.66768000  0.47769000  1
  Tb  Tb156  1  0.50008000  0.83840000  0.97426000  1
  Tb  Tb157  1  0.83840000  0.50008000  0.47426000  1
  Tb  Tb158  1  0.49992000  0.16160000  0.02574000  1
  Tb  Tb159  1  0.16160000  0.49992000  0.52574000  1
