# generated using pymatgen
data_BaFe(CN)6
_symmetry_space_group_name_H-M   'P 1'
_cell_length_a   7.37440000
_cell_length_b   7.37440000
_cell_length_c   15.83575382
_cell_angle_alpha   76.53565624
_cell_angle_beta   76.53565624
_cell_angle_gamma   60.00000000
_symmetry_Int_Tables_number   1
_chemical_formula_structural   BaFe(CN)6
_chemical_formula_sum   'Ba2 Fe2 C12 N12'
_cell_volume   718.33957354
_cell_formula_units_Z   2
loop_
 _symmetry_equiv_pos_site_id
 _symmetry_equiv_pos_as_xyz
  1  'x, y, z'
loop_
 _atom_site_type_symbol
 _atom_site_label
 _atom_site_symmetry_multiplicity
 _atom_site_fract_x
 _atom_site_fract_y
 _atom_site_fract_z
 _atom_site_occupancy
  Ba  Ba0  1  0.25000000  0.25000000  0.25000000  1
  Ba  Ba1  1  0.75000000  0.75000000  0.75000000  1
  C  C2  1  0.74207000  0.15767000  0.07169000  1
  C  C3  1  0.65767000  0.24207000  0.57169000  1
  C  C4  1  0.15767000  0.02857000  0.07169000  1
  C  C5  1  0.52857000  0.65767000  0.57169000  1
  C  C6  1  0.75793000  0.47143000  0.42831000  1
  C  C7  1  0.97143000  0.25793000  0.92831000  1
  C  C8  1  0.24207000  0.52857000  0.57169000  1
  C  C9  1  0.02857000  0.74207000  0.07169000  1
  C  C10  1  0.47143000  0.34233000  0.42831000  1
  C  C11  1  0.84233000  0.97143000  0.92831000  1
  C  C12  1  0.25793000  0.84233000  0.92831000  1
  C  C13  1  0.34233000  0.75793000  0.42831000  1
  Fe  Fe14  1  0.00000000  0.00000000  0.00000000  1
  Fe  Fe15  1  0.50000000  0.50000000  0.50000000  1
  N  N16  1  0.91261000  0.45811000  0.38547000  1
  N  N17  1  0.95811000  0.41261000  0.88547000  1
  N  N18  1  0.45811000  0.24381000  0.38547000  1
  N  N19  1  0.74381000  0.95811000  0.88547000  1
  N  N20  1  0.58739000  0.25619000  0.11453000  1
  N  N21  1  0.75619000  0.08739000  0.61453000  1
  N  N22  1  0.41261000  0.74381000  0.88547000  1
  N  N23  1  0.24381000  0.91261000  0.38547000  1
  N  N24  1  0.25619000  0.04189000  0.11453000  1
  N  N25  1  0.54189000  0.75619000  0.61453000  1
  N  N26  1  0.08739000  0.54189000  0.61453000  1
  N  N27  1  0.04189000  0.58739000  0.11453000  1
