# generated using pymatgen
data_Co3H16C28(NO7)2
_symmetry_space_group_name_H-M   'P 1'
_cell_length_a   12.28210000
_cell_length_b   12.57330000
_cell_length_c   14.42600000
_cell_angle_alpha   90.00000000
_cell_angle_beta   90.00000000
_cell_angle_gamma   113.90900000
_symmetry_Int_Tables_number   1
_chemical_formula_structural   Co3H16C28(NO7)2
_chemical_formula_sum   'Co6 H32 C56 N4 O28'
_cell_volume   2036.59393413
_cell_formula_units_Z   2
loop_
 _symmetry_equiv_pos_site_id
 _symmetry_equiv_pos_as_xyz
  1  'x, y, z'
loop_
 _atom_site_type_symbol
 _atom_site_label
 _atom_site_symmetry_multiplicity
 _atom_site_fract_x
 _atom_site_fract_y
 _atom_site_fract_z
 _atom_site_occupancy
  Co  Co0  1  1.00000000  0.50000000  0.50000000  1
  Co  Co1  1  0.75977000  0.50355000  0.36257000  1
  Co  Co2  1  0.74023000  0.99645000  0.86257000  1
  Co  Co3  1  0.50000000  0.00000000  0.00000000  1
  Co  Co4  1  0.25977000  0.00355000  0.13743000  1
  Co  Co5  1  0.24023000  0.49645000  0.63743000  1
  H  H6  1  0.98330000  0.11060000  0.07060000  1
  H  H7  1  0.98300000  0.61750000  0.35500000  1
  H  H8  1  0.92910000  0.20850000  0.66240000  1
  H  H9  1  0.90960000  0.69040000  0.70260000  1
  H  H10  1  0.89730000  0.02100000  0.62360000  1
  H  H11  1  0.86910000  0.85390000  0.58460000  1
  H  H12  1  0.84210000  0.66940000  0.54150000  1
  H  H13  1  0.76880000  0.24200000  0.18890000  1
  H  H14  1  0.73120000  0.25800000  0.68890000  1
  H  H15  1  0.65790000  0.83060000  0.04150000  1
  H  H16  1  0.63090000  0.64610000  0.08460000  1
  H  H17  1  0.60270000  0.47900000  0.12360000  1
  H  H18  1  0.59040000  0.80960000  0.20260000  1
  H  H19  1  0.57090000  0.29150000  0.16240000  1
  H  H20  1  0.51700000  0.88250000  0.85500000  1
  H  H21  1  0.51670000  0.38940000  0.57060000  1
  H  H22  1  0.48330000  0.61060000  0.42940000  1
  H  H23  1  0.48300000  0.11750000  0.14500000  1
  H  H24  1  0.42910000  0.70850000  0.83760000  1
  H  H25  1  0.40960000  0.19040000  0.79740000  1
  H  H26  1  0.39730000  0.52100000  0.87640000  1
  H  H27  1  0.36910000  0.35390000  0.91540000  1
  H  H28  1  0.34210000  0.16940000  0.95850000  1
  H  H29  1  0.26880000  0.74200000  0.31110000  1
  H  H30  1  0.23120000  0.75800000  0.81110000  1
  H  H31  1  0.15790000  0.33060000  0.45850000  1
  H  H32  1  0.13090000  0.14610000  0.41540000  1
  H  H33  1  0.10270000  0.97900000  0.37640000  1
  H  H34  1  0.09040000  0.30960000  0.29740000  1
  H  H35  1  0.07090000  0.79150000  0.33760000  1
  H  H36  1  0.01700000  0.38250000  0.64500000  1
  H  H37  1  0.01670000  0.88940000  0.92940000  1
  C  C38  1  0.99000000  0.93930000  0.48610000  1
  C  C39  1  0.96950000  0.19490000  0.61240000  1
  C  C40  1  0.96890000  0.15430000  0.11730000  1
  C  C41  1  0.96690000  0.72630000  0.74760000  1
  C  C42  1  0.95030000  0.08270000  0.58910000  1
  C  C43  1  0.94430000  0.79220000  0.81630000  1
  C  C44  1  0.92640000  0.28690000  0.25480000  1
  C  C45  1  0.91110000  0.84320000  0.53440000  1
  C  C46  1  0.90430000  0.35670000  0.33140000  1
  C  C47  1  0.89490000  0.73290000  0.50860000  1
  C  C48  1  0.86080000  0.16510000  0.11970000  1
  C  C49  1  0.84030000  0.23290000  0.18800000  1
  C  C50  1  0.83110000  0.81090000  0.81300000  1
  C  C51  1  0.76440000  0.09800000  0.05120000  1
  C  C52  1  0.73560000  0.40200000  0.55120000  1
  C  C53  1  0.66890000  0.68910000  0.31300000  1
  C  C54  1  0.65970000  0.26710000  0.68800000  1
  C  C55  1  0.63920000  0.33490000  0.61970000  1
  C  C56  1  0.60510000  0.76710000  0.00860000  1
  C  C57  1  0.59570000  0.14330000  0.83140000  1
  C  C58  1  0.58890000  0.65680000  0.03440000  1
  C  C59  1  0.57360000  0.21310000  0.75480000  1
  C  C60  1  0.55570000  0.70780000  0.31630000  1
  C  C61  1  0.54970000  0.41730000  0.08910000  1
  C  C62  1  0.53310000  0.77370000  0.24760000  1
  C  C63  1  0.53110000  0.34570000  0.61730000  1
  C  C64  1  0.53050000  0.30510000  0.11240000  1
  C  C65  1  0.51000000  0.56070000  0.98610000  1
  C  C66  1  0.49000000  0.43930000  0.01390000  1
  C  C67  1  0.46950000  0.69490000  0.88760000  1
  C  C68  1  0.46890000  0.65430000  0.38270000  1
  C  C69  1  0.46690000  0.22630000  0.75240000  1
  C  C70  1  0.45030000  0.58270000  0.91090000  1
  C  C71  1  0.44430000  0.29220000  0.68370000  1
  C  C72  1  0.42640000  0.78690000  0.24520000  1
  C  C73  1  0.41110000  0.34320000  0.96560000  1
  C  C74  1  0.40430000  0.85670000  0.16860000  1
  C  C75  1  0.39490000  0.23290000  0.99140000  1
  C  C76  1  0.36080000  0.66510000  0.38030000  1
  C  C77  1  0.34030000  0.73290000  0.31200000  1
  C  C78  1  0.33110000  0.31090000  0.68700000  1
  C  C79  1  0.26440000  0.59800000  0.44880000  1
  C  C80  1  0.23560000  0.90200000  0.94880000  1
  C  C81  1  0.16890000  0.18910000  0.18700000  1
  C  C82  1  0.15970000  0.76710000  0.81200000  1
  C  C83  1  0.13920000  0.83490000  0.88030000  1
  C  C84  1  0.10510000  0.26710000  0.49140000  1
  C  C85  1  0.09570000  0.64330000  0.66860000  1
  C  C86  1  0.08890000  0.15680000  0.46560000  1
  C  C87  1  0.07360000  0.71310000  0.74520000  1
  C  C88  1  0.05570000  0.20780000  0.18370000  1
  C  C89  1  0.04970000  0.91730000  0.41090000  1
  C  C90  1  0.03310000  0.27370000  0.25240000  1
  C  C91  1  0.03110000  0.84570000  0.88270000  1
  C  C92  1  0.03050000  0.80510000  0.38760000  1
  C  C93  1  0.01000000  0.06070000  0.51390000  1
  N  N94  1  0.95430000  0.71570000  0.43620000  1
  N  N95  1  0.54570000  0.78430000  0.93620000  1
  N  N96  1  0.45430000  0.21570000  0.06380000  1
  N  N97  1  0.04570000  0.28430000  0.56380000  1
  O  O98  1  0.98630000  0.39730000  0.39114000  1
  O  O99  1  0.93460000  0.60580000  0.41111000  1
  O  O100  1  0.83110000  0.38900000  0.55237000  1
  O  O101  1  0.81570000  0.87360000  0.87515000  1
  O  O102  1  0.80830000  0.36880000  0.33034000  1
  O  O103  1  0.78870000  0.02990000  0.99878000  1
  O  O104  1  0.76140000  0.76630000  0.74630000  1
  O  O105  1  0.73860000  0.73370000  0.24630000  1
  O  O106  1  0.71130000  0.47010000  0.49878000  1
  O  O107  1  0.69170000  0.13120000  0.83034000  1
  O  O108  1  0.68430000  0.62640000  0.37515000  1
  O  O109  1  0.66890000  0.11100000  0.05237000  1
  O  O110  1  0.56540000  0.89420000  0.91111000  1
  O  O111  1  0.51370000  0.10270000  0.89114000  1
  O  O112  1  0.48630000  0.89730000  0.10886000  1
  O  O113  1  0.43460000  0.10580000  0.08889000  1
  O  O114  1  0.33110000  0.88900000  0.94763000  1
  O  O115  1  0.31570000  0.37360000  0.62485000  1
  O  O116  1  0.30830000  0.86880000  0.16966000  1
  O  O117  1  0.28870000  0.52990000  0.50122000  1
  O  O118  1  0.26140000  0.26630000  0.75370000  1
  O  O119  1  0.23860000  0.23370000  0.25370000  1
  O  O120  1  0.21130000  0.97010000  0.00122000  1
  O  O121  1  0.19170000  0.63120000  0.66966000  1
  O  O122  1  0.18430000  0.12640000  0.12485000  1
  O  O123  1  0.16890000  0.61100000  0.44763000  1
  O  O124  1  0.06540000  0.39420000  0.58889000  1
  O  O125  1  0.01370000  0.60270000  0.60886000  1
