# generated using pymatgen
data_CdH14C20(NO)4
_symmetry_space_group_name_H-M   'P 1'
_cell_length_a   7.64100000
_cell_length_b   11.04744866
_cell_length_c   15.24113209
_cell_angle_alpha   110.68980163
_cell_angle_beta   103.73864864
_cell_angle_gamma   92.08361337
_symmetry_Int_Tables_number   1
_chemical_formula_structural   CdH14C20(NO)4
_chemical_formula_sum   'Cd2 H28 C40 N8 O8'
_cell_volume   1158.86450522
_cell_formula_units_Z   2
loop_
 _symmetry_equiv_pos_site_id
 _symmetry_equiv_pos_as_xyz
  1  'x, y, z'
loop_
 _atom_site_type_symbol
 _atom_site_label
 _atom_site_symmetry_multiplicity
 _atom_site_fract_x
 _atom_site_fract_y
 _atom_site_fract_z
 _atom_site_occupancy
  C  C0  1  0.66970000  0.71880000  0.34860000  1
  C  C1  1  0.82110000  0.37020000  0.65140000  1
  C  C2  1  0.69730000  0.64960000  0.20760000  1
  C  C3  1  0.98970000  0.44200000  0.79240000  1
  C  C4  1  0.41300000  0.06170000  0.97480000  1
  C  C5  1  0.93820000  0.08690000  0.02520000  1
  C  C6  1  0.37040000  0.04560000  0.87380000  1
  C  C7  1  0.99660000  0.17180000  0.12620000  1
  C  C8  1  0.96600000  0.14080000  0.95900000  1
  C  C9  1  0.50700000  0.18180000  0.04100000  1
  C  C10  1  0.39970000  0.15350000  0.85000000  1
  C  C11  1  0.04970000  0.30350000  0.15000000  1
  C  C12  1  0.83140000  0.76120000  0.01260000  1
  C  C13  1  0.31880000  0.74860000  0.98740000  1
  C  C14  1  0.17410000  0.93930000  0.32100000  1
  C  C15  1  0.35310000  0.61830000  0.67900000  1
  C  C16  1  0.01350000  0.26980000  0.98180000  1
  C  C17  1  0.53170000  0.28800000  0.01820000  1
  C  C18  1  0.48800000  0.27730000  0.92380000  1
  C  C19  1  0.06420000  0.35350000  0.07620000  1
  C  C20  1  0.13270000  0.04590000  0.40520000  1
  C  C21  1  0.22750000  0.64070000  0.59480000  1
  C  C22  1  0.26110000  0.11540000  0.49280000  1
  C  C23  1  0.26830000  0.62260000  0.50720000  1
  C  C24  1  0.95240000  0.06750000  0.39500000  1
  C  C25  1  0.05740000  0.67250000  0.60500000  1
  C  C26  1  0.38360000  0.95030000  0.09320000  1
  C  C27  1  0.79040000  0.85710000  0.90680000  1
  C  C28  1  0.21120000  0.20860000  0.56720000  1
  C  C29  1  0.14400000  0.64140000  0.43280000  1
  C  C30  1  0.90150000  0.16280000  0.47100000  1
  C  C31  1  0.93050000  0.69180000  0.52900000  1
  C  C32  1  0.53150000  0.39260000  0.89540000  1
  C  C33  1  0.13610000  0.49720000  0.10460000  1
  C  C34  1  0.02810000  0.22620000  0.55600000  1
  C  C35  1  0.97210000  0.67020000  0.44400000  1
  C  C36  1  0.39000000  0.95260000  0.00280000  1
  C  C37  1  0.88720000  0.94980000  0.99720000  1
  C  C38  1  0.97570000  0.32100000  0.64300000  1
  C  C39  1  0.83270000  0.67800000  0.35700000  1
  Cd  Cd40  1  0.30988000  0.74904000  0.19586000  1
  Cd  Cd41  1  0.61402000  0.55318000  0.80414000  1
  H  H42  1  0.32400000  0.96420000  0.82520000  1
  H  H43  1  0.99880000  0.13900000  0.17480000  1
  H  H44  1  0.61840000  0.75410000  0.40020000  1
  H  H45  1  0.71820000  0.35390000  0.59980000  1
  H  H46  1  0.67540000  0.62610000  0.14060000  1
  H  H47  1  0.03480000  0.48550000  0.85940000  1
  H  H48  1  0.95080000  0.08460000  0.89480000  1
  H  H49  1  0.55600000  0.18980000  0.10520000  1
  H  H50  1  0.83050000  0.69710000  0.03900000  1
  H  H51  1  0.29150000  0.65810000  0.96100000  1
  H  H52  1  0.36170000  0.14570000  0.78540000  1
  H  H53  1  0.07630000  0.36030000  0.21460000  1
  H  H54  1  0.01150000  0.30140000  0.93260000  1
  H  H55  1  0.57890000  0.36880000  0.06740000  1
  H  H56  1  0.38120000  0.09890000  0.50120000  1
  H  H57  1  0.38000000  0.59770000  0.49880000  1
  H  H58  1  0.86490000  0.01880000  0.33760000  1
  H  H59  1  0.02730000  0.68120000  0.66240000  1
  H  H60  1  0.95110000  0.92240000  0.12460000  1
  H  H61  1  0.32650000  0.79780000  0.87540000  1
  H  H62  1  0.29830000  0.25920000  0.62420000  1
  H  H63  1  0.17410000  0.63500000  0.37580000  1
  H  H64  1  0.40430000  0.02300000  0.15080000  1
  H  H65  1  0.75350000  0.87220000  0.84920000  1
  H  H66  1  0.78240000  0.18160000  0.46260000  1
  H  H67  1  0.81980000  0.71900000  0.53740000  1
  H  H68  1  0.19320000  0.35220000  0.75560000  1
  H  H69  1  0.93760000  0.59660000  0.24440000  1
  N  N70  1  0.58780000  0.70190000  0.25460000  1
  N  N71  1  0.83320000  0.44730000  0.74540000  1
  N  N72  1  0.34260000  0.82500000  0.08320000  1
  N  N73  1  0.75940000  0.74180000  0.91680000  1
  N  N74  1  0.90340000  0.88700000  0.06280000  1
  N  N75  1  0.34060000  0.82420000  0.93720000  1
  N  N76  1  0.08410000  0.36790000  0.73660000  1
  N  N77  1  0.84750000  0.63130000  0.26340000  1
  O  O78  1  0.18460000  0.53460000  0.04740000  1
  O  O79  1  0.63720000  0.48720000  0.95260000  1
  O  O80  1  0.33660000  0.90420000  0.34440000  1
  O  O81  1  0.49220000  0.55980000  0.65560000  1
  O  O82  1  0.08700000  0.89550000  0.24380000  1
  O  O83  1  0.34320000  0.65170000  0.75620000  1
  O  O84  1  0.45500000  0.37710000  0.80760000  1
  O  O85  1  0.14740000  0.56950000  0.19240000  1
