# generated using pymatgen
data_Zn2H81(C5O)18
_symmetry_space_group_name_H-M   'P 1'
_cell_length_a   18.96770000
_cell_length_b   19.91860000
_cell_length_c   20.32820270
_cell_angle_alpha   119.33566928
_cell_angle_beta   113.24118739
_cell_angle_gamma   90.00000000
_symmetry_Int_Tables_number   1
_chemical_formula_structural   Zn2H81(C5O)18
_chemical_formula_sum   'Zn4 H162 C180 O36'
_cell_volume   5970.14852324
_cell_formula_units_Z   2
loop_
 _symmetry_equiv_pos_site_id
 _symmetry_equiv_pos_as_xyz
  1  'x, y, z'
loop_
 _atom_site_type_symbol
 _atom_site_label
 _atom_site_symmetry_multiplicity
 _atom_site_fract_x
 _atom_site_fract_y
 _atom_site_fract_z
 _atom_site_occupancy
  C  C0  1  0.50000000  0.42790000  0.00000000  1
  C  C1  1  0.50000000  0.28840000  0.00000000  1
  C  C2  1  0.50000000  0.21650000  1.00000000  1
  C  C3  1  0.50000000  0.07920000  1.00000000  1
  C  C4  1  0.60460000  0.17280000  0.21540000  1
  C  C5  1  0.30450000  0.14830000  0.62180000  1
  C  C6  1  0.38990000  0.35720000  0.79620000  1
  C  C7  1  0.70520000  0.60490000  0.43040000  1
  C  C8  1  0.37550000  0.69460000  0.77840000  1
  C  C9  1  0.33970000  0.89090000  0.70920000  1
  C  C10  1  0.40290000  0.77350000  0.84640000  1
  C  C11  1  0.44280000  0.07430000  0.93140000  1
  C  C12  1  0.44100000  0.14360000  0.93000000  1
  C  C13  1  0.44060000  0.35990000  0.93340000  1
  C  C14  1  0.43930000  0.28630000  0.93260000  1
  C  C15  1  0.10940000  0.81350000  0.27960000  1
  C  C16  1  0.33380000  0.36520000  0.73680000  1
  C  C17  1  0.38500000  0.00200000  0.85640000  1
  C  C18  1  0.51530000  0.94170000  0.11840000  1
  C  C19  1  0.81140000  0.55670000  0.71080000  1
  C  C20  1  0.62990000  0.47270000  0.35040000  1
  C  C21  1  0.38390000  0.15180000  0.86360000  1
  C  C22  1  0.81000000  0.63780000  0.71680000  1
  C  C23  1  0.38180000  0.21650000  0.86240000  1
  C  C24  1  0.63380000  0.06340000  0.37120000  1
  C  C25  1  0.37660000  0.36460000  0.86380000  1
  C  C26  1  0.57310000  0.92470000  0.26400000  1
  C  C27  1  0.26840000  0.56270000  0.66820000  1
  C  C28  1  0.53340000  0.54660000  0.20540000  1
  C  C29  1  0.30080000  0.65220000  0.74820000  1
  C  C30  1  0.27950000  0.85950000  0.71040000  1
  C  C31  1  0.53080000  0.20450000  0.21340000  1
  C  C32  1  0.64770000  0.63560000  0.45640000  1
  C  C33  1  0.63750000  0.13280000  0.43680000  1
  C  C34  1  0.74870000  0.39890000  0.66200000  1
  C  C35  1  0.35640000  0.80460000  0.88580000  1
  C  C36  1  0.57863333  0.99293333  0.33326667  1
  C  C37  1  0.71630000  0.43270000  0.61340000  1
  C  C38  1  0.66110000  0.72430000  0.51980000  1
  C  C39  1  0.51380000  0.85580000  0.22900000  1
  C  C40  1  0.88190000  0.44530000  0.96840000  1
  C  C41  1  0.26010000  0.37330000  0.73520000  1
  C  C42  1  0.31850000  0.96520000  0.85560000  1
  C  C43  1  0.73510000  0.29300000  0.69340000  1
  C  C44  1  0.70720000  0.32900000  0.63900000  1
  C  C45  1  0.57090000  0.49440000  0.37300000  1
  C  C46  1  0.64540000  0.38810000  0.53700000  1
  C  C47  1  0.26730000  0.89740000  0.78280000  1
  C  C48  1  0.30530000  0.37790000  0.86560000  1
  C  C49  1  0.17750000  0.16490000  0.61060000  1
  C  C50  1  0.84680000  0.51050000  0.95160000  1
  C  C51  1  0.12890000  0.11060000  0.51980000  1
  C  C52  1  0.58040000  0.57500000  0.42520000  1
  C  C53  1  0.25450000  0.68810000  0.78740000  1
  C  C54  1  0.28690000  0.76430000  0.85720000  1
  C  C55  1  0.63450000  0.29000000  0.56600000  1
  C  C56  1  0.12660000  0.67220000  0.55480000  1
  C  C57  1  0.16690000  0.74930000  0.63720000  1
  C  C58  1  0.58190000  0.13760000  0.47100000  1
  C  C59  1  0.24420000  0.38170000  0.79860000  1
  C  C60  1  0.60220000  0.32100000  0.51460000  1
  C  C61  1  0.52400000  0.99480000  0.36720000  1
  C  C62  1  0.30820000  0.01310000  0.93920000  1
  C  C63  1  0.49690000  0.74850000  0.31800000  1
  C  C64  1  0.85500000  0.58390000  0.03460000  1
  C  C65  1  0.45940000  0.85500000  0.25740000  1
  C  C66  1  0.50070000  0.43920000  0.34540000  1
  C  C67  1  0.87040000  0.92370000  0.09080000  1
  C  C68  1  0.28590000  0.38360000  0.93640000  1
  C  C69  1  0.58310000  0.20970000  0.53860000  1
  C  C70  1  0.52850000  0.07290000  0.43920000  1
  C  C71  1  0.52470000  0.28180000  0.43640000  1
  C  C72  1  0.58570000  0.57140000  0.56960000  1
  C  C73  1  0.12550000  0.16460000  0.65120000  1
  C  C74  1  0.46520000  0.92790000  0.33060000  1
  C  C75  1  0.41800000  0.73100000  0.24380000  1
  C  C76  1  0.12510000  0.36940000  0.65900000  1
  C  C77  1  0.73310000  0.57780000  0.88160000  1
  C  C78  1  0.40090000  0.78490000  0.21980000  1
  C  C79  1  0.52170000  0.60730000  0.46240000  1
  C  C80  1  0.85370000  0.82370000  0.12660000  1
  C  C81  1  0.06910000  0.34890000  0.56780000  1
  C  C82  1  0.71040000  0.50290000  0.85380000  1
  C  C83  1  0.10450000  0.78150000  0.64300000  1
  C  C84  1  0.58970000  0.56750000  0.63400000  1
  C  C85  1  0.83910000  0.90130000  0.13800000  1
  C  C86  1  0.52730000  0.59950000  0.52920000  1
  C  C87  1  0.69510000  0.70230000  0.87240000  1
  C  C88  1  0.36020000  0.66720000  0.20660000  1
  C  C89  1  0.11650000  0.45320000  0.72020000  1
  C  C90  1  0.46810000  0.64140000  0.42900000  1
  C  C91  1  0.67440000  0.61320000  0.84400000  1
  C  C92  1  0.32560000  0.76920000  0.15600000  1
  C  C93  1  0.53190000  0.21240000  0.57100000  1
  C  C94  1  0.88350000  0.73300000  0.27980000  1
  C  C95  1  0.63980000  0.46060000  0.79340000  1
  C  C96  1  0.30490000  0.82990000  0.12760000  1
  C  C97  1  0.47270000  0.07030000  0.47080000  1
  C  C98  1  0.16090000  0.76330000  0.86200000  1
  C  C99  1  0.41030000  0.93350000  0.36600000  1
  C  C100  1  0.89550000  0.13850000  0.35700000  1
  C  C101  1  0.28960000  0.64910000  0.14620000  1
  C  C102  1  0.93090000  0.78110000  0.43220000  1
  C  C103  1  0.14630000  0.69710000  0.87340000  1
  C  C104  1  0.47830000  0.14490000  0.53760000  1
  C  C105  1  0.59910000  0.56510000  0.78020000  1
  C  C106  1  0.26690000  0.69620000  0.11840000  1
  C  C107  1  0.87490000  0.71040000  0.34100000  1
  C  C108  1  0.58200000  0.48720000  0.75620000  1
  C  C109  1  0.53480000  0.59730000  0.66940000  1
  C  C110  1  0.87450000  0.51340000  0.34880000  1
  C  C111  1  0.41430000  0.00180000  0.43040000  1
  C  C112  1  0.47530000  0.84540000  0.56360000  1
  C  C113  1  0.47150000  0.63370000  0.56080000  1
  C  C114  1  0.41690000  0.67110000  0.46140000  1
  C  C115  1  0.71410000  0.44720000  0.06360000  1
  C  C116  1  0.12960000  0.83290000  0.90920000  1
  C  C117  1  0.49930000  0.09380000  0.65460000  1
  C  C118  1  0.54060000  0.59760000  0.74260000  1
  C  C119  1  0.14500000  0.54930000  0.96540000  1
  C  C120  1  0.50310000  0.43050000  0.68200000  1
  C  C121  1  0.69180000  0.07390000  0.06080000  1
  C  C122  1  0.47600000  0.62760000  0.63280000  1
  C  C123  1  0.75580000  0.58310000  0.20140000  1
  C  C124  1  0.39780000  0.80640000  0.48540000  1
  C  C125  1  0.41810000  0.66660000  0.52900000  1
  C  C126  1  0.83310000  0.11210000  0.36280000  1
  C  C127  1  0.87340000  0.11740000  0.44520000  1
  C  C128  1  0.36550000  0.72400000  0.43400000  1
  C  C129  1  0.71310000  0.90710000  0.14280000  1
  C  C130  1  0.74550000  0.90070000  0.21260000  1
  C  C131  1  0.41960000  0.14980000  0.57480000  1
  C  C132  1  0.87110000  0.59080000  0.48020000  1
  C  C133  1  0.15320000  0.55890000  0.04840000  1
  C  C134  1  0.82250000  0.55430000  0.38940000  1
  C  C135  1  0.69470000  0.51230000  0.13440000  1
  C  C136  1  0.73270000  0.11460000  0.21720000  1
  C  C137  1  0.35460000  0.85110000  0.46300000  1
  C  C138  1  0.42910000  0.12140000  0.62700000  1
  C  C139  1  0.29280000  0.69000000  0.36100000  1
  C  C140  1  0.26490000  0.59960000  0.30660000  1
  C  C141  1  0.68150000  0.10960000  0.14440000  1
  C  C142  1  0.73990000  0.63810000  0.26480000  1
  C  C143  1  0.11810000  0.47690000  0.03160000  1
  C  C144  1  0.48620000  0.62680000  0.77100000  1
  C  C145  1  0.33890000  0.20450000  0.48020000  1
  C  C146  1  0.28370000  0.81930000  0.38660000  1
  C  C147  1  0.42140000  0.65970000  0.66680000  1
  C  C148  1  0.64360000  0.91880000  0.11420000  1
  C  C149  1  0.25130000  0.73690000  0.33800000  1
  C  C150  1  0.36250000  0.69600000  0.56320000  1
  C  C151  1  0.35230000  0.17920000  0.54360000  1
  C  C152  1  0.46920000  0.99110000  0.78660000  1
  C  C153  1  0.72050000  0.14910000  0.28960000  1
  C  C154  1  0.69920000  0.90400000  0.25180000  1
  C  C155  1  0.46660000  0.34120000  0.79460000  1
  C  C156  1  0.73160000  0.89450000  0.33180000  1
  C  C157  1  0.42690000  0.66070000  0.73600000  1
  C  C158  1  0.62340000  0.50080000  0.13620000  1
  C  C159  1  0.36620000  0.69220000  0.62880000  1
  C  C160  1  0.61820000  0.35410000  0.13760000  1
  C  C161  1  0.19000000  0.92100000  0.28320000  1
  C  C162  1  0.61610000  0.28820000  0.13640000  1
  C  C163  1  0.37010000  0.12230000  0.64960000  1
  C  C164  1  0.18860000  0.84590000  0.28920000  1
  C  C165  1  0.48470000  0.82330000  0.88160000  1
  C  C166  1  0.61500000  0.14560000  0.14360000  1
  C  C167  1  0.66620000  0.62840000  0.26320000  1
  C  C168  1  0.89060000  0.53390000  0.72040000  1
  C  C169  1  0.56070000  0.35370000  0.06740000  1
  C  C170  1  0.55940000  0.42650000  0.06660000  1
  C  C171  1  0.55900000  0.21360000  0.07000000  1
  C  C172  1  0.55720000  0.14290000  0.06860000  1
  C  C173  1  0.59710000  0.92710000  0.15360000  1
  C  C174  1  0.66030000  0.18170000  0.29080000  1
  C  C175  1  0.62450000  0.91620000  0.22160000  1
  C  C176  1  0.29480000  0.17450000  0.56960000  1
  C  C177  1  0.61010000  0.56100000  0.20380000  1
  C  C178  1  0.69550000  0.52650000  0.37820000  1
  C  C179  1  0.39540000  0.95740000  0.78460000  1
  H  H180  1  0.50000000  0.47460000  0.00000000  1
  H  H181  1  0.50000000  0.03260000  1.00000000  1
  H  H182  1  0.34420000  0.36560000  0.69600000  1
  H  H183  1  0.66960000  0.06230000  0.35020000  1
  H  H184  1  0.65490000  0.20980000  0.34020000  1
  H  H185  1  0.81890000  0.63520000  0.67240000  1
  H  H186  1  0.31220000  0.54150000  0.66100000  1
  H  H187  1  0.24870000  0.19020000  0.55040000  1
  H  H188  1  0.51250000  0.96060000  0.08240000  1
  H  H189  1  0.62520000  0.41910000  0.31440000  1
  H  H190  1  0.85090000  0.67900000  0.77060000  1
  H  H191  1  0.67580000  0.17780000  0.46040000  1
  H  H192  1  0.79780000  0.42400000  0.70920000  1
  H  H193  1  0.91120000  0.42240000  0.93700000  1
  H  H194  1  0.34500000  0.10660000  0.81740000  1
  H  H195  1  0.34340000  0.21660000  0.81660000  1
  H  H196  1  0.47590000  0.89310000  0.08660000  1
  H  H197  1  0.54330000  0.26040000  0.23580000  1
  H  H198  1  0.23370000  0.56190000  0.61820000  1
  H  H199  1  0.51970000  0.49300000  0.19060000  1
  H  H200  1  0.67370000  0.75460000  0.49920000  1
  H  H201  1  0.50620000  0.98070000  0.16440000  1
  H  H202  1  0.79780000  0.55720000  0.75280000  1
  H  H203  1  0.51230000  0.80840000  0.18380000  1
  H  H204  1  0.78750000  0.32250000  0.73820000  1
  H  H205  1  0.70410000  0.73950000  0.57340000  1
  H  H206  1  0.48980000  0.17750000  0.15620000  1
  H  H207  1  0.49260000  0.55510000  0.16560000  1
  H  H208  1  0.87270000  0.52540000  0.92580000  1
  H  H209  1  0.37540000  0.85560000  0.93400000  1
  H  H210  1  0.53880000  0.58260000  0.26120000  1
  H  H211  1  0.73560000  0.23870000  0.65900000  1
  H  H212  1  0.75960000  0.64930000  0.71140000  1
  H  H213  1  0.91640000  0.46950000  0.02780000  1
  H  H214  1  0.24000000  0.53090000  0.67740000  1
  H  H215  1  0.51310000  0.19540000  0.24720000  1
  H  H216  1  0.53910000  0.75000000  0.30360000  1
  H  H217  1  0.19250000  0.21840000  0.62300000  1
  H  H218  1  0.15750000  0.63410000  0.55540000  1
  H  H219  1  0.62820000  0.40670000  0.50080000  1
  H  H220  1  0.92490000  0.92160000  0.10740000  1
  H  H221  1  0.12110000  0.67930000  0.50980000  1
  H  H222  1  0.83960000  0.40470000  0.95100000  1
  H  H223  1  0.35350000  0.01730000  0.98580000  1
  H  H224  1  0.61400000  0.73410000  0.52620000  1
  H  H225  1  0.19210000  0.73950000  0.68300000  1
  H  H226  1  0.62320000  0.55460000  0.55020000  1
  H  H227  1  0.49470000  0.38880000  0.29760000  1
  H  H228  1  0.33160000  0.38140000  0.97780000  1
  H  H229  1  0.69980000  0.29520000  0.71720000  1
  H  H230  1  0.22290000  0.87560000  0.78120000  1
  H  H231  1  0.49620000  0.70750000  0.33000000  1
  H  H232  1  0.30360000  0.06530000  0.95060000  1
  H  H233  1  0.52600000  0.22950000  0.39720000  1
  H  H234  1  0.84000000  0.88720000  0.03100000  1
  H  H235  1  0.78400000  0.60750000  0.92340000  1
  H  H236  1  0.50490000  0.79880000  0.36700000  1
  H  H237  1  0.20340000  0.66170000  0.76760000  1
  H  H238  1  0.07900000  0.30340000  0.52740000  1
  H  H239  1  0.86590000  0.97650000  0.10440000  1
  H  H240  1  0.50580000  0.43280000  0.39080000  1
  H  H241  1  0.51530000  0.31270000  0.41080000  1
  H  H242  1  0.75030000  0.71860000  0.88980000  1
  H  H243  1  0.15790000  0.18590000  0.71040000  1
  H  H244  1  0.07530000  0.65350000  0.54640000  1
  H  H245  1  0.62780000  0.54550000  0.65680000  1
  H  H246  1  0.07890000  0.39320000  0.56300000  1
  H  H247  1  0.19570000  0.38960000  0.79820000  1
  H  H248  1  0.26140000  0.98580000  0.93180000  1
  H  H249  1  0.45520000  0.45960000  0.32980000  1
  H  H250  1  0.27170000  0.43280000  0.96320000  1
  H  H251  1  0.24260000  0.34010000  0.91140000  1
  H  H252  1  0.09710000  0.11120000  0.62460000  1
  H  H253  1  0.11100000  0.32920000  0.66900000  1
  H  H254  1  0.31660000  0.81590000  0.08140000  1
  H  H255  1  0.46650000  0.64430000  0.38420000  1
  H  H256  1  0.08870000  0.19660000  0.64440000  1
  H  H257  1  0.86470000  0.94270000  0.19840000  1
  H  H258  1  0.98480000  0.78050000  0.44300000  1
  H  H259  1  0.37150000  0.63260000  0.22560000  1
  H  H260  1  0.48310000  0.27820000  0.45100000  1
  H  H261  1  0.66420000  0.70810000  0.82580000  1
  H  H262  1  0.33580000  0.88230000  0.17420000  1
  H  H263  1  0.51690000  0.82720000  0.54900000  1
  H  H264  1  0.62850000  0.40700000  0.77440000  1
  H  H265  1  0.01520000  0.33750000  0.55700000  1
  H  H266  1  0.13530000  0.74430000  0.80160000  1
  H  H267  1  0.91130000  0.55220000  0.35560000  1
  H  H268  1  0.53350000  0.26010000  0.61580000  1
  H  H269  1  0.68340000  0.73450000  0.91860000  1
  H  H270  1  0.88900000  0.66020000  0.33100000  1
  H  H271  1  0.90290000  0.48660000  0.37540000  1
  H  H272  1  0.75740000  0.42870000  0.08860000  1
  H  H273  1  0.72830000  0.46960000  0.03680000  1
  H  H274  1  0.54480000  0.12980000  0.67020000  1
  H  H275  1  0.73860000  0.05400000  0.06820000  1
  H  H276  1  0.80430000  0.59140000  0.20180000  1
  H  H277  1  0.92110000  0.83020000  0.43700000  1
  H  H278  1  0.37220000  0.88870000  0.34320000  1
  H  H279  1  0.92470000  0.10710000  0.45360000  1
  H  H280  1  0.84210000  0.47550000  0.28960000  1
  H  H281  1  0.24970000  0.82880000  0.11020000  1
  H  H282  1  0.48470000  0.90190000  0.58920000  1
  H  H283  1  0.49420000  0.04200000  0.60920000  1
  H  H284  1  0.13410000  0.87210000  0.89560000  1
  H  H285  1  0.92100000  0.77600000  0.47260000  1
  H  H286  1  0.79660000  0.89410000  0.23240000  1
  H  H287  1  0.49510000  0.43180000  0.63300000  1
  H  H288  1  0.21600000  0.68410000  0.07660000  1
  H  H289  1  0.16000000  0.85620000  0.96900000  1
  H  H290  1  0.47400000  0.83230000  0.60280000  1
  H  H291  1  0.69640000  0.11470000  0.04940000  1
  H  H292  1  0.50380000  0.37750000  0.67000000  1
  H  H293  1  0.77710000  0.09440000  0.21880000  1
  H  H294  1  0.30020000  0.57800000  0.28280000  1
  H  H295  1  0.66840000  0.40360000  0.02220000  1
  H  H296  1  0.50530000  0.09120000  0.70240000  1
  H  H297  1  0.37680000  0.00440000  0.44980000  1
  H  H298  1  0.80790000  0.05650000  0.31700000  1
  H  H299  1  0.38600000  0.20790000  0.47380000  1
  H  H300  1  0.64650000  0.03150000  0.01420000  1
  H  H301  1  0.16040000  0.45370000  0.04900000  1
  H  H302  1  0.87890000  0.16950000  0.49020000  1
  H  H303  1  0.07510000  0.81420000  0.89260000  1
  H  H304  1  0.37180000  0.90590000  0.49920000  1
  H  H305  1  0.84250000  0.07870000  0.44460000  1
  H  H306  1  0.80750000  0.59540000  0.37700000  1
  H  H307  1  0.46090000  0.44640000  0.69640000  1
  H  H308  1  0.48690000  0.94820000  0.75280000  1
  H  H309  1  0.76000000  0.85350000  0.32260000  1
  H  H310  1  0.08360000  0.44170000  0.97220000  1
  H  H311  1  0.24040000  0.93790000  0.28860000  1
  H  H312  1  0.26440000  0.57970000  0.34100000  1
  H  H313  1  0.46120000  0.32140000  0.73880000  1
  H  H314  1  0.62460000  0.92160000  0.06600000  1
  H  H315  1  0.50740000  0.38950000  0.83440000  1
  H  H316  1  0.12730000  0.59960000  0.07420000  1
  H  H317  1  0.51020000  0.02130000  0.84380000  1
  H  H318  1  0.29590000  0.16610000  0.42660000  1
  H  H319  1  0.21250000  0.58430000  0.26180000  1
  H  H320  1  0.48770000  0.62460000  0.81620000  1
  H  H321  1  0.20220000  0.80440000  0.24720000  1
  H  H322  1  0.49380000  0.81630000  0.83560000  1
  H  H323  1  0.32630000  0.25540000  0.50080000  1
  H  H324  1  0.48030000  0.30240000  0.80940000  1
  H  H325  1  0.76630000  0.94370000  0.38180000  1
  H  H326  1  0.45670000  0.02460000  0.76420000  1
  H  H327  1  0.52410000  0.80650000  0.91340000  1
  H  H328  1  0.65660000  0.40000000  0.18340000  1
  H  H329  1  0.65500000  0.28920000  0.18260000  1
  H  H330  1  0.08880000  0.48540000  0.06300000  1
  H  H331  1  0.20220000  0.71480000  0.29080000  1
  H  H332  1  0.32420000  0.71740000  0.53960000  1
  H  H333  1  0.14910000  0.90840000  0.22940000  1
  H  H334  1  0.37480000  0.10470000  0.68560000  1
  H  H335  1  0.48750000  0.87820000  0.91760000  1
  H  H336  1  0.75130000  0.63980000  0.44960000  1
  H  H337  1  0.68780000  0.88050000  0.33900000  1
  H  H338  1  0.18110000  0.96280000  0.32760000  1
  H  H339  1  0.34510000  0.86960000  0.65980000  1
  H  H340  1  0.33040000  0.71210000  0.64980000  1
  H  H341  1  0.65580000  0.66960000  0.30400000  1
  O  O342  1  0.06680000  0.76300000  0.20860000  1
  O  O343  1  0.75300000  0.49890000  0.62740000  1
  O  O344  1  0.09350000  0.84530000  0.33540000  1
  O  O345  1  0.24820000  0.14120000  0.64840000  1
  O  O346  1  0.22340000  0.79320000  0.63720000  1
  O  O347  1  0.12960000  0.04300000  0.48520000  1
  O  O348  1  0.91790000  0.63590000  0.07020000  1
  O  O349  1  0.20780000  0.37520000  0.66600000  1
  O  O350  1  0.08700000  0.14100000  0.47080000  1
  O  O351  1  0.92240000  0.82960000  0.17920000  1
  O  O352  1  0.76480000  0.46720000  0.89120000  1
  O  O353  1  0.94060000  0.71200000  0.26160000  1
  O  O354  1  0.24139000  0.80009000  0.89838000  1
  O  O355  1  0.17010000  0.51560000  0.75760000  1
  O  O356  1  0.93840000  0.09990000  0.30780000  1
  O  O357  1  0.80950000  0.58630000  0.06300000  1
  O  O358  1  0.08580000  0.83990000  0.62760000  1
  O  O359  1  0.79880000  0.76590000  0.07440000  1
  O  O360  1  0.20120000  0.69150000  0.92560000  1
  O  O361  1  0.91420000  0.21230000  0.37240000  1
  O  O362  1  0.19050000  0.52330000  0.93700000  1
  O  O363  1  0.06160000  0.79210000  0.69220000  1
  O  O364  1  0.82990000  0.75800000  0.24240000  1
  O  O365  1  0.75861000  0.90171000  0.10162000  1
  O  O366  1  0.05940000  0.45040000  0.73840000  1
  O  O367  1  0.23520000  0.57600000  0.10880000  1
  O  O368  1  0.07760000  0.65040000  0.82080000  1
  O  O369  1  0.91300000  0.67020000  0.52920000  1
  O  O370  1  0.79220000  0.70920000  0.33400000  1
  O  O371  1  0.08210000  0.56570000  0.92980000  1
  O  O372  1  0.87040000  0.55780000  0.51480000  1
  O  O373  1  0.77660000  0.15600000  0.36280000  1
  O  O374  1  0.75180000  0.49280000  0.35160000  1
  O  O375  1  0.90650000  0.50990000  0.66460000  1
  O  O376  1  0.24700000  0.87150000  0.37260000  1
  O  O377  1  0.93320000  0.55440000  0.79140000  1
  Zn  Zn378  1  0.94969000  0.73253000  0.18300000  1
  Zn  Zn379  1  0.03088000  0.08588000  0.34956000  1
  Zn  Zn380  1  0.96912000  0.73632000  0.65044000  1
  Zn  Zn381  1  0.05031000  0.54953000  0.81700000  1
