# generated using pymatgen
data_PrH4C5O6
_symmetry_space_group_name_H-M   'P 1'
_cell_length_a   9.16310000
_cell_length_b   9.16310000
_cell_length_c   14.82130900
_cell_angle_alpha   100.01905102
_cell_angle_beta   100.02005102
_cell_angle_gamma   115.92300000
_symmetry_Int_Tables_number   1
_chemical_formula_structural   PrH4C5O6
_chemical_formula_sum   'Pr4 H16 C20 O24'
_cell_volume   1057.31482585
_cell_formula_units_Z   4
loop_
 _symmetry_equiv_pos_site_id
 _symmetry_equiv_pos_as_xyz
  1  'x, y, z'
loop_
 _atom_site_type_symbol
 _atom_site_label
 _atom_site_symmetry_multiplicity
 _atom_site_fract_x
 _atom_site_fract_y
 _atom_site_fract_z
 _atom_site_occupancy
  Pr  Pr0  1  0.74054000  0.49054000  0.48108000  1
  Pr  Pr1  1  0.50946000  0.25946000  0.01892000  1
  Pr  Pr2  1  0.49054000  0.74054000  0.98108000  1
  Pr  Pr3  1  0.25946000  0.50946000  0.51892000  1
  H  H4  1  0.06190000  0.15850000  0.96960000  1
  H  H5  1  0.02170000  0.13670000  0.85980000  1
  H  H6  1  0.86330000  0.97830000  0.64020000  1
  H  H7  1  0.90770000  0.31110000  0.96960000  1
  H  H8  1  0.83810000  0.22310000  0.85980000  1
  H  H9  1  0.84150000  0.93810000  0.53040000  1
  H  H10  1  0.31110000  0.90770000  0.46960000  1
  H  H11  1  0.22310000  0.83810000  0.35980000  1
  H  H12  1  0.77690000  0.16190000  0.64020000  1
  H  H13  1  0.68890000  0.09230000  0.53040000  1
  H  H14  1  0.15850000  0.06190000  0.46960000  1
  H  H15  1  0.16190000  0.77690000  0.14020000  1
  H  H16  1  0.09230000  0.68890000  0.03040000  1
  H  H17  1  0.13670000  0.02170000  0.35980000  1
  H  H18  1  0.97830000  0.86330000  0.14020000  1
  H  H19  1  0.93810000  0.84150000  0.03040000  1
  C  C20  1  0.67510000  0.32490000  0.25000000  1
  C  C21  1  0.74437000  0.06117000  0.93754000  1
  C  C22  1  0.57490000  0.42510000  0.25000000  1
  C  C23  1  0.62363000  0.80683000  0.56246000  1
  C  C24  1  0.03860000  0.20980000  0.92100000  1
  C  C25  1  0.88240000  0.21120000  0.92100000  1
  C  C26  1  0.06117000  0.74437000  0.43754000  1
  C  C27  1  0.79020000  0.96140000  0.57900000  1
  C  C28  1  0.19317000  0.37637000  0.93754000  1
  C  C29  1  0.21120000  0.88240000  0.42100000  1
  C  C30  1  0.78880000  0.11760000  0.57900000  1
  C  C31  1  0.80683000  0.62363000  0.06246000  1
  C  C32  1  0.20980000  0.03860000  0.42100000  1
  C  C33  1  0.93883000  0.25563000  0.56246000  1
  C  C34  1  0.11760000  0.78880000  0.07900000  1
  C  C35  1  0.96140000  0.79020000  0.07900000  1
  C  C36  1  0.37637000  0.19317000  0.43754000  1
  C  C37  1  0.42510000  0.57490000  0.75000000  1
  C  C38  1  0.25563000  0.93883000  0.06246000  1
  C  C39  1  0.32490000  0.67510000  0.75000000  1
  O  O40  1  0.26189000  0.08101000  0.07970000  1
  O  O41  1  0.76202000  0.33966000  0.32948000  1
  O  O42  1  0.66034000  0.23798000  0.17052000  1
  O  O43  1  0.63273000  0.08199000  0.96712000  1
  O  O44  1  0.61487000  0.66561000  0.53288000  1
  O  O45  1  0.56746000  0.48982000  0.32948000  1
  O  O46  1  0.08199000  0.63273000  0.46712000  1
  O  O47  1  0.49869000  0.81781000  0.57970000  1
  O  O48  1  0.51018000  0.43254000  0.17052000  1
  O  O49  1  0.91899000  0.73811000  0.42030000  1
  O  O50  1  0.33439000  0.38513000  0.96712000  1
  O  O51  1  0.81781000  0.49869000  0.07970000  1
  O  O52  1  0.18219000  0.50131000  0.92030000  1
  O  O53  1  0.66561000  0.61487000  0.03288000  1
  O  O54  1  0.08101000  0.26189000  0.57970000  1
  O  O55  1  0.48982000  0.56746000  0.82948000  1
  O  O56  1  0.50131000  0.18219000  0.42030000  1
  O  O57  1  0.91801000  0.36727000  0.53288000  1
  O  O58  1  0.43254000  0.51018000  0.67052000  1
  O  O59  1  0.38513000  0.33439000  0.46712000  1
  O  O60  1  0.36727000  0.91801000  0.03288000  1
  O  O61  1  0.33966000  0.76202000  0.82948000  1
  O  O62  1  0.23798000  0.66034000  0.67052000  1
  O  O63  1  0.73811000  0.91899000  0.92030000  1
