# generated using pymatgen
data_CoH16(C4N)4
_symmetry_space_group_name_H-M   'P 1'
_cell_length_a   7.16350000
_cell_length_b   18.60700000
_cell_length_c   18.60700000
_cell_angle_alpha   90.00000000
_cell_angle_beta   90.00000000
_cell_angle_gamma   90.00000000
_symmetry_Int_Tables_number   1
_chemical_formula_structural   CoH16(C4N)4
_chemical_formula_sum   'Co4 H64 C64 N16'
_cell_volume   2480.15018641
_cell_formula_units_Z   4
loop_
 _symmetry_equiv_pos_site_id
 _symmetry_equiv_pos_as_xyz
  1  'x, y, z'
loop_
 _atom_site_type_symbol
 _atom_site_label
 _atom_site_symmetry_multiplicity
 _atom_site_fract_x
 _atom_site_fract_y
 _atom_site_fract_z
 _atom_site_occupancy
  Co  Co0  1  0.25000000  0.25000000  0.75000000  1
  Co  Co1  1  0.25000000  0.75000000  0.25000000  1
  Co  Co2  1  0.75000000  0.25000000  0.75000000  1
  Co  Co3  1  0.75000000  0.75000000  0.25000000  1
  H  H4  1  0.08370000  0.17840000  0.89180000  1
  H  H5  1  0.08370000  0.32160000  0.60820000  1
  H  H6  1  0.08370000  0.60820000  0.32160000  1
  H  H7  1  0.08370000  0.89180000  0.17840000  1
  H  H8  1  0.18360000  0.14840000  0.96270000  1
  H  H9  1  0.18360000  0.35160000  0.53730000  1
  H  H10  1  0.18360000  0.53730000  0.35160000  1
  H  H11  1  0.18360000  0.96270000  0.14840000  1
  H  H12  1  0.20710000  0.23100000  0.94050000  1
  H  H13  1  0.20710000  0.26900000  0.55950000  1
  H  H14  1  0.20710000  0.55950000  0.26900000  1
  H  H15  1  0.20710000  0.94050000  0.23100000  1
  H  H16  1  0.22930000  0.02360000  0.93770000  1
  H  H17  1  0.22930000  0.47640000  0.56230000  1
  H  H18  1  0.22930000  0.56230000  0.47640000  1
  H  H19  1  0.22930000  0.93770000  0.02360000  1
  H  H20  1  0.27070000  0.06230000  0.52360000  1
  H  H21  1  0.27070000  0.43770000  0.97640000  1
  H  H22  1  0.27070000  0.52360000  0.06230000  1
  H  H23  1  0.27070000  0.97640000  0.43770000  1
  H  H24  1  0.29290000  0.05950000  0.73100000  1
  H  H25  1  0.29290000  0.44050000  0.76900000  1
  H  H26  1  0.29290000  0.73100000  0.05950000  1
  H  H27  1  0.29290000  0.76900000  0.44050000  1
  H  H28  1  0.31640000  0.03730000  0.64840000  1
  H  H29  1  0.31640000  0.46270000  0.85160000  1
  H  H30  1  0.31640000  0.64840000  0.03730000  1
  H  H31  1  0.31640000  0.85160000  0.46270000  1
  H  H32  1  0.41630000  0.10820000  0.67840000  1
  H  H33  1  0.41630000  0.39180000  0.82160000  1
  H  H34  1  0.41630000  0.67840000  0.10820000  1
  H  H35  1  0.41630000  0.82160000  0.39180000  1
  H  H36  1  0.58370000  0.17840000  0.60820000  1
  H  H37  1  0.58370000  0.32160000  0.89180000  1
  H  H38  1  0.58370000  0.60820000  0.17840000  1
  H  H39  1  0.58370000  0.89180000  0.32160000  1
  H  H40  1  0.68360000  0.14840000  0.53730000  1
  H  H41  1  0.68360000  0.35160000  0.96270000  1
  H  H42  1  0.68360000  0.53730000  0.14840000  1
  H  H43  1  0.68360000  0.96270000  0.35160000  1
  H  H44  1  0.70710000  0.23100000  0.55950000  1
  H  H45  1  0.70710000  0.26900000  0.94050000  1
  H  H46  1  0.70710000  0.55950000  0.23100000  1
  H  H47  1  0.70710000  0.94050000  0.26900000  1
  H  H48  1  0.72930000  0.02360000  0.56230000  1
  H  H49  1  0.72930000  0.47640000  0.93770000  1
  H  H50  1  0.72930000  0.56230000  0.02360000  1
  H  H51  1  0.72930000  0.93770000  0.47640000  1
  H  H52  1  0.77070000  0.06230000  0.97640000  1
  H  H53  1  0.77070000  0.43770000  0.52360000  1
  H  H54  1  0.77070000  0.52360000  0.43770000  1
  H  H55  1  0.77070000  0.97640000  0.06230000  1
  H  H56  1  0.79290000  0.05950000  0.76900000  1
  H  H57  1  0.79290000  0.44050000  0.73100000  1
  H  H58  1  0.79290000  0.73100000  0.44050000  1
  H  H59  1  0.79290000  0.76900000  0.05950000  1
  H  H60  1  0.81640000  0.03730000  0.85160000  1
  H  H61  1  0.81640000  0.46270000  0.64840000  1
  H  H62  1  0.81640000  0.64840000  0.46270000  1
  H  H63  1  0.81640000  0.85160000  0.03730000  1
  H  H64  1  0.91630000  0.10820000  0.82160000  1
  H  H65  1  0.91630000  0.39180000  0.67840000  1
  H  H66  1  0.91630000  0.67840000  0.39180000  1
  H  H67  1  0.91630000  0.82160000  0.10820000  1
  C  C68  1  0.00000000  0.39010000  0.89010000  1
  C  C69  1  0.13160000  0.12210000  0.66260000  1
  C  C70  1  0.13160000  0.37790000  0.83740000  1
  C  C71  1  0.13160000  0.66260000  0.12210000  1
  C  C72  1  0.13160000  0.83740000  0.37790000  1
  C  C73  1  0.15840000  0.03680000  0.51420000  1
  C  C74  1  0.15840000  0.46320000  0.98580000  1
  C  C75  1  0.15840000  0.51420000  0.03680000  1
  C  C76  1  0.15840000  0.98580000  0.46320000  1
  C  C77  1  0.19510000  0.18180000  0.92220000  1
  C  C78  1  0.19510000  0.31820000  0.57780000  1
  C  C79  1  0.19510000  0.57780000  0.31820000  1
  C  C80  1  0.19510000  0.92220000  0.18180000  1
  C  C81  1  0.30490000  0.07780000  0.68180000  1
  C  C82  1  0.30490000  0.42220000  0.81820000  1
  C  C83  1  0.30490000  0.68180000  0.07780000  1
  C  C84  1  0.30490000  0.81820000  0.42220000  1
  C  C85  1  0.34160000  0.01420000  0.96320000  1
  C  C86  1  0.34160000  0.48580000  0.53680000  1
  C  C87  1  0.34160000  0.53680000  0.48580000  1
  C  C88  1  0.34160000  0.96320000  0.01420000  1
  C  C89  1  0.36840000  0.16260000  0.87790000  1
  C  C90  1  0.36840000  0.33740000  0.62210000  1
  C  C91  1  0.36840000  0.62210000  0.33740000  1
  C  C92  1  0.36840000  0.87790000  0.16260000  1
  C  C93  1  0.50000000  0.05360000  0.94640000  1
  C  C94  1  0.50000000  0.10990000  0.89010000  1
  C  C95  1  0.50000000  0.39010000  0.60990000  1
  C  C96  1  0.50000000  0.44640000  0.55360000  1
  C  C97  1  0.50000000  0.55360000  0.44640000  1
  C  C98  1  0.50000000  0.60990000  0.39010000  1
  C  C99  1  0.50000000  0.89010000  0.10990000  1
  C  C100  1  0.50000000  0.94640000  0.05360000  1
  C  C101  1  0.63160000  0.12210000  0.83740000  1
  C  C102  1  0.63160000  0.37790000  0.66260000  1
  C  C103  1  0.63160000  0.66260000  0.37790000  1
  C  C104  1  0.63160000  0.83740000  0.12210000  1
  C  C105  1  0.65840000  0.03680000  0.98580000  1
  C  C106  1  0.65840000  0.46320000  0.51420000  1
  C  C107  1  0.65840000  0.51420000  0.46320000  1
  C  C108  1  0.65840000  0.98580000  0.03680000  1
  C  C109  1  0.69510000  0.18180000  0.57780000  1
  C  C110  1  0.69510000  0.31820000  0.92220000  1
  C  C111  1  0.69510000  0.57780000  0.18180000  1
  C  C112  1  0.69510000  0.92220000  0.31820000  1
  C  C113  1  0.80490000  0.07780000  0.81820000  1
  C  C114  1  0.80490000  0.42220000  0.68180000  1
  C  C115  1  0.80490000  0.68180000  0.42220000  1
  C  C116  1  0.80490000  0.81820000  0.07780000  1
  C  C117  1  0.84160000  0.01420000  0.53680000  1
  C  C118  1  0.84160000  0.48580000  0.96320000  1
  C  C119  1  0.84160000  0.53680000  0.01420000  1
  C  C120  1  0.84160000  0.96320000  0.48580000  1
  C  C121  1  0.86840000  0.16260000  0.62210000  1
  C  C122  1  0.86840000  0.33740000  0.87790000  1
  C  C123  1  0.86840000  0.62210000  0.16260000  1
  C  C124  1  0.86840000  0.87790000  0.33740000  1
  C  C125  1  0.00000000  0.05360000  0.55360000  1
  C  C126  1  0.00000000  0.10990000  0.60990000  1
  C  C127  1  0.00000000  0.44640000  0.94640000  1
  C  C128  1  0.00000000  0.55360000  0.05360000  1
  C  C129  1  0.00000000  0.60990000  0.10990000  1
  C  C130  1  0.00000000  0.89010000  0.39010000  1
  C  C131  1  0.00000000  0.94640000  0.44640000  1
  N  N132  1  0.08380000  0.17780000  0.70360000  1
  N  N133  1  0.08380000  0.32220000  0.79640000  1
  N  N134  1  0.08380000  0.70360000  0.17780000  1
  N  N135  1  0.08380000  0.79640000  0.32220000  1
  N  N136  1  0.41620000  0.20360000  0.82220000  1
  N  N137  1  0.41620000  0.29640000  0.67780000  1
  N  N138  1  0.41620000  0.67780000  0.29640000  1
  N  N139  1  0.41620000  0.82220000  0.20360000  1
  N  N140  1  0.58380000  0.17780000  0.79640000  1
  N  N141  1  0.58380000  0.32220000  0.70360000  1
  N  N142  1  0.58380000  0.70360000  0.32220000  1
  N  N143  1  0.58380000  0.79640000  0.17780000  1
  N  N144  1  0.91620000  0.20360000  0.67780000  1
  N  N145  1  0.91620000  0.29640000  0.82220000  1
  N  N146  1  0.91620000  0.67780000  0.20360000  1
  N  N147  1  0.91620000  0.82220000  0.29640000  1
