# generated using pymatgen
data_MnH9C14(NO2)2
_symmetry_space_group_name_H-M   'P 1'
_cell_length_a   11.99795866
_cell_length_b   11.99795866
_cell_length_c   16.25900000
_cell_angle_alpha   72.20562532
_cell_angle_beta   72.20562532
_cell_angle_gamma   77.69848444
_symmetry_Int_Tables_number   1
_chemical_formula_structural   MnH9C14(NO2)2
_chemical_formula_sum   'Mn4 H36 C56 N8 O16'
_cell_volume   2103.34974030
_cell_formula_units_Z   4
loop_
 _symmetry_equiv_pos_site_id
 _symmetry_equiv_pos_as_xyz
  1  'x, y, z'
loop_
 _atom_site_type_symbol
 _atom_site_label
 _atom_site_symmetry_multiplicity
 _atom_site_fract_x
 _atom_site_fract_y
 _atom_site_fract_z
 _atom_site_occupancy
  C  C0  1  0.37270000  0.64870000  0.96980000  1
  C  C1  1  0.64870000  0.37270000  0.46980000  1
  C  C2  1  0.49920000  0.56360000  0.86060000  1
  C  C3  1  0.56360000  0.49920000  0.36060000  1
  C  C4  1  0.50440000  0.58800000  0.62560000  1
  C  C5  1  0.58800000  0.50440000  0.12560000  1
  C  C6  1  0.48030000  0.64410000  0.90740000  1
  C  C7  1  0.64410000  0.48030000  0.40740000  1
  C  C8  1  0.42140000  0.70740000  0.52090000  1
  C  C9  1  0.70740000  0.42140000  0.02090000  1
  C  C10  1  0.57390000  0.71630000  0.89600000  1
  C  C11  1  0.71630000  0.57390000  0.39600000  1
  C  C12  1  0.47500000  0.92680000  0.78150000  1
  C  C13  1  0.47780000  0.92400000  0.86790000  1
  C  C14  1  0.92400000  0.47780000  0.36790000  1
  C  C15  1  0.92680000  0.47500000  0.28150000  1
  C  C16  1  0.42680000  0.02340000  0.89890000  1
  C  C17  1  0.02340000  0.42680000  0.39890000  1
  C  C18  1  0.42870000  0.02610000  0.72860000  1
  C  C19  1  0.02610000  0.42870000  0.22860000  1
  C  C20  1  0.42860000  0.02720000  0.63480000  1
  C  C21  1  0.02720000  0.42860000  0.13480000  1
  C  C22  1  0.68470000  0.77330000  0.11810000  1
  C  C23  1  0.77330000  0.68470000  0.61810000  1
  C  C24  1  0.62020000  0.87500000  0.24140000  1
  C  C25  1  0.87500000  0.62020000  0.74140000  1
  C  C26  1  0.62220000  0.87640000  0.15450000  1
  C  C27  1  0.87640000  0.62220000  0.65450000  1
  C  C28  1  0.37780000  0.12360000  0.84550000  1
  C  C29  1  0.12360000  0.37780000  0.34550000  1
  C  C30  1  0.37980000  0.12500000  0.75860000  1
  C  C31  1  0.12500000  0.37980000  0.25860000  1
  C  C32  1  0.31530000  0.22670000  0.88190000  1
  C  C33  1  0.22670000  0.31530000  0.38190000  1
  C  C34  1  0.57140000  0.97280000  0.36520000  1
  C  C35  1  0.97280000  0.57140000  0.86520000  1
  C  C36  1  0.57130000  0.97390000  0.27140000  1
  C  C37  1  0.97390000  0.57130000  0.77140000  1
  C  C38  1  0.57320000  0.97660000  0.10110000  1
  C  C39  1  0.97660000  0.57320000  0.60110000  1
  C  C40  1  0.52220000  0.07600000  0.13210000  1
  C  C41  1  0.52500000  0.07320000  0.21850000  1
  C  C42  1  0.07320000  0.52500000  0.71850000  1
  C  C43  1  0.07600000  0.52220000  0.63210000  1
  C  C44  1  0.42610000  0.28370000  0.10400000  1
  C  C45  1  0.28370000  0.42610000  0.60400000  1
  C  C46  1  0.57860000  0.29260000  0.47910000  1
  C  C47  1  0.29260000  0.57860000  0.97910000  1
  C  C48  1  0.51970000  0.35590000  0.09260000  1
  C  C49  1  0.35590000  0.51970000  0.59260000  1
  C  C50  1  0.49560000  0.41200000  0.37440000  1
  C  C51  1  0.41200000  0.49560000  0.87440000  1
  C  C52  1  0.50080000  0.43640000  0.13940000  1
  C  C53  1  0.43640000  0.50080000  0.63940000  1
  C  C54  1  0.62730000  0.35130000  0.03020000  1
  C  C55  1  0.35130000  0.62730000  0.53020000  1
  H  H56  1  0.35500000  0.70040000  0.00590000  1
  H  H57  1  0.70040000  0.35500000  0.50590000  1
  H  H58  1  0.55370000  0.57090000  0.31880000  1
  H  H59  1  0.57090000  0.55370000  0.81880000  1
  H  H60  1  0.56010000  0.57150000  0.65840000  1
  H  H61  1  0.57150000  0.56010000  0.15840000  1
  H  H62  1  0.41680000  0.77820000  0.47720000  1
  H  H63  1  0.77820000  0.41680000  0.97720000  1
  H  H64  1  0.62870000  0.66990000  0.93080000  1
  H  H65  1  0.66990000  0.62870000  0.43080000  1
  H  H66  1  0.52480000  0.82880000  0.97650000  1
  H  H67  1  0.82880000  0.52480000  0.47650000  1
  H  H68  1  0.61770000  0.73610000  0.83360000  1
  H  H69  1  0.73610000  0.61770000  0.33360000  1
  H  H70  1  0.50540000  0.86000000  0.76020000  1
  H  H71  1  0.86000000  0.50540000  0.26020000  1
  H  H72  1  0.65170000  0.80790000  0.27820000  1
  H  H73  1  0.80790000  0.65170000  0.77820000  1
  H  H74  1  0.34830000  0.19210000  0.72180000  1
  H  H75  1  0.19210000  0.34830000  0.22180000  1
  H  H76  1  0.49460000  0.14000000  0.23980000  1
  H  H77  1  0.14000000  0.49460000  0.73980000  1
  H  H78  1  0.38230000  0.26390000  0.16640000  1
  H  H79  1  0.26390000  0.38230000  0.66640000  1
  H  H80  1  0.47520000  0.17120000  0.02350000  1
  H  H81  1  0.17120000  0.47520000  0.52350000  1
  H  H82  1  0.37130000  0.33010000  0.06920000  1
  H  H83  1  0.33010000  0.37130000  0.56920000  1
  H  H84  1  0.58320000  0.22180000  0.52280000  1
  H  H85  1  0.22180000  0.58320000  0.02280000  1
  H  H86  1  0.43990000  0.42850000  0.34160000  1
  H  H87  1  0.42850000  0.43990000  0.84160000  1
  H  H88  1  0.44630000  0.42910000  0.68120000  1
  H  H89  1  0.42910000  0.44630000  0.18120000  1
  H  H90  1  0.64500000  0.29960000  0.99410000  1
  H  H91  1  0.29960000  0.64500000  0.49410000  1
  Mn  Mn92  1  0.61120000  0.82970000  0.54886000  1
  Mn  Mn93  1  0.82970000  0.61120000  0.04886000  1
  Mn  Mn94  1  0.38880000  0.17030000  0.45114000  1
  Mn  Mn95  1  0.17030000  0.38880000  0.95114000  1
  N  N96  1  0.49560000  0.69140000  0.56970000  1
  N  N97  1  0.69140000  0.49560000  0.06970000  1
  N  N98  1  0.52460000  0.82580000  0.92440000  1
  N  N99  1  0.82580000  0.52460000  0.42440000  1
  N  N100  1  0.47540000  0.17420000  0.07560000  1
  N  N101  1  0.17420000  0.47540000  0.57560000  1
  N  N102  1  0.50440000  0.30860000  0.43030000  1
  N  N103  1  0.30860000  0.50440000  0.93030000  1
  O  O104  1  0.46350000  0.93190000  0.61160000  1
  O  O105  1  0.93190000  0.46350000  0.11160000  1
  O  O106  1  0.68580000  0.73620000  0.66550000  1
  O  O107  1  0.73620000  0.68580000  0.16550000  1
  O  O108  1  0.68900000  0.77640000  0.03880000  1
  O  O109  1  0.77640000  0.68900000  0.53880000  1
  O  O110  1  0.61040000  0.87780000  0.41320000  1
  O  O111  1  0.87780000  0.61040000  0.91320000  1
  O  O112  1  0.38960000  0.12220000  0.58680000  1
  O  O113  1  0.12220000  0.38960000  0.08680000  1
  O  O114  1  0.31100000  0.22360000  0.96120000  1
  O  O115  1  0.22360000  0.31100000  0.46120000  1
  O  O116  1  0.31420000  0.26380000  0.33450000  1
  O  O117  1  0.26380000  0.31420000  0.83450000  1
  O  O118  1  0.53650000  0.06810000  0.38840000  1
  O  O119  1  0.06810000  0.53650000  0.88840000  1
