# generated using pymatgen
data_Cu(C5N2)2
_symmetry_space_group_name_H-M   'P 1'
_cell_length_a   11.12700000
_cell_length_b   16.29400000
_cell_length_c   21.61700000
_cell_angle_alpha   111.61000000
_cell_angle_beta   90.00000000
_cell_angle_gamma   90.00000000
_symmetry_Int_Tables_number   1
_chemical_formula_structural   Cu(C5N2)2
_chemical_formula_sum   'Cu8 C80 N32'
_cell_volume   3643.75998962
_cell_formula_units_Z   8
loop_
 _symmetry_equiv_pos_site_id
 _symmetry_equiv_pos_as_xyz
  1  'x, y, z'
loop_
 _atom_site_type_symbol
 _atom_site_label
 _atom_site_symmetry_multiplicity
 _atom_site_fract_x
 _atom_site_fract_y
 _atom_site_fract_z
 _atom_site_occupancy
  Cu  Cu0  1  0.50637000  0.82211000  0.02464000  1
  Cu  Cu1  1  0.99363000  0.32211000  0.02464000  1
  Cu  Cu2  1  0.50792000  0.80334000  0.47971000  1
  Cu  Cu3  1  0.99208000  0.30334000  0.47971000  1
  Cu  Cu4  1  0.00792000  0.69666000  0.52029000  1
  Cu  Cu5  1  0.49208000  0.19666000  0.52029000  1
  Cu  Cu6  1  0.00637000  0.67789000  0.97536000  1
  Cu  Cu7  1  0.49363000  0.17789000  0.97536000  1
  C  C8  1  0.60590000  0.23740000  0.11330000  1
  C  C9  1  0.89410000  0.73740000  0.11330000  1
  C  C10  1  0.64150000  0.75860000  0.12050000  1
  C  C11  1  0.85850000  0.25860000  0.12050000  1
  C  C12  1  0.13920000  0.44240000  0.14620000  1
  C  C13  1  0.36080000  0.94240000  0.14620000  1
  C  C14  1  0.10670000  0.94890000  0.14820000  1
  C  C15  1  0.39330000  0.44890000  0.14820000  1
  C  C16  1  0.66530000  0.25630000  0.17630000  1
  C  C17  1  0.83470000  0.75630000  0.17630000  1
  C  C18  1  0.70760000  0.76250000  0.17950000  1
  C  C19  1  0.79240000  0.26250000  0.17950000  1
  C  C20  1  0.20200000  0.49020000  0.20820000  1
  C  C21  1  0.29800000  0.99020000  0.20820000  1
  C  C22  1  0.17310000  0.99410000  0.20850000  1
  C  C23  1  0.32690000  0.49410000  0.20850000  1
  C  C24  1  0.60010000  0.26790000  0.23360000  1
  C  C25  1  0.89990000  0.76790000  0.23360000  1
  C  C26  1  0.64910000  0.77820000  0.23790000  1
  C  C27  1  0.85090000  0.27820000  0.23790000  1
  C  C28  1  0.11270000  0.04150000  0.26600000  1
  C  C29  1  0.38730000  0.54150000  0.26600000  1
  C  C30  1  0.13710000  0.53080000  0.26620000  1
  C  C31  1  0.36290000  0.03080000  0.26620000  1
  C  C32  1  0.65940000  0.28690000  0.29300000  1
  C  C33  1  0.84060000  0.78690000  0.29300000  1
  C  C34  1  0.71480000  0.78930000  0.29490000  1
  C  C35  1  0.78520000  0.28930000  0.29490000  1
  C  C36  1  0.17610000  0.08360000  0.32380000  1
  C  C37  1  0.32390000  0.58360000  0.32380000  1
  C  C38  1  0.19820000  0.57750000  0.32430000  1
  C  C39  1  0.30180000  0.07750000  0.32430000  1
  C  C40  1  0.59350000  0.30020000  0.35400000  1
  C  C41  1  0.90650000  0.80020000  0.35400000  1
  C  C42  1  0.65190000  0.80560000  0.35690000  1
  C  C43  1  0.84810000  0.30560000  0.35690000  1
  C  C44  1  0.11470000  0.14000000  0.38330000  1
  C  C45  1  0.38530000  0.64000000  0.38330000  1
  C  C46  1  0.13150000  0.62060000  0.38540000  1
  C  C47  1  0.36850000  0.12060000  0.38540000  1
  C  C48  1  0.63150000  0.87940000  0.61460000  1
  C  C49  1  0.86850000  0.37940000  0.61460000  1
  C  C50  1  0.61470000  0.36000000  0.61670000  1
  C  C51  1  0.88530000  0.86000000  0.61670000  1
  C  C52  1  0.15190000  0.69440000  0.64310000  1
  C  C53  1  0.34810000  0.19440000  0.64310000  1
  C  C54  1  0.09350000  0.19980000  0.64600000  1
  C  C55  1  0.40650000  0.69980000  0.64600000  1
  C  C56  1  0.69820000  0.92250000  0.67570000  1
  C  C57  1  0.80180000  0.42250000  0.67570000  1
  C  C58  1  0.67610000  0.41640000  0.67620000  1
  C  C59  1  0.82390000  0.91640000  0.67620000  1
  C  C60  1  0.21480000  0.71070000  0.70510000  1
  C  C61  1  0.28520000  0.21070000  0.70510000  1
  C  C62  1  0.15940000  0.21310000  0.70700000  1
  C  C63  1  0.34060000  0.71310000  0.70700000  1
  C  C64  1  0.63710000  0.96920000  0.73380000  1
  C  C65  1  0.86290000  0.46920000  0.73380000  1
  C  C66  1  0.61270000  0.45850000  0.73400000  1
  C  C67  1  0.88730000  0.95850000  0.73400000  1
  C  C68  1  0.14910000  0.72180000  0.76210000  1
  C  C69  1  0.35090000  0.22180000  0.76210000  1
  C  C70  1  0.10010000  0.23210000  0.76640000  1
  C  C71  1  0.39990000  0.73210000  0.76640000  1
  C  C72  1  0.67310000  0.50590000  0.79150000  1
  C  C73  1  0.82690000  0.00590000  0.79150000  1
  C  C74  1  0.70200000  0.00980000  0.79180000  1
  C  C75  1  0.79800000  0.50980000  0.79180000  1
  C  C76  1  0.20760000  0.73750000  0.82050000  1
  C  C77  1  0.29240000  0.23750000  0.82050000  1
  C  C78  1  0.16530000  0.24370000  0.82370000  1
  C  C79  1  0.33470000  0.74370000  0.82370000  1
  C  C80  1  0.60670000  0.55110000  0.85180000  1
  C  C81  1  0.89330000  0.05110000  0.85180000  1
  C  C82  1  0.63920000  0.05760000  0.85380000  1
  C  C83  1  0.86080000  0.55760000  0.85380000  1
  C  C84  1  0.14150000  0.74140000  0.87950000  1
  C  C85  1  0.35850000  0.24140000  0.87950000  1
  C  C86  1  0.10590000  0.26260000  0.88670000  1
  C  C87  1  0.39410000  0.76260000  0.88670000  1
  N  N88  1  0.56410000  0.21930000  0.06230000  1
  N  N89  1  0.93590000  0.71930000  0.06230000  1
  N  N90  1  0.58930000  0.75990000  0.07530000  1
  N  N91  1  0.91070000  0.25990000  0.07530000  1
  N  N92  1  0.09150000  0.40580000  0.09800000  1
  N  N93  1  0.40850000  0.90580000  0.09800000  1
  N  N94  1  0.05690000  0.91460000  0.09890000  1
  N  N95  1  0.44310000  0.41460000  0.09890000  1
  N  N96  1  0.54490000  0.31410000  0.40310000  1
  N  N97  1  0.95510000  0.81410000  0.40310000  1
  N  N98  1  0.60360000  0.81720000  0.40590000  1
  N  N99  1  0.89640000  0.31720000  0.40590000  1
  N  N100  1  0.06750000  0.18820000  0.42900000  1
  N  N101  1  0.43250000  0.68820000  0.42900000  1
  N  N102  1  0.08330000  0.65250000  0.43450000  1
  N  N103  1  0.41670000  0.15250000  0.43450000  1
  N  N104  1  0.58330000  0.84750000  0.56550000  1
  N  N105  1  0.91670000  0.34750000  0.56550000  1
  N  N106  1  0.56750000  0.31180000  0.57100000  1
  N  N107  1  0.93250000  0.81180000  0.57100000  1
  N  N108  1  0.10360000  0.68280000  0.59410000  1
  N  N109  1  0.39640000  0.18280000  0.59410000  1
  N  N110  1  0.04490000  0.18590000  0.59690000  1
  N  N111  1  0.45510000  0.68590000  0.59690000  1
  N  N112  1  0.55690000  0.58540000  0.90110000  1
  N  N113  1  0.94310000  0.08540000  0.90110000  1
  N  N114  1  0.59150000  0.09420000  0.90200000  1
  N  N115  1  0.90850000  0.59420000  0.90200000  1
  N  N116  1  0.08930000  0.74010000  0.92470000  1
  N  N117  1  0.41070000  0.24010000  0.92470000  1
  N  N118  1  0.06410000  0.28070000  0.93770000  1
  N  N119  1  0.43590000  0.78070000  0.93770000  1
