# generated using pymatgen
data_EuH7(C5O2)3
_symmetry_space_group_name_H-M   'P 1'
_cell_length_a   14.21180000
_cell_length_b   14.21180000
_cell_length_c   33.30288095
_cell_angle_alpha   102.32002955
_cell_angle_beta   102.32002955
_cell_angle_gamma   90.00000000
_symmetry_Int_Tables_number   1
_chemical_formula_structural   EuH7(C5O2)3
_chemical_formula_sum   'Eu12 H84 C180 O72'
_cell_volume   6412.81546850
_cell_formula_units_Z   12
loop_
 _symmetry_equiv_pos_site_id
 _symmetry_equiv_pos_as_xyz
  1  'x, y, z'
loop_
 _atom_site_type_symbol
 _atom_site_label
 _atom_site_symmetry_multiplicity
 _atom_site_fract_x
 _atom_site_fract_y
 _atom_site_fract_z
 _atom_site_occupancy
  C  C0  1  0.44300000  0.44300000  0.88600000  1
  C  C1  1  0.55700000  0.55700000  0.11400000  1
  C  C2  1  0.69300000  0.19300000  0.38600000  1
  C  C3  1  0.80700000  0.30700000  0.61400000  1
  C  C4  1  0.34340000  0.97590000  0.65280000  1
  C  C5  1  0.94060000  0.77410000  0.84720000  1
  C  C6  1  0.97910000  0.08060000  0.91800000  1
  C  C7  1  0.31110000  0.66940000  0.58200000  1
  C  C8  1  0.34640000  0.91790000  0.61580000  1
  C  C9  1  0.98060000  0.83210000  0.88420000  1
  C  C10  1  0.98470000  0.12210000  0.84100000  1
  C  C11  1  0.39370000  0.62790000  0.65900000  1
  C  C12  1  0.39960000  0.42670000  0.65540000  1
  C  C13  1  0.99420000  0.32330000  0.84460000  1
  C  C14  1  0.43290000  0.59600000  0.69680000  1
  C  C15  1  0.98610000  0.15400000  0.80320000  1
  C  C16  1  0.44130000  0.50120000  0.69700000  1
  C  C17  1  0.99430000  0.24880000  0.80300000  1
  C  C18  1  0.74800000  0.31310000  0.30800000  1
  C  C19  1  0.69000000  0.43690000  0.19200000  1
  C  C20  1  0.33130000  0.93310000  0.47340000  1
  C  C21  1  0.10790000  0.81690000  0.02660000  1
  C  C22  1  0.67670000  0.14960000  0.15540000  1
  C  C23  1  0.77130000  0.60040000  0.34460000  1
  C  C24  1  0.71530000  0.23830000  0.23220000  1
  C  C25  1  0.73310000  0.51170000  0.26780000  1
  C  C26  1  0.98080000  0.08720000  0.76220000  1
  C  C27  1  0.46860000  0.66280000  0.73780000  1
  C  C28  1  0.06070000  0.12140000  0.91420000  1
  C  C29  1  0.39650000  0.62860000  0.58580000  1
  C  C30  1  0.10070000  0.73420000  0.99380000  1
  C  C31  1  0.35690000  0.01580000  0.50620000  1
  C  C32  1  0.16790000  0.09640000  0.11580000  1
  C  C33  1  0.30210000  0.65360000  0.38420000  1
  C  C34  1  0.05530000  0.14580000  0.87500000  1
  C  C35  1  0.43030000  0.60420000  0.62500000  1
  C  C36  1  0.33060000  0.72910000  0.41800000  1
  C  C37  1  0.16260000  0.02090000  0.08200000  1
  C  C38  1  0.48830000  0.46530000  0.73220000  1
  C  C39  1  0.00610000  0.28470000  0.76780000  1
  C  C40  1  0.50790000  0.62420000  0.77040000  1
  C  C41  1  0.98750000  0.12580000  0.72960000  1
  C  C42  1  0.85630000  0.92200000  0.44920000  1
  C  C43  1  0.65710000  0.82800000  0.05080000  1
  C  C44  1  0.52070000  0.53070000  0.77000000  1
  C  C45  1  0.00070000  0.21930000  0.73000000  1
  C  C46  1  0.67100000  0.21030000  0.05800000  1
  C  C47  1  0.86300000  0.53970000  0.44200000  1
  C  C48  1  0.78070000  0.27070000  0.27000000  1
  C  C49  1  0.76070000  0.47930000  0.23000000  1
  C  C50  1  0.22590000  0.09340000  0.15280000  1
  C  C51  1  0.32310000  0.65660000  0.34720000  1
  C  C52  1  0.75120000  0.19130000  0.19700000  1
  C  C53  1  0.80420000  0.55870000  0.30300000  1
  C  C54  1  0.56310000  0.49800000  0.80800000  1
  C  C55  1  0.00510000  0.25200000  0.69200000  1
  C  C56  1  0.37140000  0.81070000  0.41420000  1
  C  C57  1  0.20720000  0.93930000  0.08580000  1
  C  C58  1  0.14290000  0.15400000  0.95000000  1
  C  C59  1  0.44290000  0.59600000  0.55000000  1
  C  C60  1  0.40400000  0.89290000  0.45000000  1
  C  C61  1  0.20400000  0.85710000  0.05000000  1
  C  C62  1  0.46030000  0.42100000  0.55800000  1
  C  C63  1  0.15230000  0.32900000  0.94200000  1
  C  C64  1  0.17530000  0.69940000  0.98320000  1
  C  C65  1  0.44210000  0.05060000  0.51680000  1
  C  C66  1  0.18310000  0.08130000  0.97340000  1
  C  C67  1  0.45970000  0.66870000  0.52660000  1
  C  C68  1  0.17200000  0.60630000  0.94920000  1
  C  C69  1  0.47280000  0.14370000  0.55080000  1
  C  C70  1  0.37210000  0.73470000  0.34100000  1
  C  C71  1  0.28110000  0.01530000  0.15900000  1
  C  C72  1  0.33720000  0.73080000  0.26220000  1
  C  C73  1  0.32500000  0.01920000  0.23780000  1
  C  C74  1  0.47630000  0.50510000  0.53760000  1
  C  C75  1  0.18870000  0.24490000  0.96240000  1
  C  C76  1  0.94940000  0.92530000  0.48320000  1
  C  C77  1  0.71620000  0.82470000  0.01680000  1
  C  C78  1  0.39580000  0.80530000  0.37500000  1
  C  C79  1  0.27080000  0.94470000  0.12500000  1
  C  C80  1  0.72430000  0.72920000  0.99280000  1
  C  C81  1  0.98150000  0.02080000  0.50720000  1
  C  C82  1  0.97920000  0.47430000  0.49280000  1
  C  C83  1  0.73640000  0.27570000  0.00720000  1
  C  C84  1  0.75510000  0.22630000  0.03760000  1
  C  C85  1  0.96750000  0.52370000  0.46240000  1
  C  C86  1  0.98420000  0.85070000  0.49380000  1
  C  C87  1  0.74040000  0.89930000  0.00620000  1
  C  C88  1  0.87420000  0.25790000  0.27040000  1
  C  C89  1  0.85380000  0.49210000  0.22960000  1
  C  C90  1  0.84600000  0.18290000  0.19680000  1
  C  C91  1  0.89920000  0.56710000  0.30320000  1
  C  C92  1  0.40400000  0.73610000  0.30320000  1
  C  C93  1  0.35080000  0.01390000  0.19680000  1
  C  C94  1  0.37580000  0.73750000  0.22960000  1
  C  C95  1  0.39620000  0.01250000  0.27040000  1
  C  C96  1  0.26580000  0.10690000  0.00620000  1
  C  C97  1  0.50960000  0.64310000  0.49380000  1
  C  C98  1  0.49490000  0.93870000  0.46240000  1
  C  C99  1  0.28250000  0.81130000  0.03760000  1
  C  C100  1  0.27080000  0.73150000  0.00720000  1
  C  C101  1  0.51360000  0.01850000  0.49280000  1
  C  C102  1  0.52570000  0.48640000  0.50720000  1
  C  C103  1  0.26850000  0.26360000  0.99280000  1
  C  C104  1  0.85420000  0.18030000  0.12500000  1
  C  C105  1  0.97920000  0.56970000  0.37500000  1
  C  C106  1  0.30060000  0.19210000  0.01680000  1
  C  C107  1  0.53380000  0.55790000  0.48320000  1
  C  C108  1  0.77370000  0.71750000  0.96240000  1
  C  C109  1  0.06130000  0.03250000  0.53760000  1
  C  C110  1  0.91280000  0.21860000  0.23780000  1
  C  C111  1  0.92500000  0.53140000  0.26220000  1
  C  C112  1  0.87790000  0.14370000  0.15900000  1
  C  C113  1  0.96890000  0.60630000  0.34100000  1
  C  C114  1  0.07800000  0.40710000  0.55080000  1
  C  C115  1  0.77720000  0.34290000  0.94920000  1
  C  C116  1  0.06690000  0.85790000  0.52660000  1
  C  C117  1  0.79030000  0.89210000  0.97340000  1
  C  C118  1  0.07470000  0.46620000  0.51680000  1
  C  C119  1  0.80790000  0.28380000  0.98320000  1
  C  C120  1  0.78970000  0.61300000  0.94200000  1
  C  C121  1  0.09770000  0.13700000  0.55800000  1
  C  C122  1  0.84600000  0.19290000  0.05000000  1
  C  C123  1  0.04600000  0.55710000  0.45000000  1
  C  C124  1  0.10710000  0.95400000  0.55000000  1
  C  C125  1  0.80710000  0.79600000  0.95000000  1
  C  C126  1  0.87860000  0.14650000  0.08580000  1
  C  C127  1  0.04280000  0.60350000  0.41420000  1
  C  C128  1  0.68690000  0.44000000  0.69200000  1
  C  C129  1  0.24490000  0.31000000  0.80800000  1
  C  C130  1  0.49880000  0.74430000  0.30300000  1
  C  C131  1  0.44580000  0.00570000  0.19700000  1
  C  C132  1  0.02410000  0.69060000  0.34720000  1
  C  C133  1  0.92690000  0.05940000  0.15280000  1
  C  C134  1  0.46930000  0.75070000  0.23000000  1
  C  C135  1  0.48930000  0.99930000  0.27000000  1
  C  C136  1  0.57900000  0.90230000  0.44200000  1
  C  C137  1  0.38700000  0.84770000  0.05800000  1
  C  C138  1  0.72930000  0.51070000  0.73000000  1
  C  C139  1  0.24930000  0.23930000  0.77000000  1
  C  C140  1  0.39370000  0.22280000  0.05080000  1
  C  C141  1  0.59290000  0.52720000  0.44920000  1
  C  C142  1  0.74210000  0.60380000  0.72960000  1
  C  C143  1  0.26250000  0.14620000  0.77040000  1
  C  C144  1  0.76170000  0.48310000  0.76780000  1
  C  C145  1  0.24390000  0.26690000  0.73220000  1
  C  C146  1  0.91940000  0.06110000  0.08200000  1
  C  C147  1  0.08740000  0.68890000  0.41800000  1
  C  C148  1  0.19470000  0.02080000  0.62500000  1
  C  C149  1  0.81970000  0.72920000  0.87500000  1
  C  C150  1  0.08210000  0.73060000  0.38420000  1
  C  C151  1  0.94790000  0.01940000  0.11580000  1
  C  C152  1  0.14930000  0.49040000  0.50620000  1
  C  C153  1  0.89310000  0.25960000  0.99380000  1
  C  C154  1  0.18930000  0.95720000  0.58580000  1
  C  C155  1  0.85350000  0.79280000  0.91420000  1
  C  C156  1  0.26920000  0.07500000  0.73780000  1
  C  C157  1  0.78140000  0.67500000  0.76220000  1
  C  C158  1  0.53470000  0.75610000  0.26780000  1
  C  C159  1  0.51690000  0.99390000  0.23220000  1
  C  C160  1  0.57330000  0.74420000  0.34460000  1
  C  C161  1  0.47870000  0.00580000  0.15540000  1
  C  C162  1  0.91870000  0.20970000  0.02660000  1
  C  C163  1  0.14210000  0.54030000  0.47340000  1
  C  C164  1  0.50200000  0.75510000  0.19200000  1
  C  C165  1  0.56000000  0.99490000  0.30800000  1
  C  C166  1  0.80870000  0.55420000  0.80300000  1
  C  C167  1  0.25570000  0.19580000  0.69700000  1
  C  C168  1  0.81710000  0.64920000  0.80320000  1
  C  C169  1  0.26390000  0.10080000  0.69680000  1
  C  C170  1  0.85040000  0.52130000  0.84460000  1
  C  C171  1  0.25580000  0.22870000  0.65540000  1
  C  C172  1  0.26530000  0.03110000  0.65900000  1
  C  C173  1  0.85630000  0.71890000  0.84100000  1
  C  C174  1  0.90360000  0.05210000  0.88420000  1
  C  C175  1  0.26940000  0.69790000  0.61580000  1
  C  C176  1  0.27090000  0.91260000  0.58200000  1
  C  C177  1  0.93890000  0.83740000  0.91800000  1
  C  C178  1  0.90660000  0.07310000  0.84720000  1
  C  C179  1  0.30940000  0.67690000  0.65280000  1
  Eu  Eu180  1  0.29020000  0.29020000  0.58040000  1
  Eu  Eu181  1  0.70980000  0.70980000  0.41960000  1
  Eu  Eu182  1  0.54020000  0.04020000  0.08040000  1
  Eu  Eu183  1  0.95980000  0.45980000  0.91960000  1
  Eu  Eu184  1  0.58094000  0.78378000  0.12348000  1
  Eu  Eu185  1  0.70746000  0.96622000  0.37652000  1
  Eu  Eu186  1  0.03378000  0.33094000  0.62348000  1
  Eu  Eu187  1  0.66030000  0.41906000  0.87652000  1
  Eu  Eu188  1  0.21622000  0.45746000  0.87652000  1
  Eu  Eu189  1  0.58970000  0.29254000  0.62348000  1
  Eu  Eu190  1  0.66906000  0.41030000  0.37652000  1
  Eu  Eu191  1  0.54254000  0.33970000  0.12348000  1
  H  H192  1  0.42830000  0.42830000  0.85660000  1
  H  H193  1  0.57170000  0.57170000  0.14340000  1
  H  H194  1  0.67830000  0.17830000  0.35660000  1
  H  H195  1  0.82170000  0.32170000  0.64340000  1
  H  H196  1  0.97370000  0.07140000  0.94440000  1
  H  H197  1  0.27930000  0.67860000  0.55560000  1
  H  H198  1  0.64970000  0.24720000  0.23000000  1
  H  H199  1  0.66970000  0.50280000  0.27000000  1
  H  H200  1  0.26950000  0.90440000  0.46680000  1
  H  H201  1  0.05270000  0.84560000  0.03320000  1
  H  H202  1  0.04050000  0.70520000  0.98000000  1
  H  H203  1  0.31050000  0.04480000  0.52000000  1
  H  H204  1  0.39620000  0.97950000  0.67520000  1
  H  H205  1  0.97100000  0.77050000  0.82480000  1
  H  H206  1  0.13120000  0.14970000  0.11300000  1
  H  H207  1  0.26820000  0.60030000  0.38700000  1
  H  H208  1  0.39970000  0.88120000  0.61300000  1
  H  H209  1  0.03670000  0.86880000  0.88700000  1
  H  H210  1  0.97320000  0.02090000  0.75920000  1
  H  H211  1  0.46400000  0.72910000  0.74080000  1
  H  H212  1  0.32140000  0.72370000  0.44440000  1
  H  H213  1  0.12700000  0.02630000  0.05560000  1
  H  H214  1  0.98240000  0.08290000  0.70380000  1
  H  H215  1  0.52860000  0.66710000  0.79620000  1
  H  H216  1  0.49720000  0.39970000  0.73000000  1
  H  H217  1  0.01720000  0.35030000  0.77000000  1
  H  H218  1  0.27090000  0.72320000  0.25920000  1
  H  H219  1  0.26170000  0.02680000  0.24080000  1
  H  H220  1  0.22950000  0.14620000  0.17520000  1
  H  H221  1  0.30430000  0.60380000  0.32480000  1
  H  H222  1  0.10720000  0.18280000  0.87280000  1
  H  H223  1  0.48440000  0.56720000  0.62720000  1
  H  H224  1  0.15440000  0.01950000  0.96680000  1
  H  H225  1  0.43760000  0.73050000  0.53320000  1
  H  H226  1  0.92630000  0.44550000  0.49860000  1
  H  H227  1  0.67770000  0.30450000  0.00140000  1
  H  H228  1  0.69550000  0.67630000  0.99860000  1
  H  H229  1  0.94690000  0.07370000  0.50140000  1
  H  H230  1  0.95520000  0.79050000  0.48000000  1
  H  H231  1  0.72520000  0.95950000  0.02000000  1
  H  H232  1  0.33290000  0.73240000  0.20380000  1
  H  H233  1  0.37910000  0.01760000  0.29620000  1
  H  H234  1  0.43280000  0.85720000  0.37280000  1
  H  H235  1  0.31000000  0.89280000  0.12720000  1
  H  H236  1  0.81720000  0.23440000  0.12720000  1
  H  H237  1  0.94000000  0.51560000  0.37280000  1
  H  H238  1  0.91710000  0.27860000  0.29620000  1
  H  H239  1  0.87090000  0.47140000  0.20380000  1
  H  H240  1  0.29480000  0.06050000  0.02000000  1
  H  H241  1  0.52480000  0.68950000  0.48000000  1
  H  H242  1  0.55450000  0.42770000  0.50140000  1
  H  H243  1  0.30310000  0.32230000  0.99860000  1
  H  H244  1  0.32370000  0.69690000  0.00140000  1
  H  H245  1  0.57230000  0.05310000  0.49860000  1
  H  H246  1  0.09560000  0.80270000  0.53320000  1
  H  H247  1  0.81240000  0.94730000  0.96680000  1
  H  H248  1  0.14280000  0.06000000  0.62720000  1
  H  H249  1  0.76560000  0.69000000  0.87280000  1
  H  H250  1  0.02050000  0.72100000  0.32480000  1
  H  H251  1  0.94570000  0.02900000  0.17520000  1
  H  H252  1  0.97910000  0.21400000  0.24080000  1
  H  H253  1  0.98830000  0.53600000  0.25920000  1
  H  H254  1  0.75280000  0.41970000  0.77000000  1
  H  H255  1  0.23280000  0.33030000  0.73000000  1
  H  H256  1  0.26760000  0.12910000  0.79620000  1
  H  H257  1  0.72140000  0.62090000  0.70380000  1
  H  H258  1  0.92860000  0.02930000  0.05560000  1
  H  H259  1  0.12300000  0.72070000  0.44440000  1
  H  H260  1  0.27680000  0.01170000  0.74080000  1
  H  H261  1  0.78600000  0.73830000  0.75920000  1
  H  H262  1  0.85030000  0.01820000  0.88700000  1
  H  H263  1  0.21330000  0.73180000  0.61300000  1
  H  H264  1  0.11880000  0.78670000  0.38700000  1
  H  H265  1  0.98180000  0.96330000  0.11300000  1
  H  H266  1  0.85380000  0.05430000  0.82480000  1
  H  H267  1  0.27900000  0.69570000  0.67520000  1
  H  H268  1  0.20950000  0.47520000  0.52000000  1
  H  H269  1  0.93950000  0.27480000  0.98000000  1
  H  H270  1  0.98050000  0.18760000  0.03320000  1
  H  H271  1  0.19730000  0.56240000  0.46680000  1
  H  H272  1  0.60030000  0.76720000  0.27000000  1
  H  H273  1  0.58030000  0.98280000  0.23000000  1
  H  H274  1  0.27630000  0.87700000  0.55560000  1
  H  H275  1  0.97070000  0.87300000  0.94440000  1
  O  O276  1  0.65374000  0.32874000  0.30388000  1
  O  O277  1  0.59986000  0.42126000  0.19612000  1
  O  O278  1  0.93269000  0.54399000  0.86078000  1
  O  O279  1  0.32191000  0.20601000  0.63922000  1
  O  O280  1  0.71310000  0.27680000  0.40260000  1
  O  O281  1  0.56050000  0.47320000  0.09740000  1
  O  O282  1  0.61588000  0.20258000  0.14216000  1
  O  O283  1  0.72372000  0.54742000  0.35784000  1
  O  O284  1  0.52680000  0.46310000  0.90260000  1
  O  O285  1  0.87420000  0.28690000  0.59740000  1
  O  O286  1  0.80660000  0.84150000  0.43120000  1
  O  O287  1  0.62540000  0.90850000  0.06880000  1
  O  O288  1  0.63020000  0.27970000  0.07040000  1
  O  O289  1  0.80980000  0.47030000  0.42960000  1
  O  O290  1  0.37430000  0.40180000  0.55840000  1
  O  O291  1  0.06590000  0.34820000  0.94160000  1
  O  O292  1  0.79399000  0.68269000  0.36078000  1
  O  O293  1  0.68321000  0.06731000  0.13922000  1
  O  O294  1  0.64980000  0.75210000  0.06640000  1
  O  O295  1  0.83340000  0.99790000  0.43360000  1
  O  O296  1  0.65180000  0.12430000  0.05840000  1
  O  O297  1  0.84340000  0.62570000  0.44160000  1
  O  O298  1  0.09150000  0.55660000  0.93120000  1
  O  O299  1  0.41030000  0.19340000  0.56880000  1
  O  O300  1  0.45258000  0.36588000  0.64216000  1
  O  O301  1  0.06042000  0.38412000  0.85784000  1
  O  O302  1  0.80740000  0.34970000  0.34220000  1
  O  O303  1  0.71520000  0.40030000  0.15780000  1
  O  O304  1  0.57874000  0.40374000  0.80388000  1
  O  O305  1  0.02486000  0.34626000  0.69612000  1
  O  O306  1  0.59970000  0.55740000  0.84220000  1
  O  O307  1  0.00750000  0.19260000  0.65780000  1
  O  O308  1  0.00210000  0.39980000  0.56640000  1
  O  O309  1  0.68570000  0.35020000  0.93360000  1
  O  O310  1  0.52970000  0.38020000  0.57040000  1
  O  O311  1  0.20930000  0.36980000  0.92960000  1
  O  O312  1  0.72030000  0.55980000  0.92960000  1
  O  O313  1  0.04070000  0.19020000  0.57040000  1
  O  O314  1  0.24790000  0.58340000  0.93360000  1
  O  O315  1  0.56430000  0.16660000  0.56640000  1
  O  O316  1  0.65030000  0.46520000  0.65780000  1
  O  O317  1  0.24250000  0.28480000  0.84220000  1
  O  O318  1  0.67126000  0.34986000  0.69612000  1
  O  O319  1  0.22514000  0.40014000  0.80388000  1
  O  O320  1  0.44260000  0.75750000  0.15780000  1
  O  O321  1  0.53480000  0.99250000  0.34220000  1
  O  O322  1  0.79742000  0.47372000  0.85784000  1
  O  O323  1  0.18958000  0.27628000  0.64216000  1
  O  O324  1  0.15850000  0.37540000  0.56880000  1
  O  O325  1  0.83970000  0.37460000  0.93120000  1
  O  O326  1  0.59820000  0.81590000  0.44160000  1
  O  O327  1  0.40660000  0.93410000  0.05840000  1
  O  O328  1  0.60020000  0.43570000  0.43360000  1
  O  O329  1  0.41660000  0.31430000  0.06640000  1
  O  O330  1  0.45601000  0.07191000  0.13922000  1
  O  O331  1  0.56679000  0.67809000  0.36078000  1
  O  O332  1  0.87570000  0.59340000  0.94160000  1
  O  O333  1  0.18410000  0.15660000  0.55840000  1
  O  O334  1  0.61980000  0.95930000  0.42960000  1
  O  O335  1  0.44020000  0.79070000  0.07040000  1
  O  O336  1  0.44340000  0.16030000  0.06880000  1
  O  O337  1  0.62460000  0.58970000  0.43120000  1
  O  O338  1  0.72320000  0.31050000  0.59740000  1
  O  O339  1  0.37580000  0.43950000  0.90260000  1
  O  O340  1  0.63412000  0.81042000  0.35784000  1
  O  O341  1  0.52628000  0.93958000  0.14216000  1
  O  O342  1  0.53690000  0.62420000  0.09740000  1
  O  O343  1  0.68950000  0.12580000  0.40260000  1
  O  O344  1  0.31731000  0.43321000  0.63922000  1
  O  O345  1  0.92809000  0.31679000  0.86078000  1
  O  O346  1  0.59626000  0.77486000  0.19612000  1
  O  O347  1  0.65014000  0.97514000  0.30388000  1
