# generated using pymatgen
data_V2P2H7C3O7
_symmetry_space_group_name_H-M   'P 1'
_cell_length_a   9.19050767
_cell_length_b   9.19050767
_cell_length_c   18.62790000
_cell_angle_alpha   79.01681509
_cell_angle_beta   79.01681509
_cell_angle_gamma   67.57240723
_symmetry_Int_Tables_number   1
_chemical_formula_structural   V2P2H7C3O7
_chemical_formula_sum   'V8 P8 H28 C12 O28'
_cell_volume   1415.67543031
_cell_formula_units_Z   4
loop_
 _symmetry_equiv_pos_site_id
 _symmetry_equiv_pos_as_xyz
  1  'x, y, z'
loop_
 _atom_site_type_symbol
 _atom_site_label
 _atom_site_symmetry_multiplicity
 _atom_site_fract_x
 _atom_site_fract_y
 _atom_site_fract_z
 _atom_site_occupancy
  C  C0  1  0.16970000  0.88090000  0.12770000  1
  C  C1  1  0.88090000  0.16970000  0.62770000  1
  C  C2  1  0.29350000  0.81410000  0.35680000  1
  C  C3  1  0.81410000  0.29350000  0.85680000  1
  C  C4  1  0.33350000  0.89530000  0.11170000  1
  C  C5  1  0.89530000  0.33350000  0.61170000  1
  C  C6  1  0.66650000  0.10470000  0.88830000  1
  C  C7  1  0.10470000  0.66650000  0.38830000  1
  C  C8  1  0.70650000  0.18590000  0.64320000  1
  C  C9  1  0.18590000  0.70650000  0.14320000  1
  C  C10  1  0.83030000  0.11910000  0.87230000  1
  C  C11  1  0.11910000  0.83030000  0.37230000  1
  H  H12  1  0.10850000  0.93530000  0.17080000  1
  H  H13  1  0.93530000  0.10850000  0.67080000  1
  H  H14  1  0.11120000  0.93320000  0.08470000  1
  H  H15  1  0.93320000  0.11120000  0.58470000  1
  H  H16  1  0.34460000  0.75080000  0.31530000  1
  H  H17  1  0.75080000  0.34460000  0.81530000  1
  H  H18  1  0.34550000  0.75310000  0.40070000  1
  H  H19  1  0.75310000  0.34550000  0.90070000  1
  H  H20  1  0.40060000  0.82320000  0.07530000  1
  H  H21  1  0.82320000  0.40060000  0.57530000  1
  H  H22  1  0.38340000  0.85900000  0.15770000  1
  H  H23  1  0.85900000  0.38340000  0.65770000  1
  H  H24  1  0.41200000  0.01200000  0.80300000  1
  H  H25  1  0.01200000  0.41200000  0.30300000  1
  H  H26  1  0.58800000  0.98800000  0.19700000  1
  H  H27  1  0.98800000  0.58800000  0.69700000  1
  H  H28  1  0.61660000  0.14100000  0.84230000  1
  H  H29  1  0.14100000  0.61660000  0.34230000  1
  H  H30  1  0.59940000  0.17680000  0.92470000  1
  H  H31  1  0.17680000  0.59940000  0.42470000  1
  H  H32  1  0.65450000  0.24690000  0.59930000  1
  H  H33  1  0.24690000  0.65450000  0.09930000  1
  H  H34  1  0.65540000  0.24920000  0.68470000  1
  H  H35  1  0.24920000  0.65540000  0.18470000  1
  H  H36  1  0.88880000  0.06680000  0.91530000  1
  H  H37  1  0.06680000  0.88880000  0.41530000  1
  H  H38  1  0.89150000  0.06470000  0.82920000  1
  H  H39  1  0.06470000  0.89150000  0.32920000  1
  O  O40  1  0.24646000  0.10046000  0.39591000  1
  O  O41  1  0.10046000  0.24646000  0.89591000  1
  O  O42  1  0.27440000  0.07340000  0.26011000  1
  O  O43  1  0.07340000  0.27440000  0.76011000  1
  O  O44  1  0.50304000  0.90664000  0.92318000  1
  O  O45  1  0.90664000  0.50304000  0.42318000  1
  O  O46  1  0.27909000  0.13649000  0.00033000  1
  O  O47  1  0.13649000  0.27909000  0.50033000  1
  O  O48  1  0.35150000  0.06710000  0.80808000  1
  O  O49  1  0.06710000  0.35150000  0.30808000  1
  O  O50  1  0.21233000  0.20673000  0.62522000  1
  O  O51  1  0.20673000  0.21233000  0.12522000  1
  O  O52  1  0.51051000  0.95351000  0.33145000  1
  O  O53  1  0.95351000  0.51051000  0.83145000  1
  O  O54  1  0.48949000  0.04649000  0.66855000  1
  O  O55  1  0.04649000  0.48949000  0.16855000  1
  O  O56  1  0.78767000  0.79327000  0.37478000  1
  O  O57  1  0.79327000  0.78767000  0.87478000  1
  O  O58  1  0.64850000  0.93290000  0.19192000  1
  O  O59  1  0.93290000  0.64850000  0.69192000  1
  O  O60  1  0.72091000  0.86351000  0.99967000  1
  O  O61  1  0.86351000  0.72091000  0.49967000  1
  O  O62  1  0.49696000  0.09336000  0.07682000  1
  O  O63  1  0.09336000  0.49696000  0.57682000  1
  O  O64  1  0.72560000  0.92660000  0.73989000  1
  O  O65  1  0.92660000  0.72560000  0.23989000  1
  O  O66  1  0.75354000  0.89954000  0.60409000  1
  O  O67  1  0.89954000  0.75354000  0.10409000  1
  P  P68  1  0.33176000  0.99556000  0.33474000  1
  P  P69  1  0.99556000  0.33176000  0.83474000  1
  P  P70  1  0.33202000  0.09172000  0.07714000  1
  P  P71  1  0.09172000  0.33202000  0.57714000  1
  P  P72  1  0.66798000  0.90828000  0.92286000  1
  P  P73  1  0.90828000  0.66798000  0.42286000  1
  P  P74  1  0.66824000  0.00444000  0.66526000  1
  P  P75  1  0.00444000  0.66824000  0.16526000  1
  V  V76  1  0.27996000  0.04526000  0.91440000  1
  V  V77  1  0.04526000  0.27996000  0.41440000  1
  V  V78  1  0.70335000  0.79405000  0.28545000  1
  V  V79  1  0.79405000  0.70335000  0.78545000  1
  V  V80  1  0.29665000  0.20595000  0.71455000  1
  V  V81  1  0.20595000  0.29665000  0.21455000  1
  V  V82  1  0.72004000  0.95474000  0.08560000  1
  V  V83  1  0.95474000  0.72004000  0.58560000  1
