# generated using pymatgen
data_TmH7C16(NO4)2
_symmetry_space_group_name_H-M   'P 1'
_cell_length_a   5.01560000
_cell_length_b   18.67500000
_cell_length_c   22.79600000
_cell_angle_alpha   90.00000000
_cell_angle_beta   95.41000000
_cell_angle_gamma   90.00000000
_symmetry_Int_Tables_number   1
_chemical_formula_structural   TmH7C16(NO4)2
_chemical_formula_sum   'Tm4 H28 C64 N8 O32'
_cell_volume   2125.70638381
_cell_formula_units_Z   4
loop_
 _symmetry_equiv_pos_site_id
 _symmetry_equiv_pos_as_xyz
  1  'x, y, z'
loop_
 _atom_site_type_symbol
 _atom_site_label
 _atom_site_symmetry_multiplicity
 _atom_site_fract_x
 _atom_site_fract_y
 _atom_site_fract_z
 _atom_site_occupancy
  Tm  Tm0  1  0.22285000  0.56853000  0.65402000  1
  Tm  Tm1  1  0.27715000  0.06853000  0.84598000  1
  Tm  Tm2  1  0.72285000  0.93147000  0.15402000  1
  Tm  Tm3  1  0.77715000  0.43147000  0.34598000  1
  H  H4  1  0.01640000  0.17210000  0.68540000  1
  H  H5  1  0.05900000  0.98300000  0.55700000  1
  H  H6  1  0.08470000  0.18740000  0.15100000  1
  H  H7  1  0.10440000  0.30550000  0.49960000  1
  H  H8  1  0.10780000  0.53690000  0.83380000  1
  H  H9  1  0.14030000  0.36500000  0.02470000  1
  H  H10  1  0.22920000  0.05900000  0.01620000  1
  H  H11  1  0.27080000  0.55900000  0.48380000  1
  H  H12  1  0.35970000  0.86500000  0.47530000  1
  H  H13  1  0.39220000  0.03690000  0.66620000  1
  H  H14  1  0.39560000  0.80550000  0.00040000  1
  H  H15  1  0.41530000  0.68740000  0.34900000  1
  H  H16  1  0.44100000  0.48300000  0.94300000  1
  H  H17  1  0.48360000  0.67210000  0.81460000  1
  H  H18  1  0.51640000  0.32790000  0.18540000  1
  H  H19  1  0.55900000  0.51700000  0.05700000  1
  H  H20  1  0.58470000  0.31260000  0.65100000  1
  H  H21  1  0.60440000  0.19450000  0.99960000  1
  H  H22  1  0.60780000  0.96310000  0.33380000  1
  H  H23  1  0.64030000  0.13500000  0.52470000  1
  H  H24  1  0.72920000  0.44100000  0.51620000  1
  H  H25  1  0.77080000  0.94100000  0.98380000  1
  H  H26  1  0.85970000  0.63500000  0.97530000  1
  H  H27  1  0.89220000  0.46310000  0.16620000  1
  H  H28  1  0.89560000  0.69450000  0.50040000  1
  H  H29  1  0.91530000  0.81260000  0.84900000  1
  H  H30  1  0.94100000  0.01700000  0.44300000  1
  H  H31  1  0.98360000  0.82790000  0.31460000  1
  C  C32  1  0.01050000  0.43230000  0.14980000  1
  C  C33  1  0.01130000  0.57840000  0.91060000  1
  C  C34  1  0.04060000  0.17130000  0.11270000  1
  C  C35  1  0.09330000  0.58090000  0.37020000  1
  C  C36  1  0.09670000  0.87760000  0.00090000  1
  C  C37  1  0.11830000  0.85060000  0.33860000  1
  C  C38  1  0.12480000  0.09360000  0.03240000  1
  C  C39  1  0.14500000  0.83760000  0.39910000  1
  C  C40  1  0.15830000  0.37340000  0.06510000  1
  C  C41  1  0.17370000  0.79800000  0.92130000  1
  C  C42  1  0.17880000  0.90440000  0.06170000  1
  C  C43  1  0.19000000  0.11680000  0.09030000  1
  C  C44  1  0.20780000  0.39740000  0.18610000  1
  C  C45  1  0.22020000  0.54240000  0.95040000  1
  C  C46  1  0.23640000  0.40880000  0.25160000  1
  C  C47  1  0.24670000  0.82410000  0.97810000  1
  C  C48  1  0.25330000  0.32410000  0.52190000  1
  C  C49  1  0.26360000  0.90880000  0.24840000  1
  C  C50  1  0.27980000  0.04240000  0.54960000  1
  C  C51  1  0.29220000  0.89740000  0.31390000  1
  C  C52  1  0.31000000  0.61680000  0.40970000  1
  C  C53  1  0.32120000  0.40440000  0.43830000  1
  C  C54  1  0.32630000  0.29800000  0.57870000  1
  C  C55  1  0.34170000  0.87340000  0.43490000  1
  C  C56  1  0.35500000  0.33760000  0.10090000  1
  C  C57  1  0.37520000  0.59360000  0.46760000  1
  C  C58  1  0.38170000  0.35060000  0.16140000  1
  C  C59  1  0.40330000  0.37760000  0.49910000  1
  C  C60  1  0.40670000  0.08090000  0.12980000  1
  C  C61  1  0.45940000  0.67130000  0.38730000  1
  C  C62  1  0.48870000  0.07840000  0.58940000  1
  C  C63  1  0.48950000  0.93230000  0.35020000  1
  C  C64  1  0.51050000  0.06770000  0.64980000  1
  C  C65  1  0.51130000  0.92160000  0.41060000  1
  C  C66  1  0.54060000  0.32870000  0.61270000  1
  C  C67  1  0.59330000  0.91910000  0.87020000  1
  C  C68  1  0.59670000  0.62240000  0.50090000  1
  C  C69  1  0.61830000  0.64940000  0.83860000  1
  C  C70  1  0.62480000  0.40640000  0.53240000  1
  C  C71  1  0.64500000  0.66240000  0.89910000  1
  C  C72  1  0.65830000  0.12660000  0.56510000  1
  C  C73  1  0.67370000  0.70200000  0.42130000  1
  C  C74  1  0.67880000  0.59560000  0.56170000  1
  C  C75  1  0.69000000  0.38320000  0.59030000  1
  C  C76  1  0.70780000  0.10260000  0.68610000  1
  C  C77  1  0.72020000  0.95760000  0.45040000  1
  C  C78  1  0.73640000  0.09120000  0.75160000  1
  C  C79  1  0.74670000  0.67590000  0.47810000  1
  C  C80  1  0.75330000  0.17590000  0.02190000  1
  C  C81  1  0.76360000  0.59120000  0.74840000  1
  C  C82  1  0.77980000  0.45760000  0.04960000  1
  C  C83  1  0.79220000  0.60260000  0.81390000  1
  C  C84  1  0.81000000  0.88320000  0.90970000  1
  C  C85  1  0.82120000  0.09560000  0.93830000  1
  C  C86  1  0.82630000  0.20200000  0.07870000  1
  C  C87  1  0.84170000  0.62660000  0.93490000  1
  C  C88  1  0.85500000  0.16240000  0.60090000  1
  C  C89  1  0.87520000  0.90640000  0.96760000  1
  C  C90  1  0.88170000  0.14940000  0.66140000  1
  C  C91  1  0.90330000  0.12240000  0.99910000  1
  C  C92  1  0.90670000  0.41910000  0.62980000  1
  C  C93  1  0.95940000  0.82870000  0.88730000  1
  C  C94  1  0.98870000  0.42160000  0.08940000  1
  C  C95  1  0.98950000  0.56770000  0.85020000  1
  N  N96  1  0.01020000  0.21320000  0.57200000  1
  N  N97  1  0.18250000  0.24410000  0.60630000  1
  N  N98  1  0.31750000  0.74410000  0.89370000  1
  N  N99  1  0.48980000  0.71320000  0.92800000  1
  N  N100  1  0.51020000  0.28680000  0.07200000  1
  N  N101  1  0.68250000  0.25590000  0.10630000  1
  N  N102  1  0.81750000  0.75590000  0.39370000  1
  N  N103  1  0.98980000  0.78680000  0.42800000  1
  O  O104  1  0.01040000  0.93850000  0.08825000  1
  O  O105  1  0.03300000  0.46950000  0.60875000  1
  O  O106  1  0.04420000  0.43830000  0.27349000  1
  O  O107  1  0.05120000  0.88830000  0.22040000  1
  O  O108  1  0.05530000  0.60270000  0.31763000  1
  O  O109  1  0.08840000  0.39010000  0.41654000  1
  O  O110  1  0.13710000  0.99520000  0.57360000  1
  O  O111  1  0.24780000  0.05880000  0.49645000  1
  O  O112  1  0.25220000  0.55880000  0.00355000  1
  O  O113  1  0.36290000  0.49520000  0.92640000  1
  O  O114  1  0.41160000  0.89010000  0.08346000  1
  O  O115  1  0.44470000  0.10270000  0.18237000  1
  O  O116  1  0.44880000  0.38830000  0.27960000  1
  O  O117  1  0.45580000  0.93830000  0.22651000  1
  O  O118  1  0.46700000  0.96950000  0.89125000  1
  O  O119  1  0.48960000  0.43850000  0.41175000  1
  O  O120  1  0.51040000  0.56150000  0.58825000  1
  O  O121  1  0.53300000  0.03050000  0.10875000  1
  O  O122  1  0.54420000  0.06170000  0.77349000  1
  O  O123  1  0.55120000  0.61170000  0.72040000  1
  O  O124  1  0.55530000  0.89730000  0.81763000  1
  O  O125  1  0.58840000  0.10990000  0.91654000  1
  O  O126  1  0.63710000  0.50480000  0.07360000  1
  O  O127  1  0.74780000  0.44120000  0.99645000  1
  O  O128  1  0.75220000  0.94120000  0.50355000  1
  O  O129  1  0.86290000  0.00480000  0.42640000  1
  O  O130  1  0.91160000  0.60990000  0.58346000  1
  O  O131  1  0.94470000  0.39730000  0.68237000  1
  O  O132  1  0.94880000  0.11170000  0.77960000  1
  O  O133  1  0.95580000  0.56170000  0.72651000  1
  O  O134  1  0.96700000  0.53050000  0.39125000  1
  O  O135  1  0.98960000  0.06150000  0.91175000  1
