# generated using pymatgen
data_CuH28C36(NO2)4
_symmetry_space_group_name_H-M   'P 1'
_cell_length_a   20.63340000
_cell_length_b   23.03427938
_cell_length_c   23.46988685
_cell_angle_alpha   71.27409468
_cell_angle_beta   63.92343762
_cell_angle_gamma   63.39195436
_symmetry_Int_Tables_number   1
_chemical_formula_structural   CuH28C36(NO2)4
_chemical_formula_sum   'Cu6 H168 C216 N24 O48'
_cell_volume   8850.36573565
_cell_formula_units_Z   6
loop_
 _symmetry_equiv_pos_site_id
 _symmetry_equiv_pos_as_xyz
  1  'x, y, z'
loop_
 _atom_site_type_symbol
 _atom_site_label
 _atom_site_symmetry_multiplicity
 _atom_site_fract_x
 _atom_site_fract_y
 _atom_site_fract_z
 _atom_site_occupancy
  C  C0  1  0.52770000  0.59200000  0.40700000  1
  C  C1  1  0.47330000  0.09200000  0.90700000  1
  C  C2  1  0.86170000  0.02140000  0.97360000  1
  C  C3  1  0.14330000  0.52140000  0.47360000  1
  C  C4  1  0.58290000  0.62690000  0.36790000  1
  C  C5  1  0.42230000  0.12690000  0.86790000  1
  C  C6  1  0.62160000  0.42790000  0.56490000  1
  C  C7  1  0.38560000  0.92790000  0.06490000  1
  C  C8  1  0.85630000  0.10630000  0.88550000  1
  C  C9  1  0.15190000  0.60630000  0.38550000  1
  C  C10  1  0.93120000  0.85910000  0.12290000  1
  C  C11  1  0.08680000  0.35910000  0.62290000  1
  C  C12  1  0.98750000  0.89260000  0.08440000  1
  C  C13  1  0.03550000  0.39260000  0.58440000  1
  C  C14  1  0.89260000  0.41890000  0.55570000  1
  C  C15  1  0.13280000  0.91890000  0.05570000  1
  C  C16  1  0.66570000  0.45720000  0.50980000  1
  C  C17  1  0.36730000  0.95720000  0.00980000  1
  C  C18  1  0.89890000  0.60550000  0.35090000  1
  C  C19  1  0.14470000  0.10550000  0.85090000  1
  C  C20  1  0.84990000  0.63860000  0.31520000  1
  C  C21  1  0.19630000  0.13860000  0.81520000  1
  C  C22  1  0.65850000  0.36310000  0.58910000  1
  C  C23  1  0.38930000  0.86310000  0.08910000  1
  C  C24  1  0.70550000  0.81550000  0.13430000  1
  C  C25  1  0.34470000  0.31550000  0.63430000  1
  C  C26  1  0.65810000  0.84960000  0.09960000  1
  C  C27  1  0.39270000  0.34960000  0.59960000  1
  C  C28  1  0.65980000  0.67130000  0.27030000  1
  C  C29  1  0.39860000  0.17130000  0.77030000  1
  C  C30  1  0.60970000  0.63800000  0.30280000  1
  C  C31  1  0.44950000  0.13800000  0.80280000  1
  C  C32  1  0.60460000  0.03280000  0.90140000  1
  C  C33  1  0.46120000  0.53280000  0.40140000  1
  C  C34  1  0.84500000  0.98600000  0.94720000  1
  C  C35  1  0.22180000  0.48600000  0.44720000  1
  C  C36  1  0.83910000  0.07460000  0.85760000  1
  C  C37  1  0.22870000  0.57460000  0.35760000  1
  C  C38  1  0.90010000  0.76300000  0.16820000  1
  C  C39  1  0.16870000  0.26300000  0.66820000  1
  C  C40  1  0.95380000  0.79240000  0.13260000  1
  C  C41  1  0.12120000  0.29240000  0.63260000  1
  C  C42  1  0.97770000  0.38260000  0.52300000  1
  C  C43  1  0.11670000  0.88260000  0.02300000  1
  C  C44  1  0.82600000  0.10800000  0.79600000  1
  C  C45  1  0.27000000  0.60800000  0.29600000  1
  C  C46  1  0.74260000  0.42530000  0.47830000  1
  C  C47  1  0.35380000  0.92530000  0.97830000  1
  C  C48  1  0.83960000  0.92170000  0.98110000  1
  C  C49  1  0.25760000  0.42170000  0.48110000  1
  C  C50  1  0.83500000  0.01270000  0.88830000  1
  C  C51  1  0.26400000  0.51270000  0.38830000  1
  C  C52  1  0.73520000  0.32990000  0.56050000  1
  C  C53  1  0.37440000  0.82990000  0.06050000  1
  C  C54  1  0.78560000  0.45740000  0.41800000  1
  C  C55  1  0.33900000  0.95740000  0.91800000  1
  C  C56  1  0.77890000  0.36000000  0.50280000  1
  C  C57  1  0.35830000  0.86000000  0.00280000  1
  C  C58  1  0.76900000  0.25200000  0.58800000  1
  C  C59  1  0.39100000  0.75200000  0.08800000  1
  C  C60  1  0.92380000  0.81010000  0.98270000  1
  C  C61  1  0.28340000  0.31010000  0.48270000  1
  C  C62  1  0.78820000  0.47970000  0.31150000  1
  C  C63  1  0.42060000  0.97970000  0.81150000  1
  C  C64  1  0.89900000  0.21900000  0.56900000  1
  C  C65  1  0.31300000  0.71900000  0.06900000  1
  C  C66  1  0.82700000  0.07400000  0.71200000  1
  C  C67  1  0.38700000  0.57400000  0.21200000  1
  C  C68  1  0.00440000  0.76420000  0.95860000  1
  C  C69  1  0.27280000  0.26420000  0.45860000  1
  C  C70  1  0.80400000  0.03200000  0.69000000  1
  C  C71  1  0.78150000  0.45760000  0.26440000  1
  C  C72  1  0.49650000  0.95760000  0.76440000  1
  C  C73  1  0.47400000  0.53200000  0.19000000  1
  C  C74  1  0.75520000  0.50160000  0.21720000  1
  C  C75  1  0.52600000  0.00160000  0.71720000  1
  C  C76  1  0.98150000  0.19000000  0.52700000  1
  C  C77  1  0.30150000  0.69000000  0.02700000  1
  C  C78  1  0.06660000  0.78250000  0.93330000  1
  C  C79  1  0.21760000  0.28250000  0.43330000  1
  C  C80  1  0.03980000  0.16540000  0.54900000  1
  C  C81  1  0.24580000  0.66540000  0.04900000  1
  C  C82  1  0.78330000  0.98230000  0.73030000  1
  C  C83  1  0.50410000  0.48230000  0.23030000  1
  C  C84  1  0.81420000  0.04260000  0.62700000  1
  C  C85  1  0.51620000  0.54260000  0.12700000  1
  C  C86  1  0.01760000  0.69960000  0.96160000  1
  C  C87  1  0.32120000  0.19960000  0.46160000  1
  C  C88  1  0.79710000  0.39250000  0.26510000  1
  C  C89  1  0.54530000  0.89250000  0.76510000  1
  C  C90  1  0.99720000  0.18760000  0.46600000  1
  C  C91  1  0.34920000  0.68760000  0.96600000  1
  C  C92  1  0.74540000  0.48110000  0.17230000  1
  C  C93  1  0.60120000  0.98110000  0.67230000  1
  C  C94  1  0.76750000  0.94510000  0.70790000  1
  C  C95  1  0.57950000  0.44510000  0.20790000  1
  C  C96  1  0.14010000  0.73700000  0.91300000  1
  C  C97  1  0.20990000  0.23700000  0.41300000  1
  C  C98  1  0.11470000  0.13960000  0.50620000  1
  C  C99  1  0.23950000  0.63960000  0.00620000  1
  C  C100  1  0.79540000  0.00260000  0.60660000  1
  C  C101  1  0.59540000  0.50260000  0.10660000  1
  C  C102  1  0.09220000  0.65740000  0.93700000  1
  C  C103  1  0.31340000  0.15740000  0.43700000  1
  C  C104  1  0.78820000  0.37430000  0.21970000  1
  C  C105  1  0.61780000  0.87430000  0.71970000  1
  C  C106  1  0.07600000  0.15800000  0.42600000  1
  C  C107  1  0.34000000  0.65800000  0.92600000  1
  C  C108  1  0.92400000  0.84200000  0.57400000  1
  C  C109  1  0.66000000  0.34200000  0.07400000  1
  C  C110  1  0.21180000  0.62570000  0.78030000  1
  C  C111  1  0.38220000  0.12570000  0.28030000  1
  C  C112  1  0.90780000  0.34260000  0.06300000  1
  C  C113  1  0.68660000  0.84260000  0.56300000  1
  C  C114  1  0.20460000  0.99740000  0.39340000  1
  C  C115  1  0.40460000  0.49740000  0.89340000  1
  C  C116  1  0.88530000  0.86040000  0.49380000  1
  C  C117  1  0.76050000  0.36040000  0.99380000  1
  C  C118  1  0.85990000  0.26300000  0.08700000  1
  C  C119  1  0.79010000  0.76300000  0.58700000  1
  C  C120  1  0.23250000  0.05490000  0.29210000  1
  C  C121  1  0.42050000  0.55490000  0.79210000  1
  C  C122  1  0.25460000  0.51890000  0.82770000  1
  C  C123  1  0.39880000  0.01890000  0.32770000  1
  C  C124  1  0.00280000  0.81240000  0.53400000  1
  C  C125  1  0.65080000  0.31240000  0.03400000  1
  C  C126  1  0.20290000  0.60750000  0.73490000  1
  C  C127  1  0.45470000  0.10750000  0.23490000  1
  C  C128  1  0.98240000  0.30040000  0.03840000  1
  C  C129  1  0.67880000  0.80040000  0.53840000  1
  C  C130  1  0.18580000  0.95740000  0.37300000  1
  C  C131  1  0.48380000  0.45740000  0.87300000  1
  C  C132  1  0.21670000  0.01770000  0.26970000  1
  C  C133  1  0.49590000  0.51770000  0.76970000  1
  C  C134  1  0.96020000  0.83460000  0.45100000  1
  C  C135  1  0.75420000  0.33460000  0.95100000  1
  C  C136  1  0.93340000  0.21750000  0.06670000  1
  C  C137  1  0.78240000  0.71750000  0.56670000  1
  C  C138  1  0.01850000  0.81000000  0.47300000  1
  C  C139  1  0.69850000  0.31000000  0.97300000  1
  C  C140  1  0.24480000  0.49840000  0.78280000  1
  C  C141  1  0.47400000  0.99840000  0.28280000  1
  C  C142  1  0.21850000  0.54240000  0.73560000  1
  C  C143  1  0.19600000  0.96800000  0.31000000  1
  C  C144  1  0.52600000  0.46800000  0.81000000  1
  C  C145  1  0.50350000  0.04240000  0.23560000  1
  C  C146  1  0.99560000  0.23580000  0.04140000  1
  C  C147  1  0.72720000  0.73580000  0.54140000  1
  C  C148  1  0.17300000  0.92600000  0.28800000  1
  C  C149  1  0.61300000  0.42600000  0.78800000  1
  C  C150  1  0.10100000  0.78100000  0.43100000  1
  C  C151  1  0.68700000  0.28100000  0.93100000  1
  C  C152  1  0.21180000  0.52030000  0.68850000  1
  C  C153  1  0.57940000  0.02030000  0.18850000  1
  C  C154  1  0.07620000  0.18990000  0.01730000  1
  C  C155  1  0.71660000  0.68990000  0.51730000  1
  C  C156  1  0.23100000  0.74800000  0.41200000  1
  C  C157  1  0.60900000  0.24800000  0.91200000  1
  C  C158  1  0.22110000  0.64000000  0.49720000  1
  C  C159  1  0.64170000  0.14000000  0.99720000  1
  C  C160  1  0.21440000  0.54260000  0.58200000  1
  C  C161  1  0.66100000  0.04260000  0.08200000  1
  C  C162  1  0.26480000  0.67010000  0.43950000  1
  C  C163  1  0.62560000  0.17010000  0.93950000  1
  C  C164  1  0.16500000  0.98730000  0.11170000  1
  C  C165  1  0.73600000  0.48730000  0.61170000  1
  C  C166  1  0.16040000  0.07830000  0.01890000  1
  C  C167  1  0.74240000  0.57830000  0.51890000  1
  C  C168  1  0.25740000  0.57470000  0.52170000  1
  C  C169  1  0.64620000  0.07470000  0.02170000  1
  C  C170  1  0.17400000  0.89200000  0.20400000  1
  C  C171  1  0.73000000  0.39200000  0.70400000  1
  C  C172  1  0.02230000  0.61740000  0.47700000  1
  C  C173  1  0.88330000  0.11740000  0.97700000  1
  C  C174  1  0.04620000  0.20760000  0.86740000  1
  C  C175  1  0.87880000  0.70760000  0.36740000  1
  C  C176  1  0.09990000  0.23700000  0.83180000  1
  C  C177  1  0.83130000  0.73700000  0.33180000  1
  C  C178  1  0.16090000  0.92540000  0.14240000  1
  C  C179  1  0.77130000  0.42540000  0.64240000  1
  C  C180  1  0.15500000  0.01400000  0.05280000  1
  C  C181  1  0.77820000  0.51400000  0.55280000  1
  C  C182  1  0.39540000  0.96720000  0.09860000  1
  C  C183  1  0.53880000  0.46720000  0.59860000  1
  C  C184  1  0.39030000  0.36200000  0.69720000  1
  C  C185  1  0.55050000  0.86200000  0.19720000  1
  C  C186  1  0.34020000  0.32870000  0.72970000  1
  C  C187  1  0.60140000  0.82870000  0.22970000  1
  C  C188  1  0.34190000  0.15040000  0.90040000  1
  C  C189  1  0.60730000  0.65040000  0.40040000  1
  C  C190  1  0.29450000  0.18450000  0.86570000  1
  C  C191  1  0.65530000  0.68450000  0.36570000  1
  C  C192  1  0.34150000  0.63690000  0.41090000  1
  C  C193  1  0.61070000  0.13690000  0.91090000  1
  C  C194  1  0.15010000  0.36140000  0.68480000  1
  C  C195  1  0.80370000  0.86140000  0.18480000  1
  C  C196  1  0.10110000  0.39450000  0.64910000  1
  C  C197  1  0.85530000  0.89450000  0.14910000  1
  C  C198  1  0.33430000  0.54280000  0.49020000  1
  C  C199  1  0.63270000  0.04280000  0.99020000  1
  C  C200  1  0.10740000  0.58110000  0.44430000  1
  C  C201  1  0.86720000  0.08110000  0.94430000  1
  C  C202  1  0.01250000  0.10740000  0.91560000  1
  C  C203  1  0.96450000  0.60740000  0.41560000  1
  C  C204  1  0.06880000  0.14090000  0.87710000  1
  C  C205  1  0.91320000  0.64090000  0.37710000  1
  C  C206  1  0.14370000  0.89370000  0.11450000  1
  C  C207  1  0.84810000  0.39370000  0.61450000  1
  C  C208  1  0.37840000  0.57210000  0.43510000  1
  C  C209  1  0.61440000  0.07210000  0.93510000  1
  C  C210  1  0.41710000  0.37310000  0.63210000  1
  C  C211  1  0.57770000  0.87310000  0.13210000  1
  C  C212  1  0.13830000  0.97860000  0.02640000  1
  C  C213  1  0.85670000  0.47860000  0.52640000  1
  C  C214  1  0.47230000  0.40800000  0.59300000  1
  C  C215  1  0.52670000  0.90800000  0.09300000  1
  Cu  Cu216  1  0.75010000  0.75000000  0.25000000  1
  Cu  Cu217  1  0.24990000  0.25000000  0.75000000  1
  Cu  Cu218  1  0.75708000  0.89216000  0.61360000  1
  Cu  Cu219  1  0.73716000  0.39216000  0.11360000  1
  Cu  Cu220  1  0.24292000  0.10784000  0.38640000  1
  Cu  Cu221  1  0.26284000  0.60784000  0.88640000  1
  H  H222  1  0.64150000  0.50140000  0.49300000  1
  H  H223  1  0.36410000  0.00140000  0.99300000  1
  H  H224  1  0.87270000  0.35240000  0.63600000  1
  H  H225  1  0.13890000  0.85240000  0.13600000  1
  H  H226  1  0.88630000  0.49680000  0.48640000  1
  H  H227  1  0.13050000  0.99680000  0.98640000  1
  H  H228  1  0.62930000  0.34160000  0.62640000  1
  H  H229  1  0.40270000  0.84160000  0.12640000  1
  H  H230  1  0.78090000  0.14910000  0.80270000  1
  H  H231  1  0.26730000  0.64910000  0.30270000  1
  H  H232  1  0.81830000  0.92110000  0.02810000  1
  H  H233  1  0.23250000  0.42110000  0.52810000  1
  H  H234  1  0.58720000  0.99750000  0.93290000  1
  H  H235  1  0.48240000  0.49750000  0.43290000  1
  H  H236  1  0.76180000  0.50570000  0.41630000  1
  H  H237  1  0.31620000  0.00570000  0.91630000  1
  H  H238  1  0.92180000  0.55900000  0.35660000  1
  H  H239  1  0.16260000  0.05900000  0.85660000  1
  H  H240  1  0.67900000  0.85750000  0.05410000  1
  H  H241  1  0.40940000  0.35750000  0.55410000  1
  H  H242  1  0.75970000  0.79920000  0.11220000  1
  H  H243  1  0.32890000  0.29920000  0.61220000  1
  H  H244  1  0.84000000  0.61330000  0.29710000  1
  H  H245  1  0.24960000  0.11330000  0.79710000  1
  H  H246  1  0.59390000  0.62260000  0.27980000  1
  H  H247  1  0.50370000  0.12260000  0.77980000  1
  H  H248  1  0.68010000  0.67730000  0.22470000  1
  H  H249  1  0.41790000  0.17730000  0.72470000  1
  H  H250  1  0.00010000  0.41350000  0.48790000  1
  H  H251  1  0.09850000  0.91350000  0.98790000  1
  H  H252  1  0.91670000  0.71640000  0.17440000  1
  H  H253  1  0.19250000  0.21640000  0.67440000  1
  H  H254  1  0.87220000  0.11840000  0.76460000  1
  H  H255  1  0.24480000  0.61840000  0.26460000  1
  H  H256  1  0.80510000  0.91240000  0.96920000  1
  H  H257  1  0.31330000  0.41240000  0.46920000  1
  H  H258  1  0.65490000  0.01200000  0.86900000  1
  H  H259  1  0.46410000  0.51200000  0.36900000  1
  H  H260  1  0.00690000  0.76620000  0.11460000  1
  H  H261  1  0.11230000  0.26620000  0.61460000  1
  H  H262  1  0.76390000  0.24610000  0.63330000  1
  H  H263  1  0.35670000  0.74610000  0.13330000  1
  H  H264  1  0.83980000  0.44310000  0.41490000  1
  H  H265  1  0.30220000  0.94310000  0.91490000  1
  H  H266  1  0.82520000  0.98880000  0.86860000  1
  H  H267  1  0.31740000  0.48880000  0.36860000  1
  H  H268  1  0.98370000  0.34750000  0.50350000  1
  H  H269  1  0.16530000  0.84750000  0.00350000  1
  H  H270  1  0.83180000  0.33620000  0.48120000  1
  H  H271  1  0.35080000  0.83620000  0.98120000  1
  H  H272  1  0.73890000  0.22920000  0.58640000  1
  H  H273  1  0.44550000  0.72920000  0.08640000  1
  H  H274  1  0.74320000  0.54700000  0.21480000  1
  H  H275  1  0.49500000  0.04700000  0.71480000  1
  H  H276  1  0.03060000  0.16550000  0.59230000  1
  H  H277  1  0.21160000  0.66550000  0.09230000  1
  H  H278  1  0.05940000  0.82710000  0.92970000  1
  H  H279  1  0.18380000  0.32710000  0.42970000  1
  H  H280  1  0.77990000  0.97320000  0.77380000  1
  H  H281  1  0.47310000  0.47320000  0.27380000  1
  H  H282  1  0.83350000  0.07540000  0.59780000  1
  H  H283  1  0.49330000  0.57540000  0.09780000  1
  H  H284  1  0.97580000  0.68420000  0.98060000  1
  H  H285  1  0.35940000  0.18420000  0.48060000  1
  H  H286  1  0.81430000  0.35980000  0.29760000  1
  H  H287  1  0.52830000  0.85980000  0.79760000  1
  H  H288  1  0.95630000  0.20540000  0.44900000  1
  H  H289  1  0.38930000  0.70540000  0.94900000  1
  H  H290  1  0.72800000  0.51290000  0.13950000  1
  H  H291  1  0.61960000  0.01290000  0.63950000  1
  H  H292  1  0.16890000  0.25090000  0.39750000  1
  H  H293  1  0.75030000  0.91110000  0.73730000  1
  H  H294  1  0.60130000  0.41110000  0.23730000  1
  H  H295  1  0.18270000  0.75090000  0.89750000  1
  H  H296  1  0.15630000  0.12300000  0.52160000  1
  H  H297  1  0.19910000  0.62300000  0.02160000  1
  H  H298  1  0.79770000  0.01150000  0.56350000  1
  H  H299  1  0.62730000  0.51150000  0.06350000  1
  H  H300  1  0.10020000  0.61370000  0.93610000  1
  H  H301  1  0.35000000  0.11370000  0.43610000  1
  H  H302  1  0.80240000  0.32900000  0.21980000  1
  H  H303  1  0.64880000  0.82900000  0.71980000  1
  H  H304  1  0.08680000  0.15450000  0.38310000  1
  H  H305  1  0.37560000  0.65450000  0.88310000  1
  H  H306  1  0.91320000  0.84550000  0.61690000  1
  H  H307  1  0.62440000  0.34550000  0.11690000  1
  H  H308  1  0.19760000  0.67100000  0.78020000  1
  H  H309  1  0.35120000  0.17100000  0.28020000  1
  H  H310  1  0.89980000  0.38630000  0.06390000  1
  H  H311  1  0.65000000  0.88630000  0.56390000  1
  H  H312  1  0.20230000  0.98850000  0.43650000  1
  H  H313  1  0.37270000  0.48850000  0.93650000  1
  H  H314  1  0.84370000  0.87700000  0.47840000  1
  H  H315  1  0.80090000  0.37700000  0.97840000  1
  H  H316  1  0.24970000  0.08890000  0.26270000  1
  H  H317  1  0.83110000  0.74910000  0.60250000  1
  H  H318  1  0.81730000  0.24910000  0.10250000  1
  H  H319  1  0.39870000  0.58890000  0.76270000  1
  H  H320  1  0.27200000  0.48710000  0.86050000  1
  H  H321  1  0.38040000  0.98710000  0.36050000  1
  H  H322  1  0.04370000  0.79460000  0.55100000  1
  H  H323  1  0.61070000  0.29460000  0.05100000  1
  H  H324  1  0.18570000  0.64020000  0.70240000  1
  H  H325  1  0.47170000  0.14020000  0.20240000  1
  H  H326  1  0.02420000  0.31580000  0.01940000  1
  H  H327  1  0.64060000  0.81580000  0.51940000  1
  H  H328  1  0.16650000  0.92460000  0.40220000  1
  H  H329  1  0.50670000  0.42460000  0.90220000  1
  H  H330  1  0.22010000  0.02680000  0.22620000  1
  H  H331  1  0.52690000  0.52680000  0.72620000  1
  H  H332  1  0.94060000  0.17290000  0.07030000  1
  H  H333  1  0.81620000  0.67290000  0.57030000  1
  H  H334  1  0.96940000  0.83450000  0.40770000  1
  H  H335  1  0.78840000  0.33450000  0.90770000  1
  H  H336  1  0.25680000  0.45300000  0.78520000  1
  H  H337  1  0.50500000  0.95300000  0.28520000  1
  H  H338  1  0.26110000  0.77080000  0.41360000  1
  H  H339  1  0.55450000  0.27080000  0.91360000  1
  H  H340  1  0.16820000  0.66380000  0.51880000  1
  H  H341  1  0.64920000  0.16380000  0.01880000  1
  H  H342  1  0.01630000  0.65250000  0.49650000  1
  H  H343  1  0.83470000  0.15250000  0.99650000  1
  H  H344  1  0.17480000  0.01120000  0.13140000  1
  H  H345  1  0.68260000  0.51120000  0.63140000  1
  H  H346  1  0.16020000  0.55690000  0.58510000  1
  H  H347  1  0.69780000  0.05690000  0.08510000  1
  H  H348  1  0.23610000  0.75390000  0.36670000  1
  H  H349  1  0.64330000  0.25390000  0.86670000  1
  H  H350  1  0.99310000  0.23380000  0.88540000  1
  H  H351  1  0.88770000  0.73380000  0.38540000  1
  H  H352  1  0.34510000  0.98800000  0.13100000  1
  H  H353  1  0.53590000  0.48800000  0.63100000  1
  H  H354  1  0.19490000  0.08760000  0.03080000  1
  H  H355  1  0.68670000  0.58760000  0.53080000  1
  H  H356  1  0.12780000  0.88160000  0.23540000  1
  H  H357  1  0.75520000  0.38160000  0.73540000  1
  H  H358  1  0.08330000  0.28360000  0.82560000  1
  H  H359  1  0.80750000  0.78360000  0.32560000  1
  H  H360  1  0.99990000  0.58650000  0.51210000  1
  H  H361  1  0.90150000  0.08650000  0.01210000  1
  H  H362  1  0.31990000  0.32270000  0.77530000  1
  H  H363  1  0.58210000  0.82270000  0.27530000  1
  H  H364  1  0.40610000  0.37740000  0.72020000  1
  H  H365  1  0.49630000  0.87740000  0.22020000  1
  H  H366  1  0.16000000  0.38670000  0.70290000  1
  H  H367  1  0.75040000  0.88670000  0.20290000  1
  H  H368  1  0.24030000  0.20080000  0.88780000  1
  H  H369  1  0.67110000  0.70080000  0.38780000  1
  H  H370  1  0.32100000  0.14250000  0.94590000  1
  H  H371  1  0.59060000  0.64250000  0.44590000  1
  H  H372  1  0.07820000  0.44100000  0.64340000  1
  H  H373  1  0.83740000  0.94100000  0.14340000  1
  H  H374  1  0.23820000  0.49430000  0.58370000  1
  H  H375  1  0.68380000  0.99430000  0.08370000  1
  H  H376  1  0.41280000  0.00250000  0.06710000  1
  H  H377  1  0.51760000  0.50250000  0.56710000  1
  H  H378  1  0.18170000  0.07890000  0.97190000  1
  H  H379  1  0.76750000  0.57890000  0.47190000  1
  H  H380  1  0.21910000  0.85090000  0.19730000  1
  H  H381  1  0.73270000  0.35090000  0.69730000  1
  H  H382  1  0.37070000  0.65840000  0.37360000  1
  H  H383  1  0.59730000  0.15840000  0.87360000  1
  H  H384  1  0.11370000  0.50320000  0.51360000  1
  H  H385  1  0.86950000  0.00320000  0.01360000  1
  H  H386  1  0.12730000  0.64760000  0.36400000  1
  H  H387  1  0.86110000  0.14760000  0.86400000  1
  H  H388  1  0.35850000  0.49860000  0.50700000  1
  H  H389  1  0.63590000  0.99860000  0.00700000  1
  N  N390  1  0.68090000  0.69620000  0.30180000  1
  N  N391  1  0.32110000  0.19620000  0.80180000  1
  N  N392  1  0.82510000  0.79760000  0.19460000  1
  N  N393  1  0.18270000  0.29760000  0.69460000  1
  N  N394  1  0.77460000  0.95300000  0.64660000  1
  N  N395  1  0.62580000  0.45300000  0.14660000  1
  N  N396  1  0.75980000  0.41910000  0.17470000  1
  N  N397  1  0.64640000  0.91910000  0.67470000  1
  N  N398  1  0.15380000  0.67450000  0.91410000  1
  N  N399  1  0.25760000  0.17450000  0.41410000  1
  N  N400  1  0.13110000  0.13680000  0.44660000  1
  N  N401  1  0.28550000  0.63680000  0.94660000  1
  N  N402  1  0.86890000  0.86320000  0.55340000  1
  N  N403  1  0.71450000  0.36320000  0.05340000  1
  N  N404  1  0.84620000  0.32550000  0.08590000  1
  N  N405  1  0.74240000  0.82550000  0.58590000  1
  N  N406  1  0.24020000  0.58090000  0.82530000  1
  N  N407  1  0.35360000  0.08090000  0.32530000  1
  N  N408  1  0.22540000  0.04700000  0.35340000  1
  N  N409  1  0.37420000  0.54700000  0.85340000  1
  N  N410  1  0.17490000  0.20240000  0.80540000  1
  N  N411  1  0.81730000  0.70240000  0.30540000  1
  N  N412  1  0.31910000  0.30380000  0.69820000  1
  N  N413  1  0.67890000  0.80380000  0.19820000  1
  O  O414  1  0.99040000  0.54560000  0.42960000  1
  O  O415  1  0.03440000  0.04560000  0.92960000  1
  O  O416  1  0.54970000  0.92340000  0.03580000  1
  O  O417  1  0.49110000  0.42340000  0.53580000  1
  O  O418  1  0.54720000  0.07550000  0.86970000  1
  O  O419  1  0.50760000  0.57550000  0.36970000  1
  O  O420  1  0.02050000  0.35360000  0.56740000  1
  O  O421  1  0.05850000  0.85360000  0.06740000  1
  O  O422  1  0.88680000  0.23940000  0.61500000  1
  O  O423  1  0.25880000  0.73940000  0.11500000  1
  O  O424  1  0.81350000  0.06340000  0.77300000  1
  O  O425  1  0.35010000  0.56340000  0.27300000  1
  O  O426  1  0.91840000  0.87170000  0.96230000  1
  O  O427  1  0.79570000  0.53150000  0.30250000  1
  O  O428  1  0.37030000  0.03150000  0.80250000  1
  O  O429  1  0.24760000  0.37170000  0.46230000  1
  O  O430  1  0.87050000  0.79180000  0.01700000  1
  O  O431  1  0.32070000  0.29180000  0.51700000  1
  O  O432  1  0.78340000  0.43940000  0.36560000  1
  O  O433  1  0.41160000  0.93940000  0.86560000  1
  O  O434  1  0.85400000  0.11400000  0.67200000  1
  O  O435  1  0.36000000  0.61400000  0.17200000  1
  O  O436  1  0.84910000  0.22560000  0.54840000  1
  O  O437  1  0.37690000  0.72560000  0.04840000  1
  O  O438  1  0.15090000  0.77440000  0.45160000  1
  O  O439  1  0.62310000  0.27440000  0.95160000  1
  O  O440  1  0.14600000  0.88600000  0.32800000  1
  O  O441  1  0.64000000  0.38600000  0.82800000  1
  O  O442  1  0.21660000  0.56060000  0.63440000  1
  O  O443  1  0.58840000  0.06060000  0.13440000  1
  O  O444  1  0.12950000  0.20820000  0.98300000  1
  O  O445  1  0.67930000  0.70820000  0.48300000  1
  O  O446  1  0.20430000  0.46850000  0.69750000  1
  O  O447  1  0.08160000  0.12830000  0.03770000  1
  O  O448  1  0.75240000  0.62830000  0.53770000  1
  O  O449  1  0.62970000  0.96850000  0.19750000  1
  O  O450  1  0.18650000  0.93660000  0.22700000  1
  O  O451  1  0.64990000  0.43660000  0.72700000  1
  O  O452  1  0.11320000  0.76060000  0.38500000  1
  O  O453  1  0.74120000  0.26060000  0.88500000  1
  O  O454  1  0.97950000  0.64640000  0.43260000  1
  O  O455  1  0.94150000  0.14640000  0.93260000  1
  O  O456  1  0.45280000  0.92450000  0.13030000  1
  O  O457  1  0.49240000  0.42450000  0.63030000  1
  O  O458  1  0.45030000  0.07660000  0.96420000  1
  O  O459  1  0.50890000  0.57660000  0.46420000  1
  O  O460  1  0.00960000  0.45440000  0.57040000  1
  O  O461  1  0.96560000  0.95440000  0.07040000  1
