# generated using pymatgen
data_Fe3H24C42N6O13
_symmetry_space_group_name_H-M   'P 1'
_cell_length_a   18.69960000
_cell_length_b   18.69960000
_cell_length_c   28.85720000
_cell_angle_alpha   90.00000000
_cell_angle_beta   90.00000000
_cell_angle_gamma   120.00000000
_symmetry_Int_Tables_number   1
_chemical_formula_structural   Fe3H24C42N6O13
_chemical_formula_sum   'Fe18 H144 C252 N36 O78'
_cell_volume   8738.75280518
_cell_formula_units_Z   6
loop_
 _symmetry_equiv_pos_site_id
 _symmetry_equiv_pos_as_xyz
  1  'x, y, z'
loop_
 _atom_site_type_symbol
 _atom_site_label
 _atom_site_symmetry_multiplicity
 _atom_site_fract_x
 _atom_site_fract_y
 _atom_site_fract_z
 _atom_site_occupancy
  Fe  Fe0  1  0.94080000  0.05920000  0.66190000  1
  Fe  Fe1  1  0.94080000  0.88160000  0.66190000  1
  Fe  Fe2  1  0.88160000  0.94080000  0.16190000  1
  Fe  Fe3  1  0.78420000  0.39210000  0.66240000  1
  Fe  Fe4  1  0.72570000  0.27430000  0.19370000  1
  Fe  Fe5  1  0.72570000  0.45140000  0.19370000  1
  Fe  Fe6  1  0.60790000  0.21580000  0.66240000  1
  Fe  Fe7  1  0.60790000  0.39210000  0.66240000  1
  Fe  Fe8  1  0.54860000  0.27430000  0.19370000  1
  Fe  Fe9  1  0.45140000  0.72570000  0.69370000  1
  Fe  Fe10  1  0.39210000  0.60790000  0.16240000  1
  Fe  Fe11  1  0.39210000  0.78420000  0.16240000  1
  Fe  Fe12  1  0.27430000  0.54860000  0.69370000  1
  Fe  Fe13  1  0.27430000  0.72570000  0.69370000  1
  Fe  Fe14  1  0.21580000  0.60790000  0.16240000  1
  Fe  Fe15  1  0.11840000  0.05920000  0.66190000  1
  Fe  Fe16  1  0.05920000  0.11840000  0.16190000  1
  Fe  Fe17  1  0.05920000  0.94080000  0.16190000  1
  H  H18  1  0.99360000  0.20510000  0.54050000  1
  H  H19  1  0.99360000  0.78850000  0.54050000  1
  H  H20  1  0.99000000  0.19750000  0.78350000  1
  H  H21  1  0.99000000  0.79250000  0.78350000  1
  H  H22  1  0.98420000  0.23290000  0.35980000  1
  H  H23  1  0.98420000  0.75130000  0.35980000  1
  H  H24  1  0.97760000  0.23960000  0.96510000  1
  H  H25  1  0.97760000  0.73800000  0.96510000  1
  H  H26  1  0.95980000  0.37140000  0.01110000  1
  H  H27  1  0.95980000  0.58840000  0.01110000  1
  H  H28  1  0.95320000  0.36800000  0.38060000  1
  H  H29  1  0.95320000  0.58520000  0.38060000  1
  H  H30  1  0.90800000  0.30910000  0.47040000  1
  H  H31  1  0.90800000  0.59890000  0.47040000  1
  H  H32  1  0.90160000  0.31550000  0.86340000  1
  H  H33  1  0.90160000  0.58610000  0.86340000  1
  H  H34  1  0.87740000  0.34020000  0.54430000  1
  H  H35  1  0.87740000  0.53720000  0.54430000  1
  H  H36  1  0.87490000  0.34300000  0.78750000  1
  H  H37  1  0.87490000  0.53190000  0.78750000  1
  H  H38  1  0.87250000  0.32740000  0.07650000  1
  H  H39  1  0.87250000  0.54510000  0.07650000  1
  H  H40  1  0.87050000  0.32640000  0.31340000  1
  H  H41  1  0.87050000  0.54410000  0.31340000  1
  H  H42  1  0.80250000  0.01000000  0.78350000  1
  H  H43  1  0.80250000  0.79250000  0.78350000  1
  H  H44  1  0.79490000  0.00640000  0.54050000  1
  H  H45  1  0.79490000  0.78850000  0.54050000  1
  H  H46  1  0.79250000  0.80250000  0.28350000  1
  H  H47  1  0.79250000  0.99000000  0.28350000  1
  H  H48  1  0.78850000  0.79490000  0.04050000  1
  H  H49  1  0.78850000  0.99360000  0.04050000  1
  H  H50  1  0.76710000  0.01580000  0.35980000  1
  H  H51  1  0.76710000  0.75130000  0.35980000  1
  H  H52  1  0.76040000  0.02240000  0.96510000  1
  H  H53  1  0.76040000  0.73800000  0.96510000  1
  H  H54  1  0.75130000  0.76710000  0.85980000  1
  H  H55  1  0.75130000  0.98420000  0.85980000  1
  H  H56  1  0.73800000  0.76040000  0.46510000  1
  H  H57  1  0.73800000  0.97760000  0.46510000  1
  H  H58  1  0.69090000  0.09200000  0.47040000  1
  H  H59  1  0.69090000  0.59890000  0.47040000  1
  H  H60  1  0.68450000  0.09840000  0.86340000  1
  H  H61  1  0.68450000  0.58610000  0.86340000  1
  H  H62  1  0.67360000  0.12950000  0.31340000  1
  H  H63  1  0.67360000  0.54410000  0.31340000  1
  H  H64  1  0.67260000  0.12750000  0.07650000  1
  H  H65  1  0.67260000  0.54510000  0.07650000  1
  H  H66  1  0.65980000  0.12260000  0.54430000  1
  H  H67  1  0.65980000  0.53720000  0.54430000  1
  H  H68  1  0.65700000  0.12510000  0.78750000  1
  H  H69  1  0.65700000  0.53190000  0.78750000  1
  H  H70  1  0.63200000  0.04680000  0.38060000  1
  H  H71  1  0.63200000  0.58520000  0.38060000  1
  H  H72  1  0.62860000  0.04020000  0.01110000  1
  H  H73  1  0.62860000  0.58840000  0.01110000  1
  H  H74  1  0.59890000  0.69090000  0.97040000  1
  H  H75  1  0.59890000  0.90800000  0.97040000  1
  H  H76  1  0.58840000  0.62860000  0.51110000  1
  H  H77  1  0.58840000  0.95980000  0.51110000  1
  H  H78  1  0.58610000  0.68450000  0.36340000  1
  H  H79  1  0.58610000  0.90160000  0.36340000  1
  H  H80  1  0.58520000  0.63200000  0.88060000  1
  H  H81  1  0.58520000  0.95320000  0.88060000  1
  H  H82  1  0.54510000  0.67260000  0.57650000  1
  H  H83  1  0.54510000  0.87250000  0.57650000  1
  H  H84  1  0.54410000  0.67360000  0.81340000  1
  H  H85  1  0.54410000  0.87050000  0.81340000  1
  H  H86  1  0.53720000  0.65980000  0.04430000  1
  H  H87  1  0.53720000  0.87740000  0.04430000  1
  H  H88  1  0.53190000  0.65700000  0.28750000  1
  H  H89  1  0.53190000  0.87490000  0.28750000  1
  H  H90  1  0.46810000  0.12510000  0.78750000  1
  H  H91  1  0.46810000  0.34300000  0.78750000  1
  H  H92  1  0.46280000  0.12260000  0.54430000  1
  H  H93  1  0.46280000  0.34020000  0.54430000  1
  H  H94  1  0.45590000  0.12950000  0.31340000  1
  H  H95  1  0.45590000  0.32640000  0.31340000  1
  H  H96  1  0.45490000  0.12750000  0.07650000  1
  H  H97  1  0.45490000  0.32740000  0.07650000  1
  H  H98  1  0.41480000  0.04680000  0.38060000  1
  H  H99  1  0.41480000  0.36800000  0.38060000  1
  H  H100  1  0.41390000  0.09840000  0.86340000  1
  H  H101  1  0.41390000  0.31550000  0.86340000  1
  H  H102  1  0.41160000  0.04020000  0.01110000  1
  H  H103  1  0.41160000  0.37140000  0.01110000  1
  H  H104  1  0.40110000  0.09200000  0.47040000  1
  H  H105  1  0.40110000  0.30910000  0.47040000  1
  H  H106  1  0.37140000  0.41160000  0.51110000  1
  H  H107  1  0.37140000  0.95980000  0.51110000  1
  H  H108  1  0.36800000  0.41480000  0.88060000  1
  H  H109  1  0.36800000  0.95320000  0.88060000  1
  H  H110  1  0.34300000  0.46810000  0.28750000  1
  H  H111  1  0.34300000  0.87490000  0.28750000  1
  H  H112  1  0.34020000  0.46280000  0.04430000  1
  H  H113  1  0.34020000  0.87740000  0.04430000  1
  H  H114  1  0.32740000  0.45490000  0.57650000  1
  H  H115  1  0.32740000  0.87250000  0.57650000  1
  H  H116  1  0.32640000  0.45590000  0.81340000  1
  H  H117  1  0.32640000  0.87050000  0.81340000  1
  H  H118  1  0.31550000  0.41390000  0.36340000  1
  H  H119  1  0.31550000  0.90160000  0.36340000  1
  H  H120  1  0.30910000  0.40110000  0.97040000  1
  H  H121  1  0.30910000  0.90800000  0.97040000  1
  H  H122  1  0.26200000  0.02240000  0.96510000  1
  H  H123  1  0.26200000  0.23960000  0.96510000  1
  H  H124  1  0.24870000  0.01580000  0.35980000  1
  H  H125  1  0.24870000  0.23290000  0.35980000  1
  H  H126  1  0.23960000  0.26200000  0.46510000  1
  H  H127  1  0.23960000  0.97760000  0.46510000  1
  H  H128  1  0.23290000  0.24870000  0.85980000  1
  H  H129  1  0.23290000  0.98420000  0.85980000  1
  H  H130  1  0.21150000  0.00640000  0.54050000  1
  H  H131  1  0.21150000  0.20510000  0.54050000  1
  H  H132  1  0.20750000  0.01000000  0.78350000  1
  H  H133  1  0.20750000  0.19750000  0.78350000  1
  H  H134  1  0.20510000  0.21150000  0.04050000  1
  H  H135  1  0.20510000  0.99360000  0.04050000  1
  H  H136  1  0.19750000  0.20750000  0.28350000  1
  H  H137  1  0.19750000  0.99000000  0.28350000  1
  H  H138  1  0.12950000  0.45590000  0.81340000  1
  H  H139  1  0.12950000  0.67360000  0.81340000  1
  H  H140  1  0.12750000  0.45490000  0.57650000  1
  H  H141  1  0.12750000  0.67260000  0.57650000  1
  H  H142  1  0.12510000  0.46810000  0.28750000  1
  H  H143  1  0.12510000  0.65700000  0.28750000  1
  H  H144  1  0.12260000  0.46280000  0.04430000  1
  H  H145  1  0.12260000  0.65980000  0.04430000  1
  H  H146  1  0.09840000  0.41390000  0.36340000  1
  H  H147  1  0.09840000  0.68450000  0.36340000  1
  H  H148  1  0.09200000  0.40110000  0.97040000  1
  H  H149  1  0.09200000  0.69090000  0.97040000  1
  H  H150  1  0.04680000  0.41480000  0.88060000  1
  H  H151  1  0.04680000  0.63200000  0.88060000  1
  H  H152  1  0.04020000  0.41160000  0.51110000  1
  H  H153  1  0.04020000  0.62860000  0.51110000  1
  H  H154  1  0.02240000  0.26200000  0.46510000  1
  H  H155  1  0.02240000  0.76040000  0.46510000  1
  H  H156  1  0.01580000  0.24870000  0.85980000  1
  H  H157  1  0.01580000  0.76710000  0.85980000  1
  H  H158  1  0.01000000  0.20750000  0.28350000  1
  H  H159  1  0.01000000  0.80250000  0.28350000  1
  H  H160  1  0.00640000  0.21150000  0.04050000  1
  H  H161  1  0.00640000  0.79490000  0.04050000  1
  C  C162  1  0.96700000  0.48350000  0.00570000  1
  C  C163  1  0.96090000  0.16880000  0.29900000  1
  C  C164  1  0.96090000  0.79210000  0.29900000  1
  C  C165  1  0.96000000  0.48000000  0.38610000  1
  C  C166  1  0.95680000  0.17340000  0.02520000  1
  C  C167  1  0.95680000  0.78340000  0.02520000  1
  C  C168  1  0.94560000  0.18380000  0.34420000  1
  C  C169  1  0.94560000  0.76180000  0.34420000  1
  C  C170  1  0.94200000  0.40620000  0.02450000  1
  C  C171  1  0.94200000  0.53580000  0.02450000  1
  C  C172  1  0.93970000  0.19000000  0.98060000  1
  C  C173  1  0.93970000  0.74970000  0.98060000  1
  C  C174  1  0.93630000  0.40330000  0.36690000  1
  C  C175  1  0.93630000  0.53300000  0.36690000  1
  C  C176  1  0.91990000  0.08010000  0.22820000  1
  C  C177  1  0.91990000  0.83980000  0.22820000  1
  C  C178  1  0.91790000  0.08210000  0.09460000  1
  C  C179  1  0.91790000  0.83580000  0.09460000  1
  C  C180  1  0.90350000  0.09650000  0.27680000  1
  C  C181  1  0.90350000  0.80700000  0.27680000  1
  C  C182  1  0.89990000  0.10010000  0.04680000  1
  C  C183  1  0.89990000  0.79980000  0.04680000  1
  C  C184  1  0.89030000  0.38020000  0.06320000  1
  C  C185  1  0.89030000  0.51010000  0.06320000  1
  C  C186  1  0.88730000  0.37870000  0.32700000  1
  C  C187  1  0.88730000  0.50860000  0.32700000  1
  C  C188  1  0.87350000  0.12650000  0.36620000  1
  C  C189  1  0.87350000  0.74700000  0.36620000  1
  C  C190  1  0.86670000  0.13330000  0.95910000  1
  C  C191  1  0.86670000  0.73340000  0.95910000  1
  C  C192  1  0.86500000  0.43250000  0.08210000  1
  C  C193  1  0.86340000  0.43170000  0.30760000  1
  C  C194  1  0.85790000  0.27160000  0.48550000  1
  C  C195  1  0.85790000  0.58630000  0.48550000  1
  C  C196  1  0.85240000  0.27730000  0.84790000  1
  C  C197  1  0.85240000  0.57510000  0.84790000  1
  C  C198  1  0.83980000  0.91990000  0.72820000  1
  C  C199  1  0.83980000  0.29000000  0.52930000  1
  C  C200  1  0.83980000  0.54980000  0.52930000  1
  C  C201  1  0.83650000  0.29360000  0.80290000  1
  C  C202  1  0.83650000  0.54290000  0.80290000  1
  C  C203  1  0.83580000  0.91790000  0.59460000  1
  C  C204  1  0.83120000  0.03910000  0.29900000  1
  C  C205  1  0.83120000  0.79210000  0.29900000  1
  C  C206  1  0.82660000  0.04320000  0.02520000  1
  C  C207  1  0.82660000  0.78340000  0.02520000  1
  C  C208  1  0.81620000  0.05440000  0.34420000  1
  C  C209  1  0.81620000  0.76180000  0.34420000  1
  C  C210  1  0.81080000  0.40540000  0.26490000  1
  C  C211  1  0.81000000  0.06030000  0.98060000  1
  C  C212  1  0.81000000  0.74970000  0.98060000  1
  C  C213  1  0.80950000  0.40475000  0.12370000  1
  C  C214  1  0.80700000  0.90350000  0.77680000  1
  C  C215  1  0.80200000  0.19800000  0.46420000  1
  C  C216  1  0.80200000  0.60400000  0.46420000  1
  C  C217  1  0.79980000  0.89990000  0.54680000  1
  C  C218  1  0.79530000  0.20470000  0.86950000  1
  C  C219  1  0.79530000  0.59060000  0.86950000  1
  C  C220  1  0.79210000  0.83120000  0.79900000  1
  C  C221  1  0.79210000  0.96090000  0.79900000  1
  C  C222  1  0.78340000  0.82660000  0.52520000  1
  C  C223  1  0.78340000  0.95680000  0.52520000  1
  C  C224  1  0.76590000  0.23410000  0.55080000  1
  C  C225  1  0.76590000  0.53180000  0.55080000  1
  C  C226  1  0.76360000  0.23640000  0.78100000  1
  C  C227  1  0.76360000  0.52720000  0.78100000  1
  C  C228  1  0.76180000  0.81620000  0.84420000  1
  C  C229  1  0.76180000  0.94560000  0.84420000  1
  C  C230  1  0.74970000  0.81000000  0.48060000  1
  C  C231  1  0.74970000  0.93970000  0.48060000  1
  C  C232  1  0.74700000  0.87350000  0.86620000  1
  C  C233  1  0.74640000  0.25360000  0.73280000  1
  C  C234  1  0.74640000  0.25360000  0.59780000  1
  C  C235  1  0.74640000  0.49280000  0.73280000  1
  C  C236  1  0.74640000  0.49280000  0.59780000  1
  C  C237  1  0.73340000  0.86670000  0.45910000  1
  C  C238  1  0.72840000  0.14210000  0.48550000  1
  C  C239  1  0.72840000  0.58630000  0.48550000  1
  C  C240  1  0.72270000  0.14760000  0.84790000  1
  C  C241  1  0.72270000  0.57510000  0.84790000  1
  C  C242  1  0.71000000  0.16020000  0.52930000  1
  C  C243  1  0.71000000  0.54980000  0.52930000  1
  C  C244  1  0.70640000  0.16350000  0.80290000  1
  C  C245  1  0.70640000  0.54290000  0.80290000  1
  C  C246  1  0.62130000  0.11270000  0.32700000  1
  C  C247  1  0.62130000  0.50860000  0.32700000  1
  C  C248  1  0.61980000  0.10970000  0.06320000  1
  C  C249  1  0.61980000  0.51010000  0.06320000  1
  C  C250  1  0.60400000  0.80200000  0.96420000  1
  C  C251  1  0.59670000  0.06370000  0.36690000  1
  C  C252  1  0.59670000  0.53300000  0.36690000  1
  C  C253  1  0.59525000  0.19050000  0.12370000  1
  C  C254  1  0.59525000  0.40475000  0.12370000  1
  C  C255  1  0.59460000  0.18920000  0.26490000  1
  C  C256  1  0.59460000  0.40540000  0.26490000  1
  C  C257  1  0.59380000  0.05800000  0.02450000  1
  C  C258  1  0.59380000  0.53580000  0.02450000  1
  C  C259  1  0.59060000  0.79530000  0.36950000  1
  C  C260  1  0.58630000  0.72840000  0.98550000  1
  C  C261  1  0.58630000  0.85790000  0.98550000  1
  C  C262  1  0.57510000  0.72270000  0.34790000  1
  C  C263  1  0.57510000  0.85240000  0.34790000  1
  C  C264  1  0.56830000  0.13660000  0.30760000  1
  C  C265  1  0.56830000  0.43170000  0.30760000  1
  C  C266  1  0.56750000  0.13500000  0.08210000  1
  C  C267  1  0.56750000  0.43250000  0.08210000  1
  C  C268  1  0.54980000  0.71000000  0.02930000  1
  C  C269  1  0.54980000  0.83980000  0.02930000  1
  C  C270  1  0.54290000  0.70640000  0.30290000  1
  C  C271  1  0.54290000  0.83650000  0.30290000  1
  C  C272  1  0.53580000  0.59380000  0.52450000  1
  C  C273  1  0.53580000  0.94200000  0.52450000  1
  C  C274  1  0.53300000  0.59670000  0.86690000  1
  C  C275  1  0.53300000  0.93630000  0.86690000  1
  C  C276  1  0.53180000  0.76590000  0.05080000  1
  C  C277  1  0.52720000  0.76360000  0.28100000  1
  C  C278  1  0.52000000  0.04000000  0.38610000  1
  C  C279  1  0.52000000  0.48000000  0.38610000  1
  C  C280  1  0.51650000  0.03300000  0.00570000  1
  C  C281  1  0.51650000  0.48350000  0.00570000  1
  C  C282  1  0.51010000  0.61980000  0.56320000  1
  C  C283  1  0.51010000  0.89030000  0.56320000  1
  C  C284  1  0.50860000  0.62130000  0.82700000  1
  C  C285  1  0.50860000  0.88730000  0.82700000  1
  C  C286  1  0.50720000  0.25360000  0.73280000  1
  C  C287  1  0.50720000  0.25360000  0.59780000  1
  C  C288  1  0.49280000  0.74640000  0.23280000  1
  C  C289  1  0.49280000  0.74640000  0.09780000  1
  C  C290  1  0.49140000  0.11270000  0.32700000  1
  C  C291  1  0.49140000  0.37870000  0.32700000  1
  C  C292  1  0.48990000  0.10970000  0.06320000  1
  C  C293  1  0.48990000  0.38020000  0.06320000  1
  C  C294  1  0.48350000  0.51650000  0.50570000  1
  C  C295  1  0.48350000  0.96700000  0.50570000  1
  C  C296  1  0.48000000  0.52000000  0.88610000  1
  C  C297  1  0.48000000  0.96000000  0.88610000  1
  C  C298  1  0.47280000  0.23640000  0.78100000  1
  C  C299  1  0.46820000  0.23410000  0.55080000  1
  C  C300  1  0.46700000  0.06370000  0.36690000  1
  C  C301  1  0.46700000  0.40330000  0.36690000  1
  C  C302  1  0.46420000  0.05800000  0.02450000  1
  C  C303  1  0.46420000  0.40620000  0.02450000  1
  C  C304  1  0.45710000  0.16350000  0.80290000  1
  C  C305  1  0.45710000  0.29360000  0.80290000  1
  C  C306  1  0.45020000  0.16020000  0.52930000  1
  C  C307  1  0.45020000  0.29000000  0.52930000  1
  C  C308  1  0.43250000  0.56750000  0.58210000  1
  C  C309  1  0.43250000  0.86500000  0.58210000  1
  C  C310  1  0.43170000  0.56830000  0.80760000  1
  C  C311  1  0.43170000  0.86340000  0.80760000  1
  C  C312  1  0.42490000  0.14760000  0.84790000  1
  C  C313  1  0.42490000  0.27730000  0.84790000  1
  C  C314  1  0.41370000  0.14210000  0.48550000  1
  C  C315  1  0.41370000  0.27160000  0.48550000  1
  C  C316  1  0.40940000  0.20470000  0.86950000  1
  C  C317  1  0.40620000  0.46420000  0.52450000  1
  C  C318  1  0.40620000  0.94200000  0.52450000  1
  C  C319  1  0.40540000  0.59460000  0.76490000  1
  C  C320  1  0.40540000  0.81080000  0.76490000  1
  C  C321  1  0.40475000  0.59525000  0.62370000  1
  C  C322  1  0.40475000  0.80950000  0.62370000  1
  C  C323  1  0.40330000  0.46700000  0.86690000  1
  C  C324  1  0.40330000  0.93630000  0.86690000  1
  C  C325  1  0.39600000  0.19800000  0.46420000  1
  C  C326  1  0.38020000  0.48990000  0.56320000  1
  C  C327  1  0.38020000  0.89030000  0.56320000  1
  C  C328  1  0.37870000  0.49140000  0.82700000  1
  C  C329  1  0.37870000  0.88730000  0.82700000  1
  C  C330  1  0.29360000  0.45710000  0.30290000  1
  C  C331  1  0.29360000  0.83650000  0.30290000  1
  C  C332  1  0.29000000  0.45020000  0.02930000  1
  C  C333  1  0.29000000  0.83980000  0.02930000  1
  C  C334  1  0.27730000  0.42490000  0.34790000  1
  C  C335  1  0.27730000  0.85240000  0.34790000  1
  C  C336  1  0.27160000  0.41370000  0.98550000  1
  C  C337  1  0.27160000  0.85790000  0.98550000  1
  C  C338  1  0.26660000  0.13330000  0.95910000  1
  C  C339  1  0.25360000  0.50720000  0.23280000  1
  C  C340  1  0.25360000  0.50720000  0.09780000  1
  C  C341  1  0.25360000  0.74640000  0.23280000  1
  C  C342  1  0.25360000  0.74640000  0.09780000  1
  C  C343  1  0.25300000  0.12650000  0.36620000  1
  C  C344  1  0.25030000  0.06030000  0.98060000  1
  C  C345  1  0.25030000  0.19000000  0.98060000  1
  C  C346  1  0.23820000  0.05440000  0.34420000  1
  C  C347  1  0.23820000  0.18380000  0.34420000  1
  C  C348  1  0.23640000  0.47280000  0.28100000  1
  C  C349  1  0.23640000  0.76360000  0.28100000  1
  C  C350  1  0.23410000  0.46820000  0.05080000  1
  C  C351  1  0.23410000  0.76590000  0.05080000  1
  C  C352  1  0.21660000  0.04320000  0.02520000  1
  C  C353  1  0.21660000  0.17340000  0.02520000  1
  C  C354  1  0.20790000  0.03910000  0.29900000  1
  C  C355  1  0.20790000  0.16880000  0.29900000  1
  C  C356  1  0.20470000  0.40940000  0.36950000  1
  C  C357  1  0.20470000  0.79530000  0.36950000  1
  C  C358  1  0.20020000  0.10010000  0.04680000  1
  C  C359  1  0.19800000  0.39600000  0.96420000  1
  C  C360  1  0.19800000  0.80200000  0.96420000  1
  C  C361  1  0.19300000  0.09650000  0.27680000  1
  C  C362  1  0.19050000  0.59525000  0.62370000  1
  C  C363  1  0.19000000  0.25030000  0.48060000  1
  C  C364  1  0.19000000  0.93970000  0.48060000  1
  C  C365  1  0.18920000  0.59460000  0.76490000  1
  C  C366  1  0.18380000  0.23820000  0.84420000  1
  C  C367  1  0.18380000  0.94560000  0.84420000  1
  C  C368  1  0.17340000  0.21660000  0.52520000  1
  C  C369  1  0.17340000  0.95680000  0.52520000  1
  C  C370  1  0.16880000  0.20790000  0.79900000  1
  C  C371  1  0.16880000  0.96090000  0.79900000  1
  C  C372  1  0.16420000  0.08210000  0.09460000  1
  C  C373  1  0.16350000  0.45710000  0.30290000  1
  C  C374  1  0.16350000  0.70640000  0.30290000  1
  C  C375  1  0.16020000  0.45020000  0.02930000  1
  C  C376  1  0.16020000  0.71000000  0.02930000  1
  C  C377  1  0.16020000  0.08010000  0.22820000  1
  C  C378  1  0.14760000  0.42490000  0.34790000  1
  C  C379  1  0.14760000  0.72270000  0.34790000  1
  C  C380  1  0.14210000  0.41370000  0.98550000  1
  C  C381  1  0.14210000  0.72840000  0.98550000  1
  C  C382  1  0.13660000  0.56830000  0.80760000  1
  C  C383  1  0.13500000  0.56750000  0.58210000  1
  C  C384  1  0.13330000  0.26660000  0.45910000  1
  C  C385  1  0.13330000  0.86670000  0.45910000  1
  C  C386  1  0.12650000  0.25300000  0.86620000  1
  C  C387  1  0.12650000  0.87350000  0.86620000  1
  C  C388  1  0.11270000  0.49140000  0.82700000  1
  C  C389  1  0.11270000  0.62130000  0.82700000  1
  C  C390  1  0.10970000  0.48990000  0.56320000  1
  C  C391  1  0.10970000  0.61980000  0.56320000  1
  C  C392  1  0.10010000  0.20020000  0.54680000  1
  C  C393  1  0.10010000  0.89990000  0.54680000  1
  C  C394  1  0.09650000  0.19300000  0.77680000  1
  C  C395  1  0.09650000  0.90350000  0.77680000  1
  C  C396  1  0.08210000  0.16420000  0.59460000  1
  C  C397  1  0.08210000  0.91790000  0.59460000  1
  C  C398  1  0.08010000  0.16020000  0.72820000  1
  C  C399  1  0.08010000  0.91990000  0.72820000  1
  C  C400  1  0.06370000  0.46700000  0.86690000  1
  C  C401  1  0.06370000  0.59670000  0.86690000  1
  C  C402  1  0.06030000  0.25030000  0.48060000  1
  C  C403  1  0.06030000  0.81000000  0.48060000  1
  C  C404  1  0.05800000  0.46420000  0.52450000  1
  C  C405  1  0.05800000  0.59380000  0.52450000  1
  C  C406  1  0.05440000  0.23820000  0.84420000  1
  C  C407  1  0.05440000  0.81620000  0.84420000  1
  C  C408  1  0.04320000  0.21660000  0.52520000  1
  C  C409  1  0.04320000  0.82660000  0.52520000  1
  C  C410  1  0.04000000  0.52000000  0.88610000  1
  C  C411  1  0.03910000  0.20790000  0.79900000  1
  C  C412  1  0.03910000  0.83120000  0.79900000  1
  C  C413  1  0.03300000  0.51650000  0.50570000  1
  N  N414  1  0.99060000  0.49530000  0.92630000  1
  N  N415  1  0.98090000  0.49045000  0.46670000  1
  N  N416  1  0.85830000  0.14170000  0.41160000  1
  N  N417  1  0.85830000  0.71660000  0.41160000  1
  N  N418  1  0.85000000  0.15000000  0.91490000  1
  N  N419  1  0.85000000  0.70000000  0.91490000  1
  N  N420  1  0.82030000  0.17970000  0.42030000  1
  N  N421  1  0.82030000  0.64060000  0.42030000  1
  N  N422  1  0.81120000  0.18880000  0.91410000  1
  N  N423  1  0.81120000  0.62240000  0.91410000  1
  N  N424  1  0.71660000  0.85830000  0.91160000  1
  N  N425  1  0.70000000  0.85000000  0.41490000  1
  N  N426  1  0.64060000  0.82030000  0.92030000  1
  N  N427  1  0.62240000  0.81120000  0.41410000  1
  N  N428  1  0.50955000  0.01910000  0.46670000  1
  N  N429  1  0.50955000  0.49045000  0.46670000  1
  N  N430  1  0.50470000  0.00940000  0.92630000  1
  N  N431  1  0.50470000  0.49530000  0.92630000  1
  N  N432  1  0.49530000  0.50470000  0.42630000  1
  N  N433  1  0.49530000  0.99060000  0.42630000  1
  N  N434  1  0.49045000  0.50955000  0.96670000  1
  N  N435  1  0.49045000  0.98090000  0.96670000  1
  N  N436  1  0.37760000  0.18880000  0.91410000  1
  N  N437  1  0.35940000  0.17970000  0.42030000  1
  N  N438  1  0.30000000  0.15000000  0.91490000  1
  N  N439  1  0.28340000  0.14170000  0.41160000  1
  N  N440  1  0.18880000  0.37760000  0.41410000  1
  N  N441  1  0.18880000  0.81120000  0.41410000  1
  N  N442  1  0.17970000  0.35940000  0.92030000  1
  N  N443  1  0.17970000  0.82030000  0.92030000  1
  N  N444  1  0.15000000  0.30000000  0.41490000  1
  N  N445  1  0.15000000  0.85000000  0.41490000  1
  N  N446  1  0.14170000  0.28340000  0.91160000  1
  N  N447  1  0.14170000  0.85830000  0.91160000  1
  N  N448  1  0.01910000  0.50955000  0.96670000  1
  N  N449  1  0.00940000  0.50470000  0.42630000  1
  O  O450  1  0.00000000  0.00000000  0.66180000  1
  O  O451  1  0.00000000  0.00000000  0.16180000  1
  O  O452  1  0.99330000  0.12920000  0.21220000  1
  O  O453  1  0.99330000  0.86410000  0.21220000  1
  O  O454  1  0.99040000  0.12900000  0.11160000  1
  O  O455  1  0.99040000  0.86140000  0.11160000  1
  O  O456  1  0.87100000  0.00960000  0.11160000  1
  O  O457  1  0.87100000  0.86140000  0.11160000  1
  O  O458  1  0.87080000  0.00670000  0.21220000  1
  O  O459  1  0.87080000  0.86410000  0.21220000  1
  O  O460  1  0.86410000  0.87080000  0.71220000  1
  O  O461  1  0.86410000  0.99330000  0.71220000  1
  O  O462  1  0.86140000  0.87100000  0.61160000  1
  O  O463  1  0.86140000  0.99040000  0.61160000  1
  O  O464  1  0.80650000  0.34320000  0.14360000  1
  O  O465  1  0.80650000  0.46330000  0.14360000  1
  O  O466  1  0.80330000  0.34210000  0.24600000  1
  O  O467  1  0.80330000  0.46120000  0.24600000  1
  O  O468  1  0.79500000  0.32330000  0.61380000  1
  O  O469  1  0.79500000  0.47170000  0.61380000  1
  O  O470  1  0.79390000  0.32420000  0.71350000  1
  O  O471  1  0.79390000  0.46970000  0.71350000  1
  O  O472  1  0.67670000  0.20500000  0.61380000  1
  O  O473  1  0.67670000  0.47170000  0.61380000  1
  O  O474  1  0.67580000  0.20610000  0.71350000  1
  O  O475  1  0.67580000  0.46970000  0.71350000  1
  O  O476  1  0.66666667  0.33333333  0.66120000  1
  O  O477  1  0.66666667  0.33333333  0.19270000  1
  O  O478  1  0.65790000  0.19670000  0.24600000  1
  O  O479  1  0.65790000  0.46120000  0.24600000  1
  O  O480  1  0.65680000  0.19350000  0.14360000  1
  O  O481  1  0.65680000  0.46330000  0.14360000  1
  O  O482  1  0.53880000  0.19670000  0.24600000  1
  O  O483  1  0.53880000  0.34210000  0.24600000  1
  O  O484  1  0.53670000  0.19350000  0.14360000  1
  O  O485  1  0.53670000  0.34320000  0.14360000  1
  O  O486  1  0.53030000  0.20610000  0.71350000  1
  O  O487  1  0.53030000  0.32420000  0.71350000  1
  O  O488  1  0.52830000  0.20500000  0.61380000  1
  O  O489  1  0.52830000  0.32330000  0.61380000  1
  O  O490  1  0.47170000  0.67670000  0.11380000  1
  O  O491  1  0.47170000  0.79500000  0.11380000  1
  O  O492  1  0.46970000  0.67580000  0.21350000  1
  O  O493  1  0.46970000  0.79390000  0.21350000  1
  O  O494  1  0.46330000  0.65680000  0.64360000  1
  O  O495  1  0.46330000  0.80650000  0.64360000  1
  O  O496  1  0.46120000  0.65790000  0.74600000  1
  O  O497  1  0.46120000  0.80330000  0.74600000  1
  O  O498  1  0.34320000  0.53670000  0.64360000  1
  O  O499  1  0.34320000  0.80650000  0.64360000  1
  O  O500  1  0.34210000  0.53880000  0.74600000  1
  O  O501  1  0.34210000  0.80330000  0.74600000  1
  O  O502  1  0.33333333  0.66666667  0.69270000  1
  O  O503  1  0.33333333  0.66666667  0.16120000  1
  O  O504  1  0.32420000  0.53030000  0.21350000  1
  O  O505  1  0.32420000  0.79390000  0.21350000  1
  O  O506  1  0.32330000  0.52830000  0.11380000  1
  O  O507  1  0.32330000  0.79500000  0.11380000  1
  O  O508  1  0.20610000  0.53030000  0.21350000  1
  O  O509  1  0.20610000  0.67580000  0.21350000  1
  O  O510  1  0.20500000  0.52830000  0.11380000  1
  O  O511  1  0.20500000  0.67670000  0.11380000  1
  O  O512  1  0.19670000  0.53880000  0.74600000  1
  O  O513  1  0.19670000  0.65790000  0.74600000  1
  O  O514  1  0.19350000  0.53670000  0.64360000  1
  O  O515  1  0.19350000  0.65680000  0.64360000  1
  O  O516  1  0.13860000  0.00960000  0.11160000  1
  O  O517  1  0.13860000  0.12900000  0.11160000  1
  O  O518  1  0.13590000  0.00670000  0.21220000  1
  O  O519  1  0.13590000  0.12920000  0.21220000  1
  O  O520  1  0.12920000  0.13590000  0.71220000  1
  O  O521  1  0.12920000  0.99330000  0.71220000  1
  O  O522  1  0.12900000  0.13860000  0.61160000  1
  O  O523  1  0.12900000  0.99040000  0.61160000  1
  O  O524  1  0.00960000  0.13860000  0.61160000  1
  O  O525  1  0.00960000  0.87100000  0.61160000  1
  O  O526  1  0.00670000  0.13590000  0.71220000  1
  O  O527  1  0.00670000  0.87080000  0.71220000  1
