# generated using pymatgen
data_Eu3H14(C17O10)2
_symmetry_space_group_name_H-M   'P 1'
_cell_length_a   11.00500000
_cell_length_b   12.77565080
_cell_length_c   20.94970000
_cell_angle_alpha   104.73466092
_cell_angle_beta   90.00000000
_cell_angle_gamma   115.51212728
_symmetry_Int_Tables_number   1
_chemical_formula_structural   Eu3H14(C17O10)2
_chemical_formula_sum   'Eu6 H28 C68 O40'
_cell_volume   2550.49888608
_cell_formula_units_Z   2
loop_
 _symmetry_equiv_pos_site_id
 _symmetry_equiv_pos_as_xyz
  1  'x, y, z'
loop_
 _atom_site_type_symbol
 _atom_site_label
 _atom_site_symmetry_multiplicity
 _atom_site_fract_x
 _atom_site_fract_y
 _atom_site_fract_z
 _atom_site_occupancy
  C  C0  1  0.65260000  0.94680000  0.11070000  1
  C  C1  1  0.29420000  0.94680000  0.61070000  1
  C  C2  1  0.61670000  0.94160000  0.47360000  1
  C  C3  1  0.32490000  0.94160000  0.97360000  1
  C  C4  1  0.63470000  0.93780000  0.40590000  1
  C  C5  1  0.30310000  0.93780000  0.90590000  1
  C  C6  1  0.55150000  0.84120000  0.49540000  1
  C  C7  1  0.28970000  0.84120000  0.99540000  1
  C  C8  1  0.57250000  0.82420000  0.35970000  1
  C  C9  1  0.25170000  0.82420000  0.85970000  1
  C  C10  1  0.56830000  0.80060000  0.28530000  1
  C  C11  1  0.23230000  0.80060000  0.78530000  1
  C  C12  1  0.87970000  0.77520000  0.15770000  1
  C  C13  1  0.89550000  0.77520000  0.65770000  1
  C  C14  1  0.49710000  0.72960000  0.44740000  1
  C  C15  1  0.23250000  0.72960000  0.94740000  1
  C  C16  1  0.50390000  0.71880000  0.38080000  1
  C  C17  1  0.21490000  0.71880000  0.88080000  1
  C  C18  1  0.64440000  0.71440000  0.63780000  1
  C  C19  1  0.07000000  0.71440000  0.13780000  1
  C  C20  1  0.75220000  0.68260000  0.62850000  1
  C  C21  1  0.93040000  0.68260000  0.12850000  1
  C  C22  1  0.39940000  0.65860000  0.62170000  1
  C  C23  1  0.25920000  0.65860000  0.12170000  1
  C  C24  1  0.51300000  0.62760000  0.61360000  1
  C  C25  1  0.11460000  0.62760000  0.11360000  1
  C  C26  1  0.72900000  0.56800000  0.59230000  1
  C  C27  1  0.83900000  0.56800000  0.09230000  1
  C  C28  1  0.54300000  0.53340000  0.98160000  1
  C  C29  1  0.99040000  0.53340000  0.48160000  1
  C  C30  1  0.40270000  0.51680000  0.43020000  1
  C  C31  1  0.11410000  0.51680000  0.93020000  1
  C  C32  1  0.49070000  0.51000000  0.58060000  1
  C  C33  1  0.01930000  0.51000000  0.08060000  1
  C  C34  1  0.50930000  0.49000000  0.41940000  1
  C  C35  1  0.98070000  0.49000000  0.91940000  1
  C  C36  1  0.59730000  0.48320000  0.56980000  1
  C  C37  1  0.88590000  0.48320000  0.06980000  1
  C  C38  1  0.45700000  0.46660000  0.01840000  1
  C  C39  1  0.00960000  0.46660000  0.51840000  1
  C  C40  1  0.27100000  0.43200000  0.40770000  1
  C  C41  1  0.16100000  0.43200000  0.90770000  1
  C  C42  1  0.48700000  0.37240000  0.38640000  1
  C  C43  1  0.88540000  0.37240000  0.88640000  1
  C  C44  1  0.60060000  0.34140000  0.37830000  1
  C  C45  1  0.74080000  0.34140000  0.87830000  1
  C  C46  1  0.24780000  0.31740000  0.37150000  1
  C  C47  1  0.06960000  0.31740000  0.87150000  1
  C  C48  1  0.35560000  0.28560000  0.36220000  1
  C  C49  1  0.93000000  0.28560000  0.86220000  1
  C  C50  1  0.49610000  0.28120000  0.61920000  1
  C  C51  1  0.78510000  0.28120000  0.11920000  1
  C  C52  1  0.50290000  0.27040000  0.55260000  1
  C  C53  1  0.76750000  0.27040000  0.05260000  1
  C  C54  1  0.12030000  0.22480000  0.84230000  1
  C  C55  1  0.10450000  0.22480000  0.34230000  1
  C  C56  1  0.43170000  0.19940000  0.71470000  1
  C  C57  1  0.76770000  0.19940000  0.21470000  1
  C  C58  1  0.42750000  0.17580000  0.64030000  1
  C  C59  1  0.74830000  0.17580000  0.14030000  1
  C  C60  1  0.44850000  0.15880000  0.50460000  1
  C  C61  1  0.71030000  0.15880000  0.00460000  1
  C  C62  1  0.36530000  0.06220000  0.59410000  1
  C  C63  1  0.69690000  0.06220000  0.09410000  1
  C  C64  1  0.38330000  0.05840000  0.52640000  1
  C  C65  1  0.67510000  0.05840000  0.02640000  1
  C  C66  1  0.34740000  0.05320000  0.88930000  1
  C  C67  1  0.70580000  0.05320000  0.38930000  1
  Eu  Eu68  1  0.86121000  0.00000000  0.25000000  1
  Eu  Eu69  1  0.13879000  1.00000000  0.75000000  1
  Eu  Eu70  1  0.53937000  0.71924000  0.14180000  1
  Eu  Eu71  1  0.17987000  0.71924000  0.64180000  1
  Eu  Eu72  1  0.46063000  0.28076000  0.85820000  1
  Eu  Eu73  1  0.82013000  0.28076000  0.35820000  1
  H  H74  1  0.63350000  0.98140000  0.99440000  1
  H  H75  1  0.34790000  0.98140000  0.49440000  1
  H  H76  1  0.54370000  0.84720000  0.54120000  1
  H  H77  1  0.30350000  0.84720000  0.04120000  1
  H  H78  1  0.66190000  0.79500000  0.66050000  1
  H  H79  1  0.13310000  0.79500000  0.16050000  1
  H  H80  1  0.46310000  0.64140000  0.34920000  1
  H  H81  1  0.17830000  0.64140000  0.84920000  1
  H  H82  1  0.60430000  0.58240000  0.95670000  1
  H  H83  1  0.97810000  0.58240000  0.45670000  1
  H  H84  1  0.59930000  0.55160000  0.43450000  1
  H  H85  1  0.95230000  0.55160000  0.93450000  1
  H  H86  1  0.74590000  0.54820000  0.08310000  1
  H  H87  1  0.80230000  0.54820000  0.58310000  1
  H  H88  1  0.25410000  0.45180000  0.91690000  1
  H  H89  1  0.19770000  0.45180000  0.41690000  1
  H  H90  1  0.40070000  0.44840000  0.56550000  1
  H  H91  1  0.04770000  0.44840000  0.06550000  1
  H  H92  1  0.39570000  0.41760000  0.04330000  1
  H  H93  1  0.02190000  0.41760000  0.54330000  1
  H  H94  1  0.53690000  0.35860000  0.65080000  1
  H  H95  1  0.82170000  0.35860000  0.15080000  1
  H  H96  1  0.33810000  0.20500000  0.33950000  1
  H  H97  1  0.86690000  0.20500000  0.83950000  1
  H  H98  1  0.45630000  0.15280000  0.45880000  1
  H  H99  1  0.69650000  0.15280000  0.95880000  1
  H  H100  1  0.36650000  0.01860000  0.00560000  1
  H  H101  1  0.65210000  0.01860000  0.50560000  1
  O  O102  1  0.66480000  0.94820000  0.17200000  1
  O  O103  1  0.28340000  0.94820000  0.67200000  1
  O  O104  1  0.90930000  0.86240000  0.70770000  1
  O  O105  1  0.95310000  0.86240000  0.20770000  1
  O  O106  1  0.60070000  0.84800000  0.06620000  1
  O  O107  1  0.24730000  0.84800000  0.56620000  1
  O  O108  1  0.67540000  0.81460000  0.25790000  1
  O  O109  1  0.13920000  0.81460000  0.75790000  1
  O  O110  1  0.41950000  0.76780000  0.63170000  1
  O  O111  1  0.34830000  0.76780000  0.13170000  1
  O  O112  1  0.76850000  0.76060000  0.13290000  1
  O  O113  1  0.45880000  0.76060000  0.25230000  1
  O  O114  1  0.30180000  0.76060000  0.75230000  1
  O  O115  1  0.99210000  0.76060000  0.63290000  1
  O  O116  1  0.42400000  0.63080000  0.47030000  1
  O  O117  1  0.20680000  0.63080000  0.97030000  1
  O  O118  1  0.51730000  0.58180000  0.03940000  1
  O  O119  1  0.06450000  0.58180000  0.53940000  1
  O  O120  1  0.29680000  0.57680000  0.12260000  1
  O  O121  1  0.28000000  0.57680000  0.62260000  1
  O  O122  1  0.70320000  0.42320000  0.87740000  1
  O  O123  1  0.72000000  0.42320000  0.37740000  1
  O  O124  1  0.48270000  0.41820000  0.96060000  1
  O  O125  1  0.93550000  0.41820000  0.46060000  1
  O  O126  1  0.57600000  0.36920000  0.52970000  1
  O  O127  1  0.79320000  0.36920000  0.02970000  1
  O  O128  1  0.54120000  0.23940000  0.74770000  1
  O  O129  1  0.23150000  0.23940000  0.86710000  1
  O  O130  1  0.00790000  0.23940000  0.36710000  1
  O  O131  1  0.69820000  0.23940000  0.24770000  1
  O  O132  1  0.58050000  0.23220000  0.36830000  1
  O  O133  1  0.65170000  0.23220000  0.86830000  1
  O  O134  1  0.32460000  0.18540000  0.74210000  1
  O  O135  1  0.86080000  0.18540000  0.24210000  1
  O  O136  1  0.39930000  0.15200000  0.93380000  1
  O  O137  1  0.75270000  0.15200000  0.43380000  1
  O  O138  1  0.09070000  0.13760000  0.29230000  1
  O  O139  1  0.04690000  0.13760000  0.79230000  1
  O  O140  1  0.33520000  0.05180000  0.82800000  1
  O  O141  1  0.71660000  0.05180000  0.32800000  1
