# generated using pymatgen
data_AgH18C14N3
_symmetry_space_group_name_H-M   'P 1'
_cell_length_a   12.28200000
_cell_length_b   12.94441602
_cell_length_c   13.58000000
_cell_angle_alpha   89.11296964
_cell_angle_beta   88.13000000
_cell_angle_gamma   61.67885876
_symmetry_Int_Tables_number   1
_chemical_formula_structural   AgH18C14N3
_chemical_formula_sum   'Ag4 H72 C56 N12'
_cell_volume   1899.55486822
_cell_formula_units_Z   4
loop_
 _symmetry_equiv_pos_site_id
 _symmetry_equiv_pos_as_xyz
  1  'x, y, z'
loop_
 _atom_site_type_symbol
 _atom_site_label
 _atom_site_symmetry_multiplicity
 _atom_site_fract_x
 _atom_site_fract_y
 _atom_site_fract_z
 _atom_site_occupancy
  Ag  Ag0  1  0.95117000  0.09766000  0.25000000  1
  Ag  Ag1  1  0.00000000  0.50000000  0.50000000  1
  Ag  Ag2  1  0.50000000  0.50000000  1.00000000  1
  Ag  Ag3  1  0.04883000  0.90234000  0.75000000  1
  C  C4  1  0.02846000  0.93208000  0.08480000  1
  C  C5  1  0.96054000  0.06792000  0.58480000  1
  C  C6  1  0.17230000  0.61040000  0.46850000  1
  C  C7  1  0.78270000  0.38960000  0.96850000  1
  C  C8  1  0.23490000  0.47000000  0.58980000  1
  C  C9  1  0.70490000  0.53000000  0.08980000  1
  C  C10  1  0.17941000  0.49258000  0.88600000  1
  C  C11  1  0.67199000  0.50742000  0.38600000  1
  C  C12  1  0.09801000  0.63798000  0.01060000  1
  C  C13  1  0.73599000  0.36202000  0.51060000  1
  C  C14  1  0.94821000  0.92898000  0.47560000  1
  C  C15  1  0.87719000  0.07102000  0.97560000  1
  C  C16  1  0.90790000  0.99660000  0.56150000  1
  C  C17  1  0.90450000  0.00340000  0.06150000  1
  C  C18  1  0.07501000  0.58018000  0.93470000  1
  C  C19  1  0.65519000  0.41982000  0.43470000  1
  C  C20  1  0.97715000  0.68510000  0.74350000  1
  C  C21  1  0.66225000  0.31490000  0.24350000  1
  C  C22  1  0.81518000  0.98904000  0.63230000  1
  C  C23  1  0.80422000  0.01096000  0.13230000  1
  C  C24  1  0.91367000  0.77926000  0.66690000  1
  C  C25  1  0.69293000  0.22074000  0.16690000  1
  C  C26  1  0.86032000  0.82336000  0.87130000  1
  C  C27  1  0.68368000  0.17664000  0.37130000  1
  C  C28  1  0.94764000  0.61112000  0.90300000  1
  C  C29  1  0.55876000  0.38888000  0.40300000  1
  C  C30  1  0.79435000  0.91630000  0.79460000  1
  C  C31  1  0.71065000  0.08370000  0.29460000  1
  C  C32  1  0.20565000  0.08370000  0.20540000  1
  C  C33  1  0.28935000  0.91630000  0.70540000  1
  C  C34  1  0.05236000  0.38888000  0.09700000  1
  C  C35  1  0.44124000  0.61112000  0.59700000  1
  C  C36  1  0.13968000  0.17664000  0.12870000  1
  C  C37  1  0.31632000  0.82336000  0.62870000  1
  C  C38  1  0.08633000  0.22074000  0.33310000  1
  C  C39  1  0.30707000  0.77926000  0.83310000  1
  C  C40  1  0.18482000  0.01096000  0.36770000  1
  C  C41  1  0.19578000  0.98904000  0.86770000  1
  C  C42  1  0.02285000  0.31490000  0.25650000  1
  C  C43  1  0.33775000  0.68510000  0.75650000  1
  C  C44  1  0.92499000  0.41982000  0.06530000  1
  C  C45  1  0.34481000  0.58018000  0.56530000  1
  C  C46  1  0.09210000  0.00340000  0.43850000  1
  C  C47  1  0.09550000  0.99660000  0.93850000  1
  C  C48  1  0.05179000  0.07102000  0.52440000  1
  C  C49  1  0.12281000  0.92898000  0.02440000  1
  C  C50  1  0.90199000  0.36202000  0.98940000  1
  C  C51  1  0.26401000  0.63798000  0.48940000  1
  C  C52  1  0.82059000  0.50742000  0.11400000  1
  C  C53  1  0.32801000  0.49258000  0.61400000  1
  C  C54  1  0.76510000  0.53000000  0.41020000  1
  C  C55  1  0.29510000  0.47000000  0.91020000  1
  C  C56  1  0.82770000  0.38960000  0.53150000  1
  C  C57  1  0.21730000  0.61040000  0.03150000  1
  C  C58  1  0.97154000  0.06792000  0.91520000  1
  C  C59  1  0.03946000  0.93208000  0.41520000  1
  H  H60  1  0.04800000  0.88540000  0.14270000  1
  H  H61  1  0.93340000  0.11460000  0.64270000  1
  H  H62  1  0.11900000  0.65040000  0.41600000  1
  H  H63  1  0.76940000  0.34960000  0.91600000  1
  H  H64  1  0.22600000  0.41000000  0.62430000  1
  H  H65  1  0.63600000  0.59000000  0.12430000  1
  H  H66  1  0.05500000  0.68400000  0.76220000  1
  H  H67  1  0.73900000  0.31600000  0.26220000  1
  H  H68  1  0.16930000  0.44840000  0.83530000  1
  H  H69  1  0.61770000  0.55160000  0.33530000  1
  H  H70  1  0.03100000  0.69660000  0.04790000  1
  H  H71  1  0.72760000  0.30340000  0.54790000  1
  H  H72  1  0.91260000  0.88080000  0.45860000  1
  H  H73  1  0.79340000  0.11920000  0.95860000  1
  H  H74  1  0.96980000  0.76420000  0.60870000  1
  H  H75  1  0.73400000  0.23580000  0.10870000  1
  H  H76  1  0.93440000  0.82780000  0.89240000  1
  H  H77  1  0.76220000  0.17220000  0.39240000  1
  H  H78  1  0.28020000  0.08760000  0.22600000  1
  H  H79  1  0.36780000  0.91240000  0.72600000  1
  H  H80  1  0.99840000  0.60740000  0.71560000  1
  H  H81  1  0.60580000  0.39260000  0.21560000  1
  H  H82  1  0.83110000  0.93420000  0.16510000  1
  H  H83  1  0.76530000  0.06580000  0.66510000  1
  H  H84  1  0.10860000  0.36580000  0.03820000  1
  H  H85  1  0.47440000  0.63420000  0.53820000  1
  H  H86  1  0.05080000  0.45960000  0.12550000  1
  H  H87  1  0.51040000  0.54040000  0.62550000  1
  H  H88  1  0.19510000  0.16300000  0.07020000  1
  H  H89  1  0.35810000  0.83700000  0.57020000  1
  H  H90  1  0.16140000  0.22300000  0.35470000  1
  H  H91  1  0.38440000  0.77700000  0.85470000  1
  H  H92  1  0.76770000  0.99500000  0.82270000  1
  H  H93  1  0.76270000  0.00500000  0.32270000  1
  H  H94  1  0.24160000  0.02980000  0.40430000  1
  H  H95  1  0.27140000  0.97020000  0.90430000  1
  H  H96  1  0.75840000  0.97020000  0.59570000  1
  H  H97  1  0.72860000  0.02980000  0.09570000  1
  H  H98  1  0.23230000  0.00500000  0.17730000  1
  H  H99  1  0.23730000  0.99500000  0.67730000  1
  H  H100  1  0.83860000  0.77700000  0.64530000  1
  H  H101  1  0.61560000  0.22300000  0.14530000  1
  H  H102  1  0.80490000  0.83700000  0.92980000  1
  H  H103  1  0.64190000  0.16300000  0.42980000  1
  H  H104  1  0.94920000  0.54040000  0.87450000  1
  H  H105  1  0.48960000  0.45960000  0.37450000  1
  H  H106  1  0.89140000  0.63420000  0.96180000  1
  H  H107  1  0.52560000  0.36580000  0.46180000  1
  H  H108  1  0.16890000  0.06580000  0.83490000  1
  H  H109  1  0.23470000  0.93420000  0.33490000  1
  H  H110  1  0.00160000  0.39260000  0.28440000  1
  H  H111  1  0.39420000  0.60740000  0.78440000  1
  H  H112  1  0.71980000  0.91240000  0.77400000  1
  H  H113  1  0.63220000  0.08760000  0.27400000  1
  H  H114  1  0.06560000  0.17220000  0.10760000  1
  H  H115  1  0.23780000  0.82780000  0.60760000  1
  H  H116  1  0.03020000  0.23580000  0.39130000  1
  H  H117  1  0.26600000  0.76420000  0.89130000  1
  H  H118  1  0.08740000  0.11920000  0.54140000  1
  H  H119  1  0.20660000  0.88080000  0.04140000  1
  H  H120  1  0.96900000  0.30340000  0.95210000  1
  H  H121  1  0.27240000  0.69660000  0.45210000  1
  H  H122  1  0.83070000  0.55160000  0.16470000  1
  H  H123  1  0.38230000  0.44840000  0.66470000  1
  H  H124  1  0.94500000  0.31600000  0.23780000  1
  H  H125  1  0.26100000  0.68400000  0.73780000  1
  H  H126  1  0.77400000  0.59000000  0.37570000  1
  H  H127  1  0.36400000  0.41000000  0.87570000  1
  H  H128  1  0.88100000  0.34960000  0.58400000  1
  H  H129  1  0.23060000  0.65040000  0.08400000  1
  H  H130  1  0.95200000  0.11460000  0.85730000  1
  H  H131  1  0.06660000  0.88540000  0.35730000  1
  N  N132  1  0.15452000  0.52936000  0.51870000  1
  N  N133  1  0.68388000  0.47064000  0.01870000  1
  N  N134  1  0.87879000  0.89702000  0.70800000  1
  N  N135  1  0.77581000  0.10298000  0.20800000  1
  N  N136  1  0.89733000  0.70694000  0.83000000  1
  N  N137  1  0.60427000  0.29306000  0.33000000  1
  N  N138  1  0.10267000  0.29306000  0.17000000  1
  N  N139  1  0.39573000  0.70694000  0.67000000  1
  N  N140  1  0.12121000  0.10298000  0.29200000  1
  N  N141  1  0.22419000  0.89702000  0.79200000  1
  N  N142  1  0.84548000  0.47064000  0.48130000  1
  N  N143  1  0.31612000  0.52936000  0.98130000  1
