# generated using pymatgen
data_CuH8C12(NO2)2
_symmetry_space_group_name_H-M   'P 1'
_cell_length_a   4.92130000
_cell_length_b   10.80110000
_cell_length_c   12.80969475
_cell_angle_alpha   88.67382008
_cell_angle_beta   78.92512005
_cell_angle_gamma   83.07990000
_symmetry_Int_Tables_number   1
_chemical_formula_structural   CuH8C12(NO2)2
_chemical_formula_sum   'Cu2 H16 C24 N4 O8'
_cell_volume   663.35669453
_cell_formula_units_Z   2
loop_
 _symmetry_equiv_pos_site_id
 _symmetry_equiv_pos_as_xyz
  1  'x, y, z'
loop_
 _atom_site_type_symbol
 _atom_site_label
 _atom_site_symmetry_multiplicity
 _atom_site_fract_x
 _atom_site_fract_y
 _atom_site_fract_z
 _atom_site_occupancy
  Cu  Cu0  1  0.82961000  0.78433000  0.22658000  1
  Cu  Cu1  1  0.05619000  0.28433000  0.77342000  1
  H  H2  1  0.94310000  0.09180000  0.13560000  1
  H  H3  1  0.64440000  0.36640000  0.45440000  1
  H  H4  1  0.62740000  0.12930000  0.49340000  1
  H  H5  1  0.84750000  0.02660000  0.33940000  1
  H  H6  1  0.51630000  0.09480000  0.80640000  1
  H  H7  1  0.72293333  0.27170000  0.61040000  1
  H  H8  1  0.32270000  0.59480000  0.19360000  1
  H  H9  1  0.65060000  0.96270000  0.93560000  1
  H  H10  1  0.12080000  0.62930000  0.50660000  1
  H  H11  1  0.09880000  0.86640000  0.54560000  1
  H  H12  1  0.58620000  0.46270000  0.06440000  1
  H  H13  1  0.33330000  0.77170000  0.38960000  1
  H  H14  1  0.83910000  0.72710000  0.99620000  1
  H  H15  1  0.83530000  0.22710000  0.00380000  1
  H  H16  1  0.18690000  0.52660000  0.66060000  1
  H  H17  1  0.07870000  0.59180000  0.86440000  1
  C  C18  1  0.56513000  0.05570000  0.47414000  1
  C  C19  1  0.13316000  0.59110000  0.93088000  1
  C  C20  1  0.69595000  0.99360000  0.38230000  1
  C  C21  1  0.06404000  0.09110000  0.06912000  1
  C  C22  1  0.82264000  0.57600000  0.36032000  1
  C  C23  1  0.75741000  0.40030000  0.49498000  1
  C  C24  1  0.39933000  0.09430000  0.87374000  1
  C  C25  1  0.35982000  0.51010000  0.94976000  1
  C  C26  1  0.87801000  0.50860000  0.46178000  1
  C  C27  1  0.30958000  0.01010000  0.05024000  1
  C  C28  1  0.52255000  0.42130000  0.86430000  1
  C  C29  1  0.80636000  0.34410000  0.58808000  1
  C  C30  1  0.27307000  0.59430000  0.12626000  1
  C  C31  1  0.48001000  0.01440000  0.95058000  1
  C  C32  1  0.43059000  0.51440000  0.04942000  1
  C  C33  1  0.38685000  0.92130000  0.13570000  1
  C  C34  1  0.03927000  0.55570000  0.52586000  1
  C  C35  1  0.07825000  0.49360000  0.61770000  1
  C  C36  1  0.25239000  0.90030000  0.50502000  1
  C  C37  1  0.39444000  0.84410000  0.41192000  1
  C  C38  1  0.18296000  0.07600000  0.63968000  1
  C  C39  1  0.33979000  0.00860000  0.53822000  1
  C  C40  1  0.99913000  0.17080000  0.98914000  1
  C  C41  1  0.98827000  0.67080000  0.01086000  1
  N  N42  1  0.15829000  0.17190000  0.89142000  1
  N  N43  1  0.04971000  0.67190000  0.10858000  1
  N  N44  1  0.96790000  0.38790000  0.64860000  1
  N  N45  1  0.61650000  0.88790000  0.35140000  1
  O  O46  1  0.41212000  0.39390000  0.79036000  1
  O  O47  1  0.94763000  0.67180000  0.33794000  1
  O  O48  1  0.20248000  0.89390000  0.20964000  1
  O  O49  1  0.76875000  0.38220000  0.87650000  1
  O  O50  1  0.97327000  0.03550000  0.68986000  1
  O  O51  1  0.64525000  0.88220000  0.12350000  1
  O  O52  1  0.28557000  0.17180000  0.66206000  1
  O  O53  1  0.66313000  0.53550000  0.31014000  1
