# generated using pymatgen
data_MnH5C9N7
_symmetry_space_group_name_H-M   'P 1'
_cell_length_a   17.14533312
_cell_length_b   17.14540000
_cell_length_c   17.14540000
_cell_angle_alpha   108.65100000
_cell_angle_beta   109.88284317
_cell_angle_gamma   109.88284317
_symmetry_Int_Tables_number   1
_chemical_formula_structural   MnH5C9N7
_chemical_formula_sum   'Mn8 H40 C72 N56'
_cell_volume   3879.29716280
_cell_formula_units_Z   8
loop_
 _symmetry_equiv_pos_site_id
 _symmetry_equiv_pos_as_xyz
  1  'x, y, z'
loop_
 _atom_site_type_symbol
 _atom_site_label
 _atom_site_symmetry_multiplicity
 _atom_site_fract_x
 _atom_site_fract_y
 _atom_site_fract_z
 _atom_site_occupancy
  Mn  Mn0  1  0.08718000  0.00646000  0.62936000  1
  Mn  Mn1  1  0.12290000  0.12936000  0.04218000  1
  Mn  Mn2  1  0.37710000  0.91928000  0.50646000  1
  Mn  Mn3  1  0.41282000  0.54218000  0.41928000  1
  Mn  Mn4  1  0.58718000  0.45782000  0.58072000  1
  Mn  Mn5  1  0.62290000  0.08072000  0.49354000  1
  Mn  Mn6  1  0.87710000  0.87064000  0.95782000  1
  Mn  Mn7  1  0.91282000  0.99354000  0.37064000  1
  H  H8  1  0.04490000  0.92120000  0.28910000  1
  H  H9  1  0.06590000  0.40580000  0.04450000  1
  H  H10  1  0.08030000  0.67740000  0.09410000  1
  H  H11  1  0.08330000  0.40590000  0.48620000  1
  H  H12  1  0.08500000  0.91880000  0.12720000  1
  H  H13  1  0.13210000  0.21090000  0.25580000  1
  H  H14  1  0.13870000  0.54450000  0.47860000  1
  H  H15  1  0.15970000  0.84220000  0.17870000  1
  H  H16  1  0.16350000  0.32130000  0.48100000  1
  H  H17  1  0.20840000  0.16620000  0.58120000  1
  H  H18  1  0.29160000  0.37280000  0.45780000  1
  H  H19  1  0.33650000  0.31750000  0.65780000  1
  H  H20  1  0.34030000  0.01900000  0.18250000  1
  H  H21  1  0.36130000  0.33990000  0.90580000  1
  H  H22  1  0.36790000  0.12370000  0.57880000  1
  H  H23  1  0.41500000  0.04220000  0.33380000  1
  H  H24  1  0.41670000  0.40290000  0.82260000  1
  H  H25  1  0.41970000  0.01380000  0.09710000  1
  H  H26  1  0.43410000  0.97860000  0.83990000  1
  H  H27  1  0.45510000  0.24420000  0.37630000  1
  H  H28  1  0.54490000  0.75580000  0.62370000  1
  H  H29  1  0.56590000  0.02140000  0.16010000  1
  H  H30  1  0.58030000  0.98620000  0.90290000  1
  H  H31  1  0.58330000  0.59710000  0.17740000  1
  H  H32  1  0.58500000  0.95780000  0.66620000  1
  H  H33  1  0.63210000  0.87630000  0.42120000  1
  H  H34  1  0.63870000  0.66010000  0.09420000  1
  H  H35  1  0.65970000  0.98100000  0.81750000  1
  H  H36  1  0.66350000  0.68250000  0.34220000  1
  H  H37  1  0.70840000  0.62720000  0.54220000  1
  H  H38  1  0.79160000  0.83380000  0.41880000  1
  H  H39  1  0.83650000  0.67870000  0.51900000  1
  H  H40  1  0.84030000  0.15780000  0.82130000  1
  H  H41  1  0.86130000  0.45550000  0.52140000  1
  H  H42  1  0.86790000  0.78910000  0.74420000  1
  H  H43  1  0.91500000  0.08120000  0.87280000  1
  H  H44  1  0.91670000  0.59410000  0.51380000  1
  H  H45  1  0.91970000  0.32260000  0.90590000  1
  H  H46  1  0.93410000  0.59420000  0.95550000  1
  H  H47  1  0.95510000  0.07880000  0.71090000  1
  C  C48  1  0.03440000  0.33960000  0.00920000  1
  C  C49  1  0.03745000  0.98171000  0.83522000  1
  C  C50  1  0.05260000  0.71000000  0.07280000  1
  C  C51  1  0.05450000  0.85270000  0.09200000  1
  C  C52  1  0.06720000  0.93180000  0.35120000  1
  C  C53  1  0.07480000  0.28900000  0.03880000  1
  C  C54  1  0.08060000  0.14880000  0.21600000  1
  C  C55  1  0.09960000  0.80780000  0.12420000  1
  C  C56  1  0.11424000  0.06460000  0.84888000  1
  C  C57  1  0.13720000  0.42720000  0.47980000  1
  C  C58  1  0.14649000  0.94426000  0.48171000  1
  C  C59  1  0.16636000  0.33490000  0.12686000  1
  C  C60  1  0.16960000  0.50920000  0.47480000  1
  C  C61  1  0.18360000  0.37580000  0.47540000  1
  C  C62  1  0.20804000  0.16854000  0.83490000  1
  C  C63  1  0.21572000  0.95036000  0.56460000  1
  C  C64  1  0.23930000  0.20180000  0.64730000  1
  C  C65  1  0.24980000  0.53880000  0.46400000  1
  C  C66  1  0.25020000  0.21420000  0.78900000  1
  C  C67  1  0.26070000  0.40800000  0.46250000  1
  C  C68  1  0.28428000  0.34888000  0.23464000  1
  C  C69  1  0.29196000  0.62686000  0.46050000  1
  C  C70  1  0.31640000  0.29180000  0.69220000  1
  C  C71  1  0.33040000  0.30520000  0.83960000  1
  C  C72  1  0.33364000  0.96050000  0.66854000  1
  C  C73  1  0.35351000  0.33522000  0.29777000  1
  C  C74  1  0.36280000  0.34260000  0.79000000  1
  C  C75  1  0.38576000  0.73464000  0.45036000  1
  C  C76  1  0.40040000  0.02460000  0.20820000  1
  C  C77  1  0.41940000  0.13540000  0.56820000  1
  C  C78  1  0.42520000  0.96400000  0.71420000  1
  C  C79  1  0.43280000  0.28400000  0.36460000  1
  C  C80  1  0.44550000  0.03750000  0.29820000  1
  C  C81  1  0.44740000  0.02020000  0.15740000  1
  C  C82  1  0.46255000  0.79777000  0.44426000  1
  C  C83  1  0.46560000  0.97480000  0.80520000  1
  C  C84  1  0.53440000  0.02520000  0.19480000  1
  C  C85  1  0.53745000  0.20223000  0.55574000  1
  C  C86  1  0.55260000  0.97980000  0.84260000  1
  C  C87  1  0.55450000  0.96250000  0.70180000  1
  C  C88  1  0.56720000  0.71600000  0.63540000  1
  C  C89  1  0.57480000  0.03600000  0.28580000  1
  C  C90  1  0.58060000  0.86460000  0.43180000  1
  C  C91  1  0.59960000  0.97540000  0.79180000  1
  C  C92  1  0.61424000  0.26536000  0.54964000  1
  C  C93  1  0.63720000  0.65740000  0.21000000  1
  C  C94  1  0.64649000  0.66478000  0.70223000  1
  C  C95  1  0.66636000  0.03950000  0.33146000  1
  C  C96  1  0.66960000  0.69480000  0.16040000  1
  C  C97  1  0.68360000  0.70820000  0.30780000  1
  C  C98  1  0.70804000  0.37314000  0.53950000  1
  C  C99  1  0.71572000  0.65112000  0.76536000  1
  C  C100  1  0.73930000  0.59200000  0.53750000  1
  C  C101  1  0.74980000  0.78580000  0.21100000  1
  C  C102  1  0.75020000  0.46120000  0.53600000  1
  C  C103  1  0.76070000  0.79820000  0.35270000  1
  C  C104  1  0.78428000  0.04964000  0.43540000  1
  C  C105  1  0.79196000  0.83146000  0.16510000  1
  C  C106  1  0.81640000  0.62420000  0.52460000  1
  C  C107  1  0.83040000  0.49080000  0.52520000  1
  C  C108  1  0.83364000  0.66510000  0.87314000  1
  C  C109  1  0.85351000  0.05574000  0.51829000  1
  C  C110  1  0.86280000  0.57280000  0.52020000  1
  C  C111  1  0.88576000  0.93540000  0.15112000  1
  C  C112  1  0.90040000  0.19220000  0.87580000  1
  C  C113  1  0.91940000  0.85120000  0.78400000  1
  C  C114  1  0.92520000  0.71100000  0.96120000  1
  C  C115  1  0.93280000  0.06820000  0.64880000  1
  C  C116  1  0.94550000  0.14730000  0.90800000  1
  C  C117  1  0.94740000  0.29000000  0.92720000  1
  C  C118  1  0.96255000  0.01829000  0.16478000  1
  C  C119  1  0.96560000  0.66040000  0.99080000  1
  N  N120  1  0.02217000  0.98819000  0.90762000  1
  N  N121  1  0.02539000  0.10310000  0.24471000  1
  N  N122  1  0.02838000  0.95763000  0.40247000  1
  N  N123  1  0.03159000  0.19389000  0.98778000  1
  N  N124  1  0.05516000  0.09753000  0.12591000  1
  N  N125  1  0.08057000  0.96602000  0.48819000  1
  N  N126  1  0.13468000  0.07618000  0.78282000  1
  N  N127  1  0.14161000  0.92229000  0.39690000  1
  N  N128  1  0.17070000  0.14175000  0.93461000  1
  N  N129  1  0.20611000  0.16230000  0.69389000  1
  N  N130  1  0.20664000  0.28282000  0.14814000  1
  N  N131  1  0.20714000  0.97105000  0.64175000  1
  N  N132  1  0.21519000  0.42560000  0.19357000  1
  N  N133  1  0.23203000  0.21041000  0.92560000  1
  N  N134  1  0.26797000  0.69357000  0.47838000  1
  N  N135  1  0.28481000  0.97838000  0.71041000  1
  N  N136  1  0.29286000  0.43461000  0.26391000  1
  N  N137  1  0.29336000  0.94150000  0.57618000  1
  N  N138  1  0.29389000  0.48778000  0.45619000  1
  N  N139  1  0.32930000  0.76391000  0.47105000  1
  N  N140  1  0.35839000  0.25529000  0.28068000  1
  N  N141  1  0.36532000  0.64814000  0.44150000  1
  N  N142  1  0.41943000  0.40762000  0.38545000  1
  N  N143  1  0.44484000  0.07075000  0.54237000  1
  N  N144  1  0.46841000  0.95619000  0.66230000  1
  N  N145  1  0.47162000  0.37409000  0.42925000  1
  N  N146  1  0.47461000  0.21932000  0.57771000  1
  N  N147  1  0.47783000  0.88545000  0.46602000  1
  N  N148  1  0.52217000  0.11455000  0.53398000  1
  N  N149  1  0.52539000  0.78068000  0.42229000  1
  N  N150  1  0.52838000  0.62591000  0.57075000  1
  N  N151  1  0.53159000  0.04381000  0.33770000  1
  N  N152  1  0.55516000  0.92925000  0.45763000  1
  N  N153  1  0.58057000  0.59238000  0.61455000  1
  N  N154  1  0.63468000  0.35186000  0.55850000  1
  N  N155  1  0.64161000  0.74471000  0.71932000  1
  N  N156  1  0.67070000  0.23609000  0.52895000  1
  N  N157  1  0.70611000  0.51222000  0.54381000  1
  N  N158  1  0.70664000  0.05850000  0.42382000  1
  N  N159  1  0.70714000  0.56539000  0.73609000  1
  N  N160  1  0.71519000  0.02162000  0.28959000  1
  N  N161  1  0.73203000  0.30643000  0.52162000  1
  N  N162  1  0.76797000  0.78959000  0.07440000  1
  N  N163  1  0.78481000  0.57440000  0.80643000  1
  N  N164  1  0.79286000  0.02895000  0.35825000  1
  N  N165  1  0.79336000  0.71718000  0.85186000  1
  N  N166  1  0.79389000  0.83770000  0.30611000  1
  N  N167  1  0.82930000  0.85825000  0.06539000  1
  N  N168  1  0.85839000  0.07771000  0.60310000  1
  N  N169  1  0.86532000  0.92382000  0.21718000  1
  N  N170  1  0.91943000  0.03398000  0.51181000  1
  N  N171  1  0.94484000  0.90247000  0.87409000  1
  N  N172  1  0.96841000  0.80611000  0.01222000  1
  N  N173  1  0.97162000  0.04237000  0.59753000  1
  N  N174  1  0.97461000  0.89690000  0.75529000  1
  N  N175  1  0.97783000  0.01181000  0.09238000  1
