# generated using pymatgen
data_KPrH6C14(SO5)2
_symmetry_space_group_name_H-M   'P 1'
_cell_length_a   8.56320000
_cell_length_b   28.36716561
_cell_length_c   28.36716561
_cell_angle_alpha   119.00018236
_cell_angle_beta   95.77506842
_cell_angle_gamma   95.77506842
_symmetry_Int_Tables_number   1
_chemical_formula_structural   KPrH6C14(SO5)2
_chemical_formula_sum   'K6 Pr6 H36 C84 S12 O60'
_cell_volume   5907.16273431
_cell_formula_units_Z   6
loop_
 _symmetry_equiv_pos_site_id
 _symmetry_equiv_pos_as_xyz
  1  'x, y, z'
loop_
 _atom_site_type_symbol
 _atom_site_label
 _atom_site_symmetry_multiplicity
 _atom_site_fract_x
 _atom_site_fract_y
 _atom_site_fract_z
 _atom_site_occupancy
  C  C0  1  0.50020000  0.78998000  0.27312000  1
  C  C1  1  0.00020000  0.27312000  0.78998000  1
  C  C2  1  0.33582000  0.57441000  0.49845000  1
  C  C3  1  0.83582000  0.49845000  0.57441000  1
  C  C4  1  0.17648000  0.62793000  0.46371000  1
  C  C5  1  0.67648000  0.46371000  0.62793000  1
  C  C6  1  0.61435000  0.82995000  0.27560000  1
  C  C7  1  0.11435000  0.27560000  0.82995000  1
  C  C8  1  0.47247000  0.79331000  0.32220000  1
  C  C9  1  0.97247000  0.32220000  0.79331000  1
  C  C10  1  0.29251000  0.62604000  0.50229000  1
  C  C11  1  0.79251000  0.50229000  0.62604000  1
  C  C12  1  0.15027000  0.67780000  0.47111000  1
  C  C13  1  0.65027000  0.47111000  0.67780000  1
  C  C14  1  0.69649000  0.87173000  0.32604000  1
  C  C15  1  0.19649000  0.32604000  0.87173000  1
  C  C16  1  0.54855000  0.83578000  0.37207000  1
  C  C17  1  0.04855000  0.37207000  0.83578000  1
  C  C18  1  0.37045000  0.67396000  0.54569000  1
  C  C19  1  0.87045000  0.54569000  0.67396000  1
  C  C20  1  0.22708000  0.72688000  0.51686000  1
  C  C21  1  0.72708000  0.51686000  0.72688000  1
  C  C22  1  0.66647000  0.87625000  0.37396000  1
  C  C23  1  0.16647000  0.37396000  0.87625000  1
  C  C24  1  0.33875000  0.72440000  0.55435000  1
  C  C25  1  0.83875000  0.55435000  0.72440000  1
  C  C26  1  0.04959000  0.78218000  0.49819000  1
  C  C27  1  0.54959000  0.49819000  0.78218000  1
  C  C28  1  0.19196000  0.77963000  0.52375000  1
  C  C29  1  0.69196000  0.52375000  0.77963000  1
  C  C30  1  0.01617000  0.83136000  0.50265000  1
  C  C31  1  0.51617000  0.50265000  0.83136000  1
  C  C32  1  0.76141000  0.92404000  0.42559000  1
  C  C33  1  0.26141000  0.42559000  0.92404000  1
  C  C34  1  0.30032000  0.82908000  0.55638000  1
  C  C35  1  0.80032000  0.55638000  0.82908000  1
  C  C36  1  0.12793000  0.87906000  0.53253000  1
  C  C37  1  0.62793000  0.53253000  0.87906000  1
  C  C38  1  0.26920000  0.87776000  0.56044000  1
  C  C39  1  0.76920000  0.56044000  0.87776000  1
  C  C40  1  0.08623000  0.92884000  0.53195000  1
  C  C41  1  0.58623000  0.53195000  0.92884000  1
  C  C42  1  0.33737000  0.07596000  0.50155000  1
  C  C43  1  0.83737000  0.50155000  0.07596000  1
  C  C44  1  0.32476000  0.12827000  0.45431000  1
  C  C45  1  0.82476000  0.45431000  0.12827000  1
  C  C46  1  0.28440000  0.17005000  0.44565000  1
  C  C47  1  0.78440000  0.44565000  0.17005000  1
  C  C48  1  0.29022000  0.12375000  0.49771000  1
  C  C49  1  0.79022000  0.49771000  0.12375000  1
  C  C50  1  0.65739000  0.07116000  0.60311000  1
  C  C51  1  0.15739000  0.60311000  0.07116000  1
  C  C52  1  0.21022000  0.21002000  0.48314000  1
  C  C53  1  0.71022000  0.48314000  0.21002000  1
  C  C54  1  0.21277000  0.16422000  0.53629000  1
  C  C55  1  0.71277000  0.53629000  0.16422000  1
  C  C56  1  0.74394000  0.44362000  0.27270000  1
  C  C57  1  0.24394000  0.27270000  0.44362000  1
  C  C58  1  0.66821000  0.47625000  0.25588000  1
  C  C59  1  0.16821000  0.25588000  0.47625000  1
  C  C60  1  0.17916000  0.20669000  0.52889000  1
  C  C61  1  0.67916000  0.52889000  0.20669000  1
  C  C62  1  0.70876000  0.43956000  0.31732000  1
  C  C63  1  0.20876000  0.31732000  0.43956000  1
  C  C64  1  0.74887000  0.12094000  0.65347000  1
  C  C65  1  0.24887000  0.65347000  0.12094000  1
  C  C66  1  0.55140000  0.50181000  0.28399000  1
  C  C67  1  0.05140000  0.28399000  0.50181000  1
  C  C68  1  0.89144000  0.12224000  0.68268000  1
  C  C69  1  0.39144000  0.68268000  0.12224000  1
  C  C70  1  0.59540000  0.46747000  0.34653000  1
  C  C71  1  0.09540000  0.34653000  0.46747000  1
  C  C72  1  0.51352000  0.49735000  0.32871000  1
  C  C73  1  0.01352000  0.32871000  0.49735000  1
  C  C74  1  0.68481000  0.16864000  0.67129000  1
  C  C75  1  0.18481000  0.67129000  0.16864000  1
  C  C76  1  0.55428000  0.46805000  0.39689000  1
  C  C77  1  0.05428000  0.39689000  0.46805000  1
  C  C78  1  0.97124000  0.17092000  0.72730000  1
  C  C79  1  0.47124000  0.72730000  0.17092000  1
  C  C80  1  0.76741000  0.21782000  0.71601000  1
  C  C81  1  0.26741000  0.71601000  0.21782000  1
  C  C82  1  0.91233000  0.22037000  0.74412000  1
  C  C83  1  0.41233000  0.74412000  0.22037000  1
  H  H84  1  0.63580000  0.82880000  0.24360000  1
  H  H85  1  0.13580000  0.24360000  0.82880000  1
  H  H86  1  0.40000000  0.76580000  0.32100000  1
  H  H87  1  0.90000000  0.32100000  0.76580000  1
  H  H88  1  0.07900000  0.67900000  0.44480000  1
  H  H89  1  0.57900000  0.44480000  0.67900000  1
  H  H90  1  0.77480000  0.89750000  0.32700000  1
  H  H91  1  0.27480000  0.32700000  0.89750000  1
  H  H92  1  0.97410000  0.75050000  0.47770000  1
  H  H93  1  0.47410000  0.47770000  0.75050000  1
  H  H94  1  0.44780000  0.67300000  0.57050000  1
  H  H95  1  0.94780000  0.57050000  0.67300000  1
  H  H96  1  0.91870000  0.83210000  0.48550000  1
  H  H97  1  0.41870000  0.48550000  0.83210000  1
  H  H98  1  0.39220000  0.75640000  0.58520000  1
  H  H99  1  0.89220000  0.58520000  0.75640000  1
  H  H100  1  0.39470000  0.82900000  0.57560000  1
  H  H101  1  0.89470000  0.57560000  0.82900000  1
  H  H102  1  0.37730000  0.10250000  0.42950000  1
  H  H103  1  0.87730000  0.42950000  0.10250000  1
  H  H104  1  0.30700000  0.17120000  0.41480000  1
  H  H105  1  0.80700000  0.41480000  0.17120000  1
  H  H106  1  0.81910000  0.42440000  0.25340000  1
  H  H107  1  0.31910000  0.25340000  0.42440000  1
  H  H108  1  0.13420000  0.23420000  0.55520000  1
  H  H109  1  0.63420000  0.55520000  0.23420000  1
  H  H110  1  0.49640000  0.52230000  0.27280000  1
  H  H111  1  0.99640000  0.27280000  0.52230000  1
  H  H112  1  0.58660000  0.16790000  0.65340000  1
  H  H113  1  0.08660000  0.65340000  0.16790000  1
  H  H114  1  0.43320000  0.51450000  0.34660000  1
  H  H115  1  0.93320000  0.34660000  0.51450000  1
  H  H116  1  0.06570000  0.17100000  0.74660000  1
  H  H117  1  0.56570000  0.74660000  0.17100000  1
  H  H118  1  0.72360000  0.24950000  0.72720000  1
  H  H119  1  0.22360000  0.72720000  0.24950000  1
  K  K120  1  0.75436000  0.90317000  0.58291000  1
  K  K121  1  0.25436000  0.58291000  0.90317000  1
  K  K122  1  0.17145000  0.41709000  0.32026000  1
  K  K123  1  0.67145000  0.32026000  0.41709000  1
  K  K124  1  0.35119000  0.09683000  0.67974000  1
  K  K125  1  0.85119000  0.67974000  0.09683000  1
  O  O126  1  0.22592000  0.53576000  0.49060000  1
  O  O127  1  0.72592000  0.49060000  0.53576000  1
  O  O128  1  0.47923000  0.57044000  0.50425000  1
  O  O129  1  0.97923000  0.50425000  0.57044000  1
  O  O130  1  0.39916889  0.78440000  0.41304000  1
  O  O131  1  0.89918000  0.41304000  0.78440000  1
  O  O132  1  0.64012000  0.84792000  0.46814000  1
  O  O133  1  0.14012000  0.46814000  0.84792000  1
  O  O134  1  0.39971000  0.88026000  0.45257000  1
  O  O135  1  0.89971000  0.45257000  0.88026000  1
  O  O136  1  0.90879000  0.93381000  0.42956000  1
  O  O137  1  0.40879000  0.42956000  0.93381000  1
  O  O138  1  0.69016000  0.95484000  0.46424000  1
  O  O139  1  0.19016000  0.46424000  0.95484000  1
  O  O140  1  0.94584000  0.93774000  0.53718000  1
  O  O141  1  0.44584000  0.53718000  0.93774000  1
  O  O142  1  0.18527000  0.95958000  0.52443000  1
  O  O143  1  0.68527000  0.52443000  0.95958000  1
  O  O144  1  0.49996000  0.95013000  0.57195000  1
  O  O145  1  0.99996000  0.57195000  0.95013000  1
  O  O146  1  0.23532000  0.04516000  0.50940000  1
  O  O147  1  0.73532000  0.50940000  0.04516000  1
  O  O148  1  0.47498000  0.06619000  0.49575000  1
  O  O149  1  0.97498000  0.49575000  0.06619000  1
  O  O150  1  0.51296000  0.92344000  0.64064000  1
  O  O151  1  0.01296000  0.64064000  0.92344000  1
  O  O152  1  0.72569000  0.04042000  0.56485000  1
  O  O153  1  0.22569000  0.56485000  0.04042000  1
  O  O154  1  0.31725000  0.97985000  0.63640000  1
  O  O155  1  0.81725000  0.63640000  0.97985000  1
  O  O156  1  0.87232000  0.35936000  0.28280000  1
  O  O157  1  0.37232000  0.28280000  0.35936000  1
  O  O158  1  0.50810000  0.06226000  0.59944000  1
  O  O159  1  0.00810000  0.59944000  0.06226000  1
  O  O160  1  0.04983000  0.04987000  0.62182000  1
  O  O161  1  0.54983000  0.62182000  0.04987000  1
  O  O162  1  0.83740000  0.02015000  0.65655000  1
  O  O163  1  0.33740000  0.65655000  0.02015000  1
  O  O164  1  0.01945000  0.11974000  0.57231000  1
  O  O165  1  0.51945000  0.57231000  0.11974000  1
  O  O166  1  0.68085000  0.36360000  0.34345000  1
  O  O167  1  0.18085000  0.34345000  0.36360000  1
  O  O168  1  0.29220000  0.15208000  0.62022000  1
  O  O169  1  0.79220000  0.62022000  0.15208000  1
  O  O170  1  0.08952000  0.07656000  0.71720000  1
  O  O171  1  0.58952000  0.71720000  0.07656000  1
  O  O172  1  0.92801000  0.42805000  0.37818000  1
  O  O173  1  0.42801000  0.37818000  0.42805000  1
  O  O174  1  0.11478000  0.21560000  0.62864000  1
  O  O175  1  0.61476889  0.62864000  0.21560000  1
  O  O176  1  0.40866000  0.46282000  0.40056000  1
  O  O177  1  0.90866000  0.40056000  0.46282000  1
  O  O178  1  0.66084000  0.47557000  0.43515000  1
  O  O179  1  0.16084000  0.43515000  0.47557000  1
  O  O180  1  0.17198000  0.53186000  0.37978000  1
  O  O181  1  0.67198000  0.37978000  0.53186000  1
  O  O182  1  0.98612889  0.58696000  0.37136000  1
  O  O183  1  0.48614000  0.37136000  0.58696000  1
  O  O184  1  0.94714000  0.54743000  0.42769000  1
  O  O185  1  0.44714000  0.42769000  0.54743000  1
  Pr  Pr186  1  0.44573000  0.98000000  0.50434000  1
  Pr  Pr187  1  0.94573000  0.50434000  0.98000000  1
  Pr  Pr188  1  0.96573000  0.02000000  0.52434000  1
  Pr  Pr189  1  0.46573000  0.52434000  0.02000000  1
  Pr  Pr190  1  0.94139000  0.49566000  0.47566000  1
  Pr  Pr191  1  0.44139000  0.47566000  0.49566000  1
  S  S192  1  0.49302000  0.83648000  0.43155000  1
  S  S193  1  0.99302000  0.43155000  0.83648000  1
  S  S194  1  0.40738000  0.93814000  0.60698000  1
  S  S195  1  0.90738000  0.60698000  0.93814000  1
  S  S196  1  0.80040000  0.39302000  0.33116000  1
  S  S197  1  0.30040000  0.33116000  0.39302000  1
  S  S198  1  0.96924000  0.06186000  0.66884000  1
  S  S199  1  0.46924000  0.66884000  0.06186000  1
  S  S200  1  0.15654000  0.16352000  0.59507000  1
  S  S201  1  0.65654000  0.59507000  0.16352000  1
  S  S202  1  0.06147000  0.56845000  0.40493000  1
  S  S203  1  0.56147000  0.40493000  0.56845000  1
