# generated using pymatgen
data_Cu10Mo12PH48C48N24(ClO17)2
_symmetry_space_group_name_H-M   'P 1'
_cell_length_a   11.65540000
_cell_length_b   13.40450000
_cell_length_c   20.67970000
_cell_angle_alpha   89.14100000
_cell_angle_beta   76.43900000
_cell_angle_gamma   67.33200000
_symmetry_Int_Tables_number   1
_chemical_formula_structural   Cu10Mo12PH48C48N24(ClO17)2
_chemical_formula_sum   'Cu10 Mo12 P1 H48 C48 N24 Cl2 O34'
_cell_volume   2887.94788714
_cell_formula_units_Z   1
loop_
 _symmetry_equiv_pos_site_id
 _symmetry_equiv_pos_as_xyz
  1  'x, y, z'
loop_
 _atom_site_type_symbol
 _atom_site_label
 _atom_site_symmetry_multiplicity
 _atom_site_fract_x
 _atom_site_fract_y
 _atom_site_fract_z
 _atom_site_occupancy
  Cu  Cu0  1  0.01278000  0.81068000  0.21901000  1
  Cu  Cu1  1  0.03400000  0.69168000  0.37258000  1
  Cu  Cu2  1  0.18503000  0.43489000  0.26498000  1
  Cu  Cu3  1  0.20719000  0.64582000  0.89207000  1
  Cu  Cu4  1  0.37125000  0.02131000  0.34534000  1
  Cu  Cu5  1  0.62875000  0.97869000  0.65466000  1
  Cu  Cu6  1  0.79281000  0.35418000  0.10793000  1
  Cu  Cu7  1  0.81497000  0.56511000  0.73502000  1
  Cu  Cu8  1  0.96600000  0.30832000  0.62742000  1
  Cu  Cu9  1  0.98722000  0.18932000  0.78099000  1
  Mo  Mo10  1  0.23018000  0.44471000  0.58422000  1
  Mo  Mo11  1  0.24697000  0.69742000  0.61991000  1
  Mo  Mo12  1  0.27321000  0.73129000  0.44659000  1
  Mo  Mo13  1  0.29466000  0.46387000  0.40893000  1
  Mo  Mo14  1  0.45439000  0.45221000  0.67225000  1
  Mo  Mo15  1  0.49906000  0.23584000  0.47508000  1
  Mo  Mo16  1  0.50094000  0.76416000  0.52492000  1
  Mo  Mo17  1  0.54561000  0.54779000  0.32775000  1
  Mo  Mo18  1  0.70534000  0.53613000  0.59107000  1
  Mo  Mo19  1  0.72679000  0.26871000  0.55341000  1
  Mo  Mo20  1  0.75303000  0.30258000  0.38009000  1
  Mo  Mo21  1  0.76982000  0.55529000  0.41578000  1
  P  P22  1  0.50000000  0.50000000  0.50000000  1
  H  H23  1  0.01210000  0.98750000  0.70870000  1
  H  H24  1  0.01560000  0.09770000  0.90940000  1
  H  H25  1  0.02810000  0.34800000  0.48570000  1
  H  H26  1  0.04010000  0.76660000  0.80570000  1
  H  H27  1  0.04640000  0.84870000  0.97960000  1
  H  H28  1  0.05310000  0.43170000  0.77120000  1
  H  H29  1  0.09500000  0.25810000  0.24960000  1
  H  H30  1  0.10560000  0.07420000  0.34010000  1
  H  H31  1  0.11290000  0.60260000  0.13220000  1
  H  H32  1  0.15110000  0.08970000  0.58070000  1
  H  H33  1  0.17140000  0.25360000  0.38950000  1
  H  H34  1  0.18370000  0.45830000  0.82750000  1
  H  H35  1  0.18420000  0.54650000  0.02120000  1
  H  H36  1  0.18940000  0.25290000  0.69010000  1
  H  H37  1  0.21060000  0.97760000  0.76070000  1
  H  H38  1  0.28820000  0.99560000  0.48360000  1
  H  H39  1  0.29210000  0.75520000  0.21470000  1
  H  H40  1  0.32960000  0.46900000  0.13740000  1
  H  H41  1  0.34130000  0.72790000  0.77610000  1
  H  H42  1  0.40740000  0.18230000  0.64900000  1
  H  H43  1  0.41070000  0.81960000  0.26150000  1
  H  H44  1  0.42350000  0.90540000  0.71680000  1
  H  H45  1  0.45440000  0.29450000  0.27730000  1
  H  H46  1  0.46870000  0.55790000  0.91680000  1
  H  H47  1  0.53130000  0.44210000  0.08320000  1
  H  H48  1  0.54560000  0.70550000  0.72270000  1
  H  H49  1  0.57650000  0.09460000  0.28320000  1
  H  H50  1  0.58930000  0.18040000  0.73850000  1
  H  H51  1  0.59260000  0.81770000  0.35100000  1
  H  H52  1  0.65870000  0.27210000  0.22390000  1
  H  H53  1  0.67040000  0.53100000  0.86260000  1
  H  H54  1  0.70790000  0.24480000  0.78530000  1
  H  H55  1  0.71180000  0.00440000  0.51640000  1
  H  H56  1  0.78940000  0.02240000  0.23930000  1
  H  H57  1  0.81060000  0.74710000  0.30990000  1
  H  H58  1  0.81580000  0.45350000  0.97880000  1
  H  H59  1  0.81630000  0.54170000  0.17250000  1
  H  H60  1  0.82860000  0.74640000  0.61050000  1
  H  H61  1  0.84890000  0.91030000  0.41930000  1
  H  H62  1  0.88710000  0.39740000  0.86780000  1
  H  H63  1  0.89440000  0.92580000  0.65990000  1
  H  H64  1  0.90500000  0.74190000  0.75040000  1
  H  H65  1  0.94690000  0.56830000  0.22880000  1
  H  H66  1  0.95360000  0.15130000  0.02040000  1
  H  H67  1  0.95990000  0.23340000  0.19430000  1
  H  H68  1  0.97190000  0.65200000  0.51430000  1
  H  H69  1  0.98440000  0.90230000  0.09060000  1
  H  H70  1  0.98790000  0.01250000  0.29130000  1
  C  C71  1  0.02650000  0.82860000  0.07710000  1
  C  C72  1  0.03960000  0.31750000  0.23320000  1
  C  C73  1  0.04100000  0.69740000  0.80090000  1
  C  C74  1  0.04640000  0.50210000  0.77920000  1
  C  C75  1  0.06450000  0.79640000  0.01000000  1
  C  C76  1  0.07490000  0.97020000  0.28540000  1
  C  C77  1  0.08210000  0.27600000  0.48670000  1
  C  C78  1  0.10230000  0.65440000  0.10120000  1
  C  C79  1  0.12470000  0.51810000  0.81330000  1
  C  C80  1  0.14370000  0.62040000  0.03420000  1
  C  C81  1  0.14600000  0.00850000  0.31390000  1
  C  C82  1  0.15350000  0.12510000  0.54170000  1
  C  C83  1  0.16860000  0.21830000  0.42850000  1
  C  C84  1  0.23660000  0.18150000  0.69680000  1
  C  C85  1  0.23720000  0.06860000  0.48320000  1
  C  C86  1  0.24900000  0.02110000  0.73730000  1
  C  C87  1  0.25140000  0.82110000  0.24060000  1
  C  C88  1  0.32310000  0.86030000  0.26850000  1
  C  C89  1  0.36880000  0.13840000  0.67160000  1
  C  C90  1  0.37770000  0.97790000  0.71160000  1
  C  C91  1  0.39630000  0.42870000  0.15640000  1
  C  C92  1  0.40850000  0.68620000  0.79450000  1
  C  C93  1  0.46770000  0.32810000  0.23820000  1
  C  C94  1  0.48290000  0.58670000  0.87600000  1
  C  C95  1  0.51710000  0.41330000  0.12400000  1
  C  C96  1  0.53230000  0.67190000  0.76180000  1
  C  C97  1  0.59150000  0.31380000  0.20550000  1
  C  C98  1  0.60370000  0.57130000  0.84360000  1
  C  C99  1  0.62230000  0.02210000  0.28840000  1
  C  C100  1  0.63120000  0.86160000  0.32840000  1
  C  C101  1  0.67690000  0.13970000  0.73150000  1
  C  C102  1  0.74860000  0.17890000  0.75940000  1
  C  C103  1  0.75100000  0.97890000  0.26270000  1
  C  C104  1  0.76280000  0.93140000  0.51680000  1
  C  C105  1  0.76340000  0.81850000  0.30320000  1
  C  C106  1  0.83140000  0.78170000  0.57150000  1
  C  C107  1  0.84650000  0.87490000  0.45830000  1
  C  C108  1  0.85400000  0.99150000  0.68610000  1
  C  C109  1  0.85630000  0.37960000  0.96580000  1
  C  C110  1  0.87530000  0.48190000  0.18670000  1
  C  C111  1  0.89770000  0.34560000  0.89880000  1
  C  C112  1  0.91790000  0.72400000  0.51330000  1
  C  C113  1  0.92510000  0.02980000  0.71460000  1
  C  C114  1  0.93550000  0.20360000  0.99000000  1
  C  C115  1  0.95360000  0.49790000  0.22080000  1
  C  C116  1  0.95900000  0.30260000  0.19910000  1
  C  C117  1  0.96040000  0.68250000  0.76680000  1
  C  C118  1  0.97350000  0.17140000  0.92290000  1
  N  N119  1  0.04050000  0.41590000  0.24340000  1
  N  N120  1  0.04760000  0.75910000  0.12320000  1
  N  N121  1  0.07570000  0.22930000  0.54410000  1
  N  N122  1  0.12010000  0.61760000  0.82730000  1
  N  N123  1  0.12500000  0.87470000  0.24960000  1
  N  N124  1  0.12740000  0.69080000  0.98700000  1
  N  N125  1  0.17500000  0.12320000  0.73060000  1
  N  N126  1  0.24740000  0.11520000  0.42580000  1
  N  N127  1  0.27170000  0.95410000  0.30500000  1
  N  N128  1  0.36780000  0.38800000  0.21550000  1
  N  N129  1  0.38220000  0.64270000  0.85080000  1
  N  N130  1  0.44270000  0.03590000  0.67860000  1
  N  N131  1  0.55730000  0.96410000  0.32140000  1
  N  N132  1  0.61780000  0.35730000  0.14920000  1
  N  N133  1  0.63220000  0.61200000  0.78450000  1
  N  N134  1  0.72830000  0.04590000  0.69500000  1
  N  N135  1  0.75260000  0.88480000  0.57420000  1
  N  N136  1  0.82500000  0.87680000  0.26940000  1
  N  N137  1  0.87260000  0.30920000  0.01300000  1
  N  N138  1  0.87500000  0.12530000  0.75040000  1
  N  N139  1  0.87990000  0.38240000  0.17270000  1
  N  N140  1  0.92430000  0.77070000  0.45590000  1
  N  N141  1  0.95240000  0.24090000  0.87680000  1
  N  N142  1  0.95950000  0.58410000  0.75660000  1
  Cl  Cl143  1  0.12100000  0.63810000  0.26854000  1
  Cl  Cl144  1  0.87900000  0.36190000  0.73146000  1
  O  O145  1  0.17240000  0.59000000  0.60990000  1
  O  O146  1  0.19550000  0.44710000  0.36640000  1
  O  O147  1  0.19790000  0.74110000  0.53730000  1
  O  O148  1  0.20000000  0.47010000  0.50000000  1
  O  O149  1  0.21880000  0.62280000  0.42750000  1
  O  O150  1  0.33220000  0.41180000  0.64970000  1
  O  O151  1  0.33520000  0.60260000  0.67450000  1
  O  O152  1  0.35420000  0.29780000  0.54390000  1
  O  O153  1  0.36270000  0.76250000  0.59930000  1
  O  O154  1  0.38680000  0.79300000  0.47160000  1
  O  O155  1  0.39580000  0.32200000  0.41500000  1
  O  O156  1  0.40210000  0.51820000  0.56720000  1
  O  O157  1  0.41120000  0.67800000  0.36730000  1
  O  O158  1  0.41210000  0.61900000  0.51600000  1
  O  O159  1  0.41350000  0.43350000  0.49300000  1
  O  O160  1  0.41770000  0.48350000  0.34300000  1
  O  O161  1  0.43360000  0.54570000  0.44490000  1
  O  O162  1  0.56640000  0.45430000  0.55510000  1
  O  O163  1  0.58230000  0.51650000  0.65700000  1
  O  O164  1  0.58650000  0.56650000  0.50700000  1
  O  O165  1  0.58790000  0.38100000  0.48400000  1
  O  O166  1  0.58880000  0.32200000  0.63270000  1
  O  O167  1  0.59790000  0.48180000  0.43280000  1
  O  O168  1  0.60420000  0.67800000  0.58500000  1
  O  O169  1  0.61320000  0.20700000  0.52840000  1
  O  O170  1  0.63730000  0.23750000  0.40070000  1
  O  O171  1  0.64580000  0.70220000  0.45610000  1
  O  O172  1  0.66480000  0.39740000  0.32550000  1
  O  O173  1  0.66780000  0.58820000  0.35030000  1
  O  O174  1  0.78120000  0.37720000  0.57250000  1
  O  O175  1  0.80000000  0.52990000  0.50000000  1
  O  O176  1  0.80210000  0.25890000  0.46270000  1
  O  O177  1  0.80450000  0.55290000  0.63360000  1
  O  O178  1  0.82760000  0.41000000  0.39010000  1
