# generated using pymatgen
data_CoH7C13NO4
_symmetry_space_group_name_H-M   'P 1'
_cell_length_a   10.16400000
_cell_length_b   13.36300000
_cell_length_c   22.39500000
_cell_angle_alpha   86.83300000
_cell_angle_beta   80.34600000
_cell_angle_gamma   83.22400000
_symmetry_Int_Tables_number   1
_chemical_formula_structural   CoH7C13NO4
_chemical_formula_sum   'Co6 H42 C78 N6 O24'
_cell_volume   2975.74799753
_cell_formula_units_Z   6
loop_
 _symmetry_equiv_pos_site_id
 _symmetry_equiv_pos_as_xyz
  1  'x, y, z'
loop_
 _atom_site_type_symbol
 _atom_site_label
 _atom_site_symmetry_multiplicity
 _atom_site_fract_x
 _atom_site_fract_y
 _atom_site_fract_z
 _atom_site_occupancy
  Co  Co0  1  0.07110000  0.79027000  0.72354000  1
  Co  Co1  1  0.32323000  0.00179000  0.72140000  1
  Co  Co2  1  0.43475000  0.95160000  0.16438000  1
  Co  Co3  1  0.56525000  0.04840000  0.83562000  1
  Co  Co4  1  0.67677000  0.99821000  0.27860000  1
  Co  Co5  1  0.92890000  0.20973000  0.27646000  1
  H  H6  1  0.01610000  0.04710000  0.83210000  1
  H  H7  1  0.06350000  0.08910000  0.57440000  1
  H  H8  1  0.06800000  0.17760000  0.48660000  1
  H  H9  1  0.08550000  0.22000000  0.38850000  1
  H  H10  1  0.15190000  0.16510000  0.16640000  1
  H  H11  1  0.16920000  0.00850000  0.27400000  1
  H  H12  1  0.18090000  0.13720000  0.06500000  1
  H  H13  1  0.19950000  0.13190000  0.96760000  1
  H  H14  1  0.20000000  0.48580000  0.25050000  1
  H  H15  1  0.20260000  0.85860000  0.00920000  1
  H  H16  1  0.20900000  0.76920000  0.93470000  1
  H  H17  1  0.22720000  0.73770000  0.83320000  1
  H  H18  1  0.24230000  0.64500000  0.27880000  1
  H  H19  1  0.25900000  0.81320000  0.24840000  1
  H  H20  1  0.28290000  0.83150000  0.61310000  1
  H  H21  1  0.31110000  0.88200000  0.51230000  1
  H  H22  1  0.34120000  0.89490000  0.41770000  1
  H  H23  1  0.36770000  0.20440000  0.28360000  1
  H  H24  1  0.38760000  0.26210000  0.85210000  1
  H  H25  1  0.39770000  0.42580000  0.82570000  1
  H  H26  1  0.40150000  0.56230000  0.74460000  1
  H  H27  1  0.59850000  0.43770000  0.25540000  1
  H  H28  1  0.60230000  0.57420000  0.17430000  1
  H  H29  1  0.61240000  0.73790000  0.14790000  1
  H  H30  1  0.63230000  0.79560000  0.71640000  1
  H  H31  1  0.65880000  0.10510000  0.58230000  1
  H  H32  1  0.68890000  0.11800000  0.48770000  1
  H  H33  1  0.71710000  0.16850000  0.38690000  1
  H  H34  1  0.74100000  0.18680000  0.75160000  1
  H  H35  1  0.75770000  0.35500000  0.72120000  1
  H  H36  1  0.77280000  0.26230000  0.16680000  1
  H  H37  1  0.79100000  0.23080000  0.06530000  1
  H  H38  1  0.79740000  0.14140000  0.99080000  1
  H  H39  1  0.80000000  0.51420000  0.74950000  1
  H  H40  1  0.80050000  0.86810000  0.03240000  1
  H  H41  1  0.81910000  0.86280000  0.93500000  1
  H  H42  1  0.83080000  0.99150000  0.72600000  1
  H  H43  1  0.84810000  0.83490000  0.83360000  1
  H  H44  1  0.91450000  0.78000000  0.61150000  1
  H  H45  1  0.93200000  0.82240000  0.51340000  1
  H  H46  1  0.93650000  0.91090000  0.42560000  1
  H  H47  1  0.98390000  0.95290000  0.16790000  1
  C  C48  1  0.00180000  0.85910000  0.01140000  1
  C  C49  1  0.00220000  0.19990000  0.40860000  1
  C  C50  1  0.00730000  0.82590000  0.53290000  1
  C  C51  1  0.01200000  0.07040000  0.87170000  1
  C  C52  1  0.01280000  0.82920000  0.94640000  1
  C  C53  1  0.02330000  0.92140000  0.40460000  1
  C  C54  1  0.03560000  0.96120000  0.34690000  1
  C  C55  1  0.07640000  0.17720000  0.14600000  1
  C  C56  1  0.08840000  0.00850000  0.68370000  1
  C  C57  1  0.09350000  0.15880000  0.08560000  1
  C  C58  1  0.10940000  0.90890000  0.09220000  1
  C  C59  1  0.11730000  0.87320000  0.03370000  1
  C  C60  1  0.12090000  0.12070000  0.95240000  1
  C  C61  1  0.12290000  0.85760000  0.49930000  1
  C  C62  1  0.13350000  0.78600000  0.91470000  1
  C  C63  1  0.13430000  0.08390000  0.89360000  1
  C  C64  1  0.13450000  0.29680000  0.27130000  1
  C  C65  1  0.13660000  0.89500000  0.43440000  1
  C  C66  1  0.14330000  0.76730000  0.85360000  1
  C  C67  1  0.16120000  0.97870000  0.31380000  1
  C  C68  1  0.20870000  0.83030000  0.59250000  1
  C  C69  1  0.22810000  0.86030000  0.53150000  1
  C  C70  1  0.23680000  0.93050000  0.11530000  1
  C  C71  1  0.26250000  0.91140000  0.40000000  1
  C  C72  1  0.26660000  0.05530000  0.85410000  1
  C  C73  1  0.27000000  0.34150000  0.26730000  1
  C  C74  1  0.27430000  0.95050000  0.34140000  1
  C  C75  1  0.27860000  0.44150000  0.25440000  1
  C  C76  1  0.31870000  0.66210000  0.25120000  1
  C  C77  1  0.33030000  0.76430000  0.23280000  1
  C  C78  1  0.37340000  0.76250000  0.71920000  1
  C  C79  1  0.37790000  0.27380000  0.27520000  1
  C  C80  1  0.40790000  0.48040000  0.24660000  1
  C  C81  1  0.41370000  0.96510000  0.30530000  1
  C  C82  1  0.42010000  0.58580000  0.22880000  1
  C  C83  1  0.46550000  0.27900000  0.82550000  1
  C  C84  1  0.47090000  0.37860000  0.80980000  1
  C  C85  1  0.48600000  0.58700000  0.74280000  1
  C  C86  1  0.49300000  0.69010000  0.72950000  1
  C  C87  1  0.50700000  0.30990000  0.27050000  1
  C  C88  1  0.51400000  0.41300000  0.25720000  1
  C  C89  1  0.52910000  0.62140000  0.19020000  1
  C  C90  1  0.53450000  0.72100000  0.17450000  1
  C  C91  1  0.57990000  0.41420000  0.77120000  1
  C  C92  1  0.58630000  0.03490000  0.69470000  1
  C  C93  1  0.59210000  0.51960000  0.75340000  1
  C  C94  1  0.62210000  0.72620000  0.72480000  1
  C  C95  1  0.62660000  0.23750000  0.28080000  1
  C  C96  1  0.66970000  0.23570000  0.76720000  1
  C  C97  1  0.68130000  0.33790000  0.74880000  1
  C  C98  1  0.72140000  0.55850000  0.74560000  1
  C  C99  1  0.72570000  0.04950000  0.65860000  1
  C  C100  1  0.73000000  0.65850000  0.73270000  1
  C  C101  1  0.73340000  0.94470000  0.14590000  1
  C  C102  1  0.73750000  0.08860000  0.60000000  1
  C  C103  1  0.76320000  0.06950000  0.88470000  1
  C  C104  1  0.77190000  0.13970000  0.46850000  1
  C  C105  1  0.79130000  0.16970000  0.40750000  1
  C  C106  1  0.83880000  0.02130000  0.68620000  1
  C  C107  1  0.85670000  0.23270000  0.14640000  1
  C  C108  1  0.86340000  0.10500000  0.56560000  1
  C  C109  1  0.86550000  0.70320000  0.72870000  1
  C  C110  1  0.86570000  0.91610000  0.10640000  1
  C  C111  1  0.86650000  0.21400000  0.08530000  1
  C  C112  1  0.87710000  0.14240000  0.50070000  1
  C  C113  1  0.87910000  0.87930000  0.04760000  1
  C  C114  1  0.88270000  0.12680000  0.96630000  1
  C  C115  1  0.89060000  0.09110000  0.90780000  1
  C  C116  1  0.90650000  0.84120000  0.91440000  1
  C  C117  1  0.91160000  0.99150000  0.31630000  1
  C  C118  1  0.92360000  0.82280000  0.85400000  1
  C  C119  1  0.96440000  0.03880000  0.65310000  1
  C  C120  1  0.97670000  0.07860000  0.59540000  1
  C  C121  1  0.98720000  0.17080000  0.05360000  1
  C  C122  1  0.98800000  0.92960000  0.12830000  1
  C  C123  1  0.99270000  0.17410000  0.46710000  1
  C  C124  1  0.99780000  0.80010000  0.59140000  1
  C  C125  1  0.99820000  0.14090000  0.98860000  1
  N  N126  1  0.04470000  0.78780000  0.82190000  1
  N  N127  1  0.09790000  0.80010000  0.62510000  1
  N  N128  1  0.43970000  0.79910000  0.19290000  1
  N  N129  1  0.56030000  0.20090000  0.80710000  1
  N  N130  1  0.90210000  0.19990000  0.37490000  1
  N  N131  1  0.95530000  0.21220000  0.17810000  1
  O  O132  1  0.02650000  0.35860000  0.27200000  1
  O  O133  1  0.08780000  0.94380000  0.72570000  1
  O  O134  1  0.13450000  0.20390000  0.27370000  1
  O  O135  1  0.19380000  0.05390000  0.66120000  1
  O  O136  1  0.22420000  0.95490000  0.17020000  1
  O  O137  1  0.25720000  0.05270000  0.79680000  1
  O  O138  1  0.26260000  0.72450000  0.72080000  1
  O  O139  1  0.34860000  0.91860000  0.08150000  1
  O  O140  1  0.37060000  0.07220000  0.87480000  1
  O  O141  1  0.38890000  0.85480000  0.70980000  1
  O  O142  1  0.42430000  0.99870000  0.25020000  1
  O  O143  1  0.48460000  0.05280000  0.66800000  1
  O  O144  1  0.51540000  0.94720000  0.33200000  1
  O  O145  1  0.57570000  0.00130000  0.74980000  1
  O  O146  1  0.61110000  0.14520000  0.29020000  1
  O  O147  1  0.62940000  0.92780000  0.12520000  1
  O  O148  1  0.65140000  0.08140000  0.91850000  1
  O  O149  1  0.73740000  0.27550000  0.27920000  1
  O  O150  1  0.74280000  0.94730000  0.20320000  1
  O  O151  1  0.77580000  0.04510000  0.82980000  1
  O  O152  1  0.80620000  0.94610000  0.33880000  1
  O  O153  1  0.86550000  0.79610000  0.72630000  1
  O  O154  1  0.91220000  0.05620000  0.27430000  1
  O  O155  1  0.97350000  0.64140000  0.72800000  1
