# generated using pymatgen
data_Ni12H8C24N32Cl5O4
_symmetry_space_group_name_H-M   'P 1'
_cell_length_a   18.55640000
_cell_length_b   18.55640000
_cell_length_c   18.55640000
_cell_angle_alpha   90.00000000
_cell_angle_beta   90.00000000
_cell_angle_gamma   90.00000000
_symmetry_Int_Tables_number   1
_chemical_formula_structural   Ni12H8C24N32Cl5O4
_chemical_formula_sum   'Ni36 H24 C72 N96 Cl15 O12'
_cell_volume   6389.71042269
_cell_formula_units_Z   3
loop_
 _symmetry_equiv_pos_site_id
 _symmetry_equiv_pos_as_xyz
  1  'x, y, z'
loop_
 _atom_site_type_symbol
 _atom_site_label
 _atom_site_symmetry_multiplicity
 _atom_site_fract_x
 _atom_site_fract_y
 _atom_site_fract_z
 _atom_site_occupancy
  Ni  Ni0  1  0.00000000  0.36647000  0.50000000  1
  Ni  Ni1  1  0.00000000  0.50000000  0.36647000  1
  Ni  Ni2  1  0.00000000  0.50000000  0.63353000  1
  Ni  Ni3  1  0.00000000  0.63353000  0.50000000  1
  Ni  Ni4  1  0.14052000  0.26048000  0.50000000  1
  Ni  Ni5  1  0.14052000  0.50000000  0.26048000  1
  Ni  Ni6  1  0.14052000  0.50000000  0.73952000  1
  Ni  Ni7  1  0.14052000  0.73952000  0.50000000  1
  Ni  Ni8  1  0.26048000  0.14052000  0.50000000  1
  Ni  Ni9  1  0.26048000  0.50000000  0.14052000  1
  Ni  Ni10  1  0.26048000  0.50000000  0.85948000  1
  Ni  Ni11  1  0.26048000  0.85948000  0.50000000  1
  Ni  Ni12  1  0.36647000  0.00000000  0.50000000  1
  Ni  Ni13  1  0.36647000  0.50000000  0.00000000  1
  Ni  Ni14  1  0.50000000  0.00000000  0.36647000  1
  Ni  Ni15  1  0.50000000  0.00000000  0.63353000  1
  Ni  Ni16  1  0.50000000  0.14052000  0.26048000  1
  Ni  Ni17  1  0.50000000  0.14052000  0.73952000  1
  Ni  Ni18  1  0.50000000  0.26048000  0.14052000  1
  Ni  Ni19  1  0.50000000  0.26048000  0.85948000  1
  Ni  Ni20  1  0.50000000  0.36647000  0.00000000  1
  Ni  Ni21  1  0.50000000  0.63353000  0.00000000  1
  Ni  Ni22  1  0.50000000  0.73952000  0.14052000  1
  Ni  Ni23  1  0.50000000  0.73952000  0.85948000  1
  Ni  Ni24  1  0.50000000  0.85948000  0.26048000  1
  Ni  Ni25  1  0.50000000  0.85948000  0.73952000  1
  Ni  Ni26  1  0.63353000  0.00000000  0.50000000  1
  Ni  Ni27  1  0.63353000  0.50000000  0.00000000  1
  Ni  Ni28  1  0.73952000  0.14052000  0.50000000  1
  Ni  Ni29  1  0.73952000  0.50000000  0.14052000  1
  Ni  Ni30  1  0.73952000  0.50000000  0.85948000  1
  Ni  Ni31  1  0.73952000  0.85948000  0.50000000  1
  Ni  Ni32  1  0.85948000  0.26048000  0.50000000  1
  Ni  Ni33  1  0.85948000  0.50000000  0.26048000  1
  Ni  Ni34  1  0.85948000  0.50000000  0.73952000  1
  Ni  Ni35  1  0.85948000  0.73952000  0.50000000  1
  H  H36  1  0.23550000  0.23550000  0.38910000  1
  H  H37  1  0.23550000  0.23550000  0.61090000  1
  H  H38  1  0.23550000  0.38910000  0.23550000  1
  H  H39  1  0.23550000  0.38910000  0.76450000  1
  H  H40  1  0.23550000  0.61090000  0.23550000  1
  H  H41  1  0.23550000  0.61090000  0.76450000  1
  H  H42  1  0.23550000  0.76450000  0.38910000  1
  H  H43  1  0.23550000  0.76450000  0.61090000  1
  H  H44  1  0.38910000  0.23550000  0.23550000  1
  H  H45  1  0.38910000  0.23550000  0.76450000  1
  H  H46  1  0.38910000  0.76450000  0.23550000  1
  H  H47  1  0.38910000  0.76450000  0.76450000  1
  H  H48  1  0.61090000  0.23550000  0.23550000  1
  H  H49  1  0.61090000  0.23550000  0.76450000  1
  H  H50  1  0.61090000  0.76450000  0.23550000  1
  H  H51  1  0.61090000  0.76450000  0.76450000  1
  H  H52  1  0.76450000  0.23550000  0.38910000  1
  H  H53  1  0.76450000  0.23550000  0.61090000  1
  H  H54  1  0.76450000  0.38910000  0.23550000  1
  H  H55  1  0.76450000  0.38910000  0.76450000  1
  H  H56  1  0.76450000  0.61090000  0.23550000  1
  H  H57  1  0.76450000  0.61090000  0.76450000  1
  H  H58  1  0.76450000  0.76450000  0.38910000  1
  H  H59  1  0.76450000  0.76450000  0.61090000  1
  C  C60  1  0.16260000  0.35110000  0.35110000  1
  C  C61  1  0.16260000  0.35110000  0.64890000  1
  C  C62  1  0.16260000  0.64890000  0.35110000  1
  C  C63  1  0.16260000  0.64890000  0.64890000  1
  C  C64  1  0.22550000  0.31700000  0.31700000  1
  C  C65  1  0.22550000  0.31700000  0.68300000  1
  C  C66  1  0.22550000  0.68300000  0.31700000  1
  C  C67  1  0.22550000  0.68300000  0.68300000  1
  C  C68  1  0.25580000  0.25580000  0.34810000  1
  C  C69  1  0.25580000  0.25580000  0.65190000  1
  C  C70  1  0.25580000  0.34810000  0.25580000  1
  C  C71  1  0.25580000  0.34810000  0.74420000  1
  C  C72  1  0.25580000  0.65190000  0.25580000  1
  C  C73  1  0.25580000  0.65190000  0.74420000  1
  C  C74  1  0.25580000  0.74420000  0.34810000  1
  C  C75  1  0.25580000  0.74420000  0.65190000  1
  C  C76  1  0.31700000  0.22550000  0.31700000  1
  C  C77  1  0.31700000  0.22550000  0.68300000  1
  C  C78  1  0.31700000  0.31700000  0.22550000  1
  C  C79  1  0.31700000  0.31700000  0.77450000  1
  C  C80  1  0.31700000  0.68300000  0.22550000  1
  C  C81  1  0.31700000  0.68300000  0.77450000  1
  C  C82  1  0.31700000  0.77450000  0.31700000  1
  C  C83  1  0.31700000  0.77450000  0.68300000  1
  C  C84  1  0.34810000  0.25580000  0.25580000  1
  C  C85  1  0.34810000  0.25580000  0.74420000  1
  C  C86  1  0.34810000  0.74420000  0.25580000  1
  C  C87  1  0.34810000  0.74420000  0.74420000  1
  C  C88  1  0.35110000  0.16260000  0.35110000  1
  C  C89  1  0.35110000  0.16260000  0.64890000  1
  C  C90  1  0.35110000  0.35110000  0.16260000  1
  C  C91  1  0.35110000  0.35110000  0.83740000  1
  C  C92  1  0.35110000  0.64890000  0.16260000  1
  C  C93  1  0.35110000  0.64890000  0.83740000  1
  C  C94  1  0.35110000  0.83740000  0.35110000  1
  C  C95  1  0.35110000  0.83740000  0.64890000  1
  C  C96  1  0.64890000  0.16260000  0.35110000  1
  C  C97  1  0.64890000  0.16260000  0.64890000  1
  C  C98  1  0.64890000  0.35110000  0.16260000  1
  C  C99  1  0.64890000  0.35110000  0.83740000  1
  C  C100  1  0.64890000  0.64890000  0.16260000  1
  C  C101  1  0.64890000  0.64890000  0.83740000  1
  C  C102  1  0.64890000  0.83740000  0.35110000  1
  C  C103  1  0.64890000  0.83740000  0.64890000  1
  C  C104  1  0.65190000  0.25580000  0.25580000  1
  C  C105  1  0.65190000  0.25580000  0.74420000  1
  C  C106  1  0.65190000  0.74420000  0.25580000  1
  C  C107  1  0.65190000  0.74420000  0.74420000  1
  C  C108  1  0.68300000  0.22550000  0.31700000  1
  C  C109  1  0.68300000  0.22550000  0.68300000  1
  C  C110  1  0.68300000  0.31700000  0.22550000  1
  C  C111  1  0.68300000  0.31700000  0.77450000  1
  C  C112  1  0.68300000  0.68300000  0.22550000  1
  C  C113  1  0.68300000  0.68300000  0.77450000  1
  C  C114  1  0.68300000  0.77450000  0.31700000  1
  C  C115  1  0.68300000  0.77450000  0.68300000  1
  C  C116  1  0.74420000  0.25580000  0.34810000  1
  C  C117  1  0.74420000  0.25580000  0.65190000  1
  C  C118  1  0.74420000  0.34810000  0.25580000  1
  C  C119  1  0.74420000  0.34810000  0.74420000  1
  C  C120  1  0.74420000  0.65190000  0.25580000  1
  C  C121  1  0.74420000  0.65190000  0.74420000  1
  C  C122  1  0.74420000  0.74420000  0.34810000  1
  C  C123  1  0.74420000  0.74420000  0.65190000  1
  C  C124  1  0.77450000  0.31700000  0.31700000  1
  C  C125  1  0.77450000  0.31700000  0.68300000  1
  C  C126  1  0.77450000  0.68300000  0.31700000  1
  C  C127  1  0.77450000  0.68300000  0.68300000  1
  C  C128  1  0.83740000  0.35110000  0.35110000  1
  C  C129  1  0.83740000  0.35110000  0.64890000  1
  C  C130  1  0.83740000  0.64890000  0.35110000  1
  C  C131  1  0.83740000  0.64890000  0.64890000  1
  N  N132  1  0.07629000  0.37153000  0.42154000  1
  N  N133  1  0.07629000  0.37153000  0.57846000  1
  N  N134  1  0.07629000  0.42154000  0.37153000  1
  N  N135  1  0.07629000  0.42154000  0.62847000  1
  N  N136  1  0.07629000  0.57846000  0.37153000  1
  N  N137  1  0.07629000  0.57846000  0.62847000  1
  N  N138  1  0.07629000  0.62847000  0.42154000  1
  N  N139  1  0.07629000  0.62847000  0.57846000  1
  N  N140  1  0.13058000  0.32637000  0.41064000  1
  N  N141  1  0.13058000  0.32637000  0.58936000  1
  N  N142  1  0.13058000  0.41064000  0.32637000  1
  N  N143  1  0.13058000  0.41064000  0.67363000  1
  N  N144  1  0.13058000  0.58936000  0.32637000  1
  N  N145  1  0.13058000  0.58936000  0.67363000  1
  N  N146  1  0.13058000  0.67363000  0.41064000  1
  N  N147  1  0.13058000  0.67363000  0.58936000  1
  N  N148  1  0.32637000  0.13058000  0.41064000  1
  N  N149  1  0.32637000  0.13058000  0.58936000  1
  N  N150  1  0.32637000  0.41064000  0.13058000  1
  N  N151  1  0.32637000  0.41064000  0.86942000  1
  N  N152  1  0.32637000  0.58936000  0.13058000  1
  N  N153  1  0.32637000  0.58936000  0.86942000  1
  N  N154  1  0.32637000  0.86942000  0.41064000  1
  N  N155  1  0.32637000  0.86942000  0.58936000  1
  N  N156  1  0.37153000  0.07629000  0.42154000  1
  N  N157  1  0.37153000  0.07629000  0.57846000  1
  N  N158  1  0.37153000  0.42154000  0.07629000  1
  N  N159  1  0.37153000  0.42154000  0.92371000  1
  N  N160  1  0.37153000  0.57846000  0.07629000  1
  N  N161  1  0.37153000  0.57846000  0.92371000  1
  N  N162  1  0.37153000  0.92371000  0.42154000  1
  N  N163  1  0.37153000  0.92371000  0.57846000  1
  N  N164  1  0.41064000  0.13058000  0.32637000  1
  N  N165  1  0.41064000  0.13058000  0.67363000  1
  N  N166  1  0.41064000  0.32637000  0.13058000  1
  N  N167  1  0.41064000  0.32637000  0.86942000  1
  N  N168  1  0.41064000  0.67363000  0.13058000  1
  N  N169  1  0.41064000  0.67363000  0.86942000  1
  N  N170  1  0.41064000  0.86942000  0.32637000  1
  N  N171  1  0.41064000  0.86942000  0.67363000  1
  N  N172  1  0.42154000  0.07629000  0.37153000  1
  N  N173  1  0.42154000  0.07629000  0.62847000  1
  N  N174  1  0.42154000  0.37153000  0.07629000  1
  N  N175  1  0.42154000  0.37153000  0.92371000  1
  N  N176  1  0.42154000  0.62847000  0.07629000  1
  N  N177  1  0.42154000  0.62847000  0.92371000  1
  N  N178  1  0.42154000  0.92371000  0.37153000  1
  N  N179  1  0.42154000  0.92371000  0.62847000  1
  N  N180  1  0.57846000  0.07629000  0.37153000  1
  N  N181  1  0.57846000  0.07629000  0.62847000  1
  N  N182  1  0.57846000  0.37153000  0.07629000  1
  N  N183  1  0.57846000  0.37153000  0.92371000  1
  N  N184  1  0.57846000  0.62847000  0.07629000  1
  N  N185  1  0.57846000  0.62847000  0.92371000  1
  N  N186  1  0.57846000  0.92371000  0.37153000  1
  N  N187  1  0.57846000  0.92371000  0.62847000  1
  N  N188  1  0.58936000  0.13058000  0.32637000  1
  N  N189  1  0.58936000  0.13058000  0.67363000  1
  N  N190  1  0.58936000  0.32637000  0.13058000  1
  N  N191  1  0.58936000  0.32637000  0.86942000  1
  N  N192  1  0.58936000  0.67363000  0.13058000  1
  N  N193  1  0.58936000  0.67363000  0.86942000  1
  N  N194  1  0.58936000  0.86942000  0.32637000  1
  N  N195  1  0.58936000  0.86942000  0.67363000  1
  N  N196  1  0.62847000  0.07629000  0.42154000  1
  N  N197  1  0.62847000  0.07629000  0.57846000  1
  N  N198  1  0.62847000  0.42154000  0.07629000  1
  N  N199  1  0.62847000  0.42154000  0.92371000  1
  N  N200  1  0.62847000  0.57846000  0.07629000  1
  N  N201  1  0.62847000  0.57846000  0.92371000  1
  N  N202  1  0.62847000  0.92371000  0.42154000  1
  N  N203  1  0.62847000  0.92371000  0.57846000  1
  N  N204  1  0.67363000  0.13058000  0.41064000  1
  N  N205  1  0.67363000  0.13058000  0.58936000  1
  N  N206  1  0.67363000  0.41064000  0.13058000  1
  N  N207  1  0.67363000  0.41064000  0.86942000  1
  N  N208  1  0.67363000  0.58936000  0.13058000  1
  N  N209  1  0.67363000  0.58936000  0.86942000  1
  N  N210  1  0.67363000  0.86942000  0.41064000  1
  N  N211  1  0.67363000  0.86942000  0.58936000  1
  N  N212  1  0.86942000  0.32637000  0.41064000  1
  N  N213  1  0.86942000  0.32637000  0.58936000  1
  N  N214  1  0.86942000  0.41064000  0.32637000  1
  N  N215  1  0.86942000  0.41064000  0.67363000  1
  N  N216  1  0.86942000  0.58936000  0.32637000  1
  N  N217  1  0.86942000  0.58936000  0.67363000  1
  N  N218  1  0.86942000  0.67363000  0.41064000  1
  N  N219  1  0.86942000  0.67363000  0.58936000  1
  N  N220  1  0.92371000  0.37153000  0.42154000  1
  N  N221  1  0.92371000  0.37153000  0.57846000  1
  N  N222  1  0.92371000  0.42154000  0.37153000  1
  N  N223  1  0.92371000  0.42154000  0.62847000  1
  N  N224  1  0.92371000  0.57846000  0.37153000  1
  N  N225  1  0.92371000  0.57846000  0.62847000  1
  N  N226  1  0.92371000  0.62847000  0.42154000  1
  N  N227  1  0.92371000  0.62847000  0.57846000  1
  Cl  Cl228  1  0.00000000  0.50000000  0.50000000  1
  Cl  Cl229  1  0.27120000  0.27120000  0.50000000  1
  Cl  Cl230  1  0.27120000  0.50000000  0.27120000  1
  Cl  Cl231  1  0.27120000  0.50000000  0.72880000  1
  Cl  Cl232  1  0.27120000  0.72880000  0.50000000  1
  Cl  Cl233  1  0.50000000  0.00000000  0.50000000  1
  Cl  Cl234  1  0.50000000  0.27120000  0.27120000  1
  Cl  Cl235  1  0.50000000  0.27120000  0.72880000  1
  Cl  Cl236  1  0.50000000  0.50000000  0.00000000  1
  Cl  Cl237  1  0.50000000  0.72880000  0.27120000  1
  Cl  Cl238  1  0.50000000  0.72880000  0.72880000  1
  Cl  Cl239  1  0.72880000  0.27120000  0.50000000  1
  Cl  Cl240  1  0.72880000  0.50000000  0.27120000  1
  Cl  Cl241  1  0.72880000  0.50000000  0.72880000  1
  Cl  Cl242  1  0.72880000  0.72880000  0.50000000  1
  O  O243  1  0.15390000  0.15390000  0.50000000  1
  O  O244  1  0.15390000  0.50000000  0.15390000  1
  O  O245  1  0.15390000  0.50000000  0.84610000  1
  O  O246  1  0.15390000  0.84610000  0.50000000  1
  O  O247  1  0.50000000  0.15390000  0.15390000  1
  O  O248  1  0.50000000  0.15390000  0.84610000  1
  O  O249  1  0.50000000  0.84610000  0.15390000  1
  O  O250  1  0.50000000  0.84610000  0.84610000  1
  O  O251  1  0.84610000  0.15390000  0.50000000  1
  O  O252  1  0.84610000  0.50000000  0.15390000  1
  O  O253  1  0.84610000  0.50000000  0.84610000  1
  O  O254  1  0.84610000  0.84610000  0.50000000  1
