# generated using pymatgen
data_BaH8C8N4O5
_symmetry_space_group_name_H-M   'P 1'
_cell_length_a   4.31280000
_cell_length_b   9.21194172
_cell_length_c   9.21194172
_cell_angle_alpha   117.73061719
_cell_angle_beta   94.00691730
_cell_angle_gamma   94.00691730
_symmetry_Int_Tables_number   1
_chemical_formula_structural   BaH8C8N4O5
_chemical_formula_sum   'Ba1 H8 C8 N4 O5'
_cell_volume   320.97667805
_cell_formula_units_Z   1
loop_
 _symmetry_equiv_pos_site_id
 _symmetry_equiv_pos_as_xyz
  1  'x, y, z'
loop_
 _atom_site_type_symbol
 _atom_site_label
 _atom_site_symmetry_multiplicity
 _atom_site_fract_x
 _atom_site_fract_y
 _atom_site_fract_z
 _atom_site_occupancy
  Ba  Ba0  1  0.50000000  0.00000000  0.00000000  1
  C  C1  1  0.27930000  0.54730000  0.93570000  1
  C  C2  1  0.27930000  0.93570000  0.54730000  1
  C  C3  1  0.26460000  0.44330000  0.00870000  1
  C  C4  1  0.26460000  0.00870000  0.44330000  1
  C  C5  1  0.06540000  0.29600000  0.93840000  1
  C  C6  1  0.06540000  0.93840000  0.29600000  1
  C  C7  1  0.90550000  0.36280000  0.72780000  1
  C  C8  1  0.90550000  0.72780000  0.36280000  1
  H  H9  1  0.77790000  0.63030000  0.33310000  1
  H  H10  1  0.77790000  0.33310000  0.63030000  1
  H  H11  1  0.73900000  0.74900000  0.17900000  1
  H  H12  1  0.73900000  0.17900000  0.74900000  1
  H  H13  1  0.39110000  0.47360000  0.10660000  1
  H  H14  1  0.39110000  0.10660000  0.47360000  1
  H  H15  1  0.93800000  0.71000000  0.79800000  1
  H  H16  1  0.93800000  0.79800000  0.71000000  1
  N  N17  1  0.09140000  0.49980000  0.78860000  1
  N  N18  1  0.09140000  0.78860000  0.49980000  1
  N  N19  1  0.88290000  0.26150000  0.79410000  1
  N  N20  1  0.88290000  0.79410000  0.26150000  1
  O  O21  1  0.45150000  0.68420000  0.99480000  1
  O  O22  1  0.45150000  0.99480000  0.68420000  1
  O  O23  1  0.92970000  0.80550000  0.80550000  1
  O  O24  1  0.03290000  0.19260000  0.99260000  1
  O  O25  1  0.03290000  0.99260000  0.19260000  1
