# generated using pymatgen
data_CoH9(C5N2)3
_symmetry_space_group_name_H-M   'P 1'
_cell_length_a   14.93590000
_cell_length_b   18.11820000
_cell_length_c   18.11820455
_cell_angle_alpha   80.21844777
_cell_angle_beta   65.65816818
_cell_angle_gamma   65.65820000
_symmetry_Int_Tables_number   1
_chemical_formula_structural   CoH9(C5N2)3
_chemical_formula_sum   'Co8 H72 C120 N48'
_cell_volume   4070.01746348
_cell_formula_units_Z   8
loop_
 _symmetry_equiv_pos_site_id
 _symmetry_equiv_pos_as_xyz
  1  'x, y, z'
loop_
 _atom_site_type_symbol
 _atom_site_label
 _atom_site_symmetry_multiplicity
 _atom_site_fract_x
 _atom_site_fract_y
 _atom_site_fract_z
 _atom_site_occupancy
  Co  Co0  1  0.21543000  0.57797000  0.66923000  1
  Co  Co1  1  0.70660000  0.33077000  0.07797000  1
  Co  Co2  1  0.53737000  0.07797000  0.16923000  1
  Co  Co3  1  0.11534000  0.16923000  0.42203000  1
  Co  Co4  1  0.88466000  0.83077000  0.57797000  1
  Co  Co5  1  0.46263000  0.92203000  0.83077000  1
  Co  Co6  1  0.29340000  0.66923000  0.92203000  1
  Co  Co7  1  0.78457000  0.42203000  0.33077000  1
  H  H8  1  0.79650000  0.19430000  0.19490000  1
  H  H9  1  0.80440000  0.38120000  0.16700000  1
  H  H10  1  0.55310000  0.56240000  0.41280000  1
  H  H11  1  0.71390000  0.97850000  0.24670000  1
  H  H12  1  0.96060000  0.25330000  0.97850000  1
  H  H13  1  0.45660000  0.24730000  0.44470000  1
  H  H14  1  0.54060000  0.44750000  0.35710000  1
  H  H15  1  0.38690000  0.64750000  0.50390000  1
  H  H16  1  0.22530000  0.84360000  0.64540000  1
  H  H17  1  0.77650000  0.96390000  0.08270000  1
  H  H18  1  0.09870000  0.94470000  0.75270000  1
  H  H19  1  0.85920000  0.41730000  0.96390000  1
  H  H20  1  0.00860000  0.69490000  0.80570000  1
  H  H21  1  0.06090000  0.47850000  0.74670000  1
  H  H22  1  0.68560000  0.16700000  0.11880000  1
  H  H23  1  0.49080000  0.19490000  0.30570000  1
  H  H24  1  0.85140000  0.74730000  0.94470000  1
  H  H25  1  0.24040000  0.08270000  0.53610000  1
  H  H26  1  0.43110000  0.35460000  0.34360000  1
  H  H27  1  0.17690000  0.46390000  0.58270000  1
  H  H28  1  0.87070000  0.85460000  0.84360000  1
  H  H29  1  0.19240000  0.24670000  0.52150000  1
  H  H30  1  0.35260000  0.11880000  0.33300000  1
  H  H31  1  0.10230000  0.85710000  0.55250000  1
  H  H32  1  0.02860000  0.66700000  0.61880000  1
  H  H33  1  0.52830000  0.93760000  0.08720000  1
  H  H34  1  0.46560000  0.49610000  0.14750000  1
  H  H35  1  0.71430000  0.65640000  0.85460000  1
  H  H36  1  0.61550000  0.41280000  0.93760000  1
  H  H37  1  0.79610000  0.55530000  0.74730000  1
  H  H38  1  0.48810000  0.35710000  0.05250000  1
  H  H39  1  0.89080000  0.99610000  0.64750000  1
  H  H40  1  0.53830000  0.85250000  0.99610000  1
  H  H41  1  0.96590000  0.08720000  0.56240000  1
  H  H42  1  0.65480000  0.94750000  0.85710000  1
  H  H43  1  0.81430000  0.69430000  0.69490000  1
  H  H44  1  0.18570000  0.30570000  0.30510000  1
  H  H45  1  0.34520000  0.05250000  0.14290000  1
  H  H46  1  0.03410000  0.91280000  0.43760000  1
  H  H47  1  0.46170000  0.14750000  0.00390000  1
  H  H48  1  0.10920000  0.00390000  0.35250000  1
  H  H49  1  0.51190000  0.64290000  0.94750000  1
  H  H50  1  0.20390000  0.44470000  0.25270000  1
  H  H51  1  0.38450000  0.58720000  0.06240000  1
  H  H52  1  0.28570000  0.34360000  0.14540000  1
  H  H53  1  0.53440000  0.50390000  0.85250000  1
  H  H54  1  0.47170000  0.06240000  0.91280000  1
  H  H55  1  0.97140000  0.33300000  0.38120000  1
  H  H56  1  0.89770000  0.14290000  0.44750000  1
  H  H57  1  0.64740000  0.88120000  0.66700000  1
  H  H58  1  0.80760000  0.75330000  0.47850000  1
  H  H59  1  0.12930000  0.14540000  0.15640000  1
  H  H60  1  0.82310000  0.53610000  0.41730000  1
  H  H61  1  0.56890000  0.64540000  0.65640000  1
  H  H62  1  0.75960000  0.91730000  0.46390000  1
  H  H63  1  0.14860000  0.25270000  0.05530000  1
  H  H64  1  0.50920000  0.80510000  0.69430000  1
  H  H65  1  0.31440000  0.83300000  0.88120000  1
  H  H66  1  0.93910000  0.52150000  0.25330000  1
  H  H67  1  0.99140000  0.30510000  0.19430000  1
  H  H68  1  0.14080000  0.58270000  0.03610000  1
  H  H69  1  0.90130000  0.05530000  0.24730000  1
  H  H70  1  0.22350000  0.03610000  0.91730000  1
  H  H71  1  0.77470000  0.15640000  0.35460000  1
  H  H72  1  0.61310000  0.35250000  0.49610000  1
  H  H73  1  0.45940000  0.55250000  0.64290000  1
  H  H74  1  0.54340000  0.75270000  0.55530000  1
  H  H75  1  0.03940000  0.74670000  0.02150000  1
  H  H76  1  0.28610000  0.02150000  0.75330000  1
  H  H77  1  0.44690000  0.43760000  0.58720000  1
  H  H78  1  0.19560000  0.61880000  0.83300000  1
  H  H79  1  0.20350000  0.80570000  0.80510000  1
  C  C80  1  0.14720000  0.80177000  0.85163000  1
  C  C81  1  0.51817000  0.31049000  0.47717000  1
  C  C82  1  0.38378000  0.80643000  0.61041000  1
  C  C83  1  0.94273000  0.23075000  0.02999000  1
  C  C84  1  0.39636000  0.43034000  0.57494000  1
  C  C85  1  0.52009000  0.25012000  0.43830000  1
  C  C86  1  0.61738000  0.13661000  0.33983000  1
  C  C87  1  0.67348000  0.02999000  0.26925000  1
  C  C88  1  0.41719000  0.37240000  0.52542000  1
  C  C89  1  0.73330000  0.39450000  0.20090000  1
  C  C90  1  0.38611000  0.68773000  0.53025000  1
  C  C91  1  0.04279000  0.83983000  0.86339000  1
  C  C92  1  0.28973000  0.80427000  0.61527000  1
  C  C93  1  0.58981000  0.43084000  0.30494000  1
  C  C94  1  0.28962000  0.74507000  0.57629000  1
  C  C95  1  0.55103000  0.14837000  0.30177000  1
  C  C96  1  0.24910000  0.44490000  0.57230000  1
  C  C97  1  0.56719000  0.41633000  0.24449000  1
  C  C98  1  0.73370000  0.94490000  0.07230000  1
  C  C99  1  0.99419000  0.88959000  0.80643000  1
  C  C100  1  0.99883000  0.64837000  0.80177000  1
  C  C101  1  0.02728000  0.52999000  0.76925000  1
  C  C102  1  0.04161000  0.93830000  0.74988000  1
  C  C103  1  0.18832000  0.74449000  0.58367000  1
  C  C104  1  0.80600000  0.42770000  0.94490000  1
  C  C105  1  0.90618000  0.63661000  0.83983000  1
  C  C106  1  0.17860000  0.07230000  0.55510000  1
  C  C107  1  0.62780000  0.20090000  0.10550000  1
  C  C108  1  0.79149000  0.75012000  0.93830000  1
  C  C109  1  0.68499000  0.87240000  0.02542000  1
  C  C110  1  0.46531000  0.42371000  0.24507000  1
  C  C111  1  0.40600000  0.38473000  0.30427000  1
  C  C112  1  0.90500000  0.88473000  0.80427000  1
  C  C113  1  0.00466000  0.97717000  0.68951000  1
  C  C114  1  0.80062000  0.69357000  0.88959000  1
  C  C115  1  0.05739000  0.02542000  0.62760000  1
  C  C116  1  0.10525000  0.80494000  0.56916000  1
  C  C117  1  0.20347000  0.26925000  0.47001000  1
  C  C118  1  0.59836000  0.93034000  0.07494000  1
  C  C119  1  0.69417000  0.81049000  0.97717000  1
  C  C120  1  0.06580000  0.70090000  0.60550000  1
  C  C121  1  0.32870000  0.10550000  0.29910000  1
  C  C122  1  0.25399000  0.33983000  0.36339000  1
  C  C123  1  0.30979000  0.38959000  0.30643000  1
  C  C124  1  0.42616000  0.46975000  0.18773000  1
  C  C125  1  0.86591000  0.92371000  0.74507000  1
  C  C126  1  0.91636000  0.96975000  0.68773000  1
  C  C127  1  0.67330000  0.42506000  0.93034000  1
  C  C128  1  0.02870000  0.07494000  0.56966000  1
  C  C129  1  0.70927000  0.69573000  0.88473000  1
  C  C130  1  0.52065000  0.30494000  0.06916000  1
  C  C131  1  0.71041000  0.47458000  0.87240000  1
  C  C132  1  0.60409000  0.81227000  0.96975000  1
  C  C133  1  0.48352000  0.24449000  0.08367000  1
  C  C134  1  0.19940000  0.30177000  0.35163000  1
  C  C135  1  0.61098000  0.75493000  0.92371000  1
  C  C136  1  0.32559000  0.06916000  0.19506000  1
  C  C137  1  0.27021000  0.43830000  0.24988000  1
  C  C138  1  0.32866000  0.47717000  0.18951000  1
  C  C139  1  0.77199000  0.91633000  0.74449000  1
  C  C140  1  0.22801000  0.08367000  0.25551000  1
  C  C141  1  0.67134000  0.52283000  0.81049000  1
  C  C142  1  0.72979000  0.56170000  0.75012000  1
  C  C143  1  0.67441000  0.93084000  0.80494000  1
  C  C144  1  0.38902000  0.24507000  0.07629000  1
  C  C145  1  0.80060000  0.69823000  0.64837000  1
  C  C146  1  0.51648000  0.75551000  0.91633000  1
  C  C147  1  0.39591000  0.18773000  0.03025000  1
  C  C148  1  0.28959000  0.52542000  0.12760000  1
  C  C149  1  0.47935000  0.69506000  0.93084000  1
  C  C150  1  0.29073000  0.30427000  0.11527000  1
  C  C151  1  0.97130000  0.92506000  0.43034000  1
  C  C152  1  0.32670000  0.57494000  0.06966000  1
  C  C153  1  0.08364000  0.03025000  0.31227000  1
  C  C154  1  0.13409000  0.07629000  0.25493000  1
  C  C155  1  0.57384000  0.53025000  0.81227000  1
  C  C156  1  0.69021000  0.61041000  0.69357000  1
  C  C157  1  0.74601000  0.66017000  0.63661000  1
  C  C158  1  0.67130000  0.89450000  0.70090000  1
  C  C159  1  0.93420000  0.29910000  0.39450000  1
  C  C160  1  0.30583000  0.18951000  0.02283000  1
  C  C161  1  0.40164000  0.06966000  0.92506000  1
  C  C162  1  0.79653000  0.73075000  0.52999000  1
  C  C163  1  0.89475000  0.19506000  0.43084000  1
  C  C164  1  0.94261000  0.97458000  0.37240000  1
  C  C165  1  0.19938000  0.30643000  0.11041000  1
  C  C166  1  0.99534000  0.02283000  0.31049000  1
  C  C167  1  0.09500000  0.11527000  0.19573000  1
  C  C168  1  0.59400000  0.61527000  0.69573000  1
  C  C169  1  0.53469000  0.57629000  0.75493000  1
  C  C170  1  0.31501000  0.12760000  0.97458000  1
  C  C171  1  0.20851000  0.24988000  0.06170000  1
  C  C172  1  0.37220000  0.79910000  0.89450000  1
  C  C173  1  0.82140000  0.92770000  0.44490000  1
  C  C174  1  0.09382000  0.36339000  0.16017000  1
  C  C175  1  0.19400000  0.57230000  0.05510000  1
  C  C176  1  0.81168000  0.25551000  0.41633000  1
  C  C177  1  0.95839000  0.06170000  0.25012000  1
  C  C178  1  0.97272000  0.47001000  0.23075000  1
  C  C179  1  0.00117000  0.35163000  0.19823000  1
  C  C180  1  0.00581000  0.11041000  0.19357000  1
  C  C181  1  0.26630000  0.05510000  0.92770000  1
  C  C182  1  0.43281000  0.58367000  0.75551000  1
  C  C183  1  0.75090000  0.55510000  0.42770000  1
  C  C184  1  0.44897000  0.85163000  0.69823000  1
  C  C185  1  0.71038000  0.25493000  0.42371000  1
  C  C186  1  0.41019000  0.56916000  0.69506000  1
  C  C187  1  0.71027000  0.19573000  0.38473000  1
  C  C188  1  0.95721000  0.16017000  0.13661000  1
  C  C189  1  0.61389000  0.31227000  0.46975000  1
  C  C190  1  0.26670000  0.60550000  0.79910000  1
  C  C191  1  0.58281000  0.62760000  0.47458000  1
  C  C192  1  0.32652000  0.97001000  0.73075000  1
  C  C193  1  0.38262000  0.86339000  0.66017000  1
  C  C194  1  0.47991000  0.74988000  0.56170000  1
  C  C195  1  0.60364000  0.56966000  0.42506000  1
  C  C196  1  0.05727000  0.76925000  0.97001000  1
  C  C197  1  0.61622000  0.19357000  0.38959000  1
  C  C198  1  0.48183000  0.68951000  0.52283000  1
  C  C199  1  0.85280000  0.19823000  0.14837000  1
  N  N200  1  0.30364000  0.93918000  0.68194000  1
  N  N201  1  0.69495000  0.41740000  0.27772000  1
  N  N202  1  0.98558000  0.81806000  0.93918000  1
  N  N203  1  0.84272000  0.24369000  0.08067000  1
  N  N204  1  0.28882000  0.47727000  0.60469000  1
  N  N205  1  0.32122000  0.38252000  0.52364000  1
  N  N206  1  0.58641000  0.08067000  0.25631000  1
  N  N207  1  0.66174000  0.39210000  0.17662000  1
  N  N208  1  0.07661000  0.58067000  0.75631000  1
  N  N209  1  0.77262000  0.88252000  0.02364000  1
  N  N210  1  0.15514000  0.02364000  0.61748000  1
  N  N211  1  0.16164000  0.67662000  0.60790000  1
  N  N212  1  0.92476000  0.56082000  0.81806000  1
  N  N213  1  0.62922000  0.97727000  0.10469000  1
  N  N214  1  0.73391000  0.39531000  0.97727000  1
  N  N215  1  0.25718000  0.31806000  0.43918000  1
  N  N216  1  0.61235000  0.27772000  0.08260000  1
  N  N217  1  0.79626000  0.47636000  0.88252000  1
  N  N218  1  0.55384000  0.17662000  0.10790000  1
  N  N219  1  0.10649000  0.10469000  0.52273000  1
  N  N220  1  0.39007000  0.08260000  0.22228000  1
  N  N221  1  0.02733000  0.77772000  0.58260000  1
  N  N222  1  0.16708000  0.25631000  0.41933000  1
  N  N223  1  0.23046000  0.10790000  0.32338000  1
  N  N224  1  0.76954000  0.89210000  0.67662000  1
  N  N225  1  0.83292000  0.74369000  0.58067000  1
  N  N226  1  0.97267000  0.22228000  0.41740000  1
  N  N227  1  0.60993000  0.91740000  0.77772000  1
  N  N228  1  0.89351000  0.89531000  0.47727000  1
  N  N229  1  0.44616000  0.82338000  0.89210000  1
  N  N230  1  0.20374000  0.52364000  0.11748000  1
  N  N231  1  0.38765000  0.72228000  0.91740000  1
  N  N232  1  0.74282000  0.68194000  0.56082000  1
  N  N233  1  0.26609000  0.60469000  0.02273000  1
  N  N234  1  0.37078000  0.02273000  0.89531000  1
  N  N235  1  0.07524000  0.43918000  0.18194000  1
  N  N236  1  0.83836000  0.32338000  0.39210000  1
  N  N237  1  0.84486000  0.97636000  0.38252000  1
  N  N238  1  0.22738000  0.11748000  0.97636000  1
  N  N239  1  0.92339000  0.41933000  0.24369000  1
  N  N240  1  0.33826000  0.60790000  0.82338000  1
  N  N241  1  0.41359000  0.91933000  0.74369000  1
  N  N242  1  0.67878000  0.61748000  0.47636000  1
  N  N243  1  0.71118000  0.52273000  0.39531000  1
  N  N244  1  0.15728000  0.75631000  0.91933000  1
  N  N245  1  0.01442000  0.18194000  0.06082000  1
  N  N246  1  0.30505000  0.58260000  0.72228000  1
  N  N247  1  0.69636000  0.06082000  0.31806000  1
