# generated using pymatgen
data_GaH5C8O5
_symmetry_space_group_name_H-M   'P 1'
_cell_length_a   6.71200000
_cell_length_b   11.02283875
_cell_length_c   11.02283875
_cell_angle_alpha   61.35971635
_cell_angle_beta   73.95605396
_cell_angle_gamma   73.95605396
_symmetry_Int_Tables_number   1
_chemical_formula_structural   GaH5C8O5
_chemical_formula_sum   'Ga2 H10 C16 O10'
_cell_volume   677.78129949
_cell_formula_units_Z   2
loop_
 _symmetry_equiv_pos_site_id
 _symmetry_equiv_pos_as_xyz
  1  'x, y, z'
loop_
 _atom_site_type_symbol
 _atom_site_label
 _atom_site_symmetry_multiplicity
 _atom_site_fract_x
 _atom_site_fract_y
 _atom_site_fract_z
 _atom_site_occupancy
  C  C0  1  0.29380000  0.49440000  0.06120000  1
  C  C1  1  0.79380000  0.06120000  0.49440000  1
  C  C2  1  0.87240000  0.93680000  0.47960000  1
  C  C3  1  0.37240000  0.47960000  0.93680000  1
  C  C4  1  0.34340000  0.52540000  0.26380000  1
  C  C5  1  0.84340000  0.26380000  0.52540000  1
  C  C6  1  0.42160000  0.51570000  0.12170000  1
  C  C7  1  0.92160000  0.12170000  0.51570000  1
  C  C8  1  0.07840000  0.87830000  0.48430000  1
  C  C9  1  0.57840000  0.48430000  0.87830000  1
  C  C10  1  0.15660000  0.73620000  0.47460000  1
  C  C11  1  0.65660000  0.47460000  0.73620000  1
  C  C12  1  0.62760000  0.52040000  0.06320000  1
  C  C13  1  0.12760000  0.06320000  0.52040000  1
  C  C14  1  0.20620000  0.93880000  0.50560000  1
  C  C15  1  0.70620000  0.50560000  0.93880000  1
  Ga  Ga16  1  1.00000000  0.50000000  0.50000000  1
  Ga  Ga17  1  0.50000000  0.50000000  0.50000000  1
  H  H18  1  0.73090000  0.53370000  0.11370000  1
  H  H19  1  0.23090000  0.11370000  0.53370000  1
  H  H20  1  0.36790000  0.89080000  0.51280000  1
  H  H21  1  0.86790000  0.51280000  0.89080000  1
  H  H22  1  0.75000000  0.66580000  0.33420000  1
  H  H23  1  0.25000000  0.33420000  0.66580000  1
  H  H24  1  0.13210000  0.48720000  0.10920000  1
  H  H25  1  0.63210000  0.10920000  0.48720000  1
  H  H26  1  0.76910000  0.88630000  0.46630000  1
  H  H27  1  0.26910000  0.46630000  0.88630000  1
  O  O28  1  0.15730000  0.51050000  0.31450000  1
  O  O29  1  0.65730000  0.31450000  0.51050000  1
  O  O30  1  0.03310000  0.69400000  0.45100000  1
  O  O31  1  0.53310000  0.45100000  0.69400000  1
  O  O32  1  0.75000000  0.57690000  0.42310000  1
  O  O33  1  0.25000000  0.42310000  0.57690000  1
  O  O34  1  0.46690000  0.54900000  0.30600000  1
  O  O35  1  0.96690000  0.30600000  0.54900000  1
  O  O36  1  0.34270000  0.68550000  0.48950000  1
  O  O37  1  0.84270000  0.48950000  0.68550000  1
