# generated using pymatgen
data_Zn6H26C44O13
_symmetry_space_group_name_H-M   'P 1'
_cell_length_a   19.53727330
_cell_length_b   19.53727330
_cell_length_c   19.53727330
_cell_angle_alpha   109.47122063
_cell_angle_beta   109.47122063
_cell_angle_gamma   109.47122063
_symmetry_Int_Tables_number   1
_chemical_formula_structural   Zn6H26C44O13
_chemical_formula_sum   'Zn24 H104 C176 O52'
_cell_volume   5740.76758193
_cell_formula_units_Z   4
loop_
 _symmetry_equiv_pos_site_id
 _symmetry_equiv_pos_as_xyz
  1  'x, y, z'
loop_
 _atom_site_type_symbol
 _atom_site_label
 _atom_site_symmetry_multiplicity
 _atom_site_fract_x
 _atom_site_fract_y
 _atom_site_fract_z
 _atom_site_occupancy
  C  C0  1  0.10585000  0.77129000  0.82588000  1
  C  C1  1  0.44541000  0.27129000  0.66544000  1
  C  C2  1  0.60585000  0.27997000  0.83456000  1
  C  C3  1  0.94541000  0.77997000  0.67412000  1
  C  C4  1  0.13898000  0.84586000  0.89838000  1
  C  C5  1  0.44748000  0.34586000  0.70688000  1
  C  C6  1  0.63898000  0.24060000  0.79312000  1
  C  C7  1  0.94748000  0.74060000  0.60162000  1
  C  C8  1  0.09802000  0.68907000  0.69259000  1
  C  C9  1  0.49648000  0.18907000  0.59105000  1
  C  C10  1  0.59802000  0.40543000  0.90895000  1
  C  C11  1  0.99648000  0.90543000  0.80741000  1
  C  C12  1  0.19259000  0.50352000  0.59457000  1
  C  C13  1  0.40895000  0.00352000  0.31093000  1
  C  C14  1  0.69259000  0.59802000  0.18907000  1
  C  C15  1  0.90895000  0.09802000  0.90543000  1
  C  C16  1  0.13934000  0.76954000  0.77314000  1
  C  C17  1  0.49640000  0.26954000  0.63020000  1
  C  C18  1  0.63934000  0.36620000  0.86980000  1
  C  C19  1  0.99640000  0.86620000  0.72686000  1
  C  C20  1  0.27314000  0.50360000  0.63380000  1
  C  C21  1  0.36980000  0.00360000  0.23046000  1
  C  C22  1  0.77314000  0.63934000  0.26954000  1
  C  C23  1  0.86980000  0.13934000  0.86620000  1
  C  C24  1  0.29291000  0.45054000  0.58693000  1
  C  C25  1  0.36361000  0.95054000  0.15763000  1
  C  C26  1  0.79291000  0.70598000  0.34237000  1
  C  C27  1  0.86361000  0.20598000  0.91307000  1
  C  C28  1  0.32588000  0.55459000  0.72003000  1
  C  C29  1  0.33456000  0.05459000  0.22871000  1
  C  C30  1  0.82588000  0.60585000  0.27129000  1
  C  C31  1  0.83456000  0.10585000  0.77997000  1
  C  C32  1  0.32219000  0.94848000  0.08307000  1
  C  C33  1  0.36541000  0.44848000  0.62629000  1
  C  C34  1  0.82219000  0.23912000  0.87371000  1
  C  C35  1  0.86541000  0.73912000  0.41693000  1
  C  C36  1  0.29312000  0.05252000  0.15414000  1
  C  C37  1  0.39838000  0.55252000  0.75940000  1
  C  C38  1  0.79312000  0.13898000  0.74060000  1
  C  C39  1  0.89838000  0.63898000  0.34586000  1
  C  C40  1  0.28695000  0.99947000  0.08132000  1
  C  C41  1  0.41815000  0.49947000  0.71252000  1
  C  C42  1  0.78695000  0.20563000  0.78748000  1
  C  C43  1  0.91815000  0.70563000  0.41868000  1
  C  C44  1  0.20563000  0.91868000  0.91815000  1
  C  C45  1  0.50053000  0.41868000  0.71305000  1
  C  C46  1  0.70563000  0.28748000  0.78695000  1
  C  C47  1  0.00053000  0.78748000  0.58185000  1
  C  C48  1  0.23260000  1.00000000  1.00000000  1
  C  C49  1  0.50000000  0.50000000  0.76740000  1
  C  C50  1  0.73260000  0.23260000  0.73260000  1
  C  C51  1  1.00000000  0.73260000  0.50000000  1
  C  C52  1  0.20598000  0.84237000  0.79291000  1
  C  C53  1  0.54946000  0.34237000  0.63639000  1
  C  C54  1  0.70598000  0.41307000  0.86361000  1
  C  C55  1  0.04946000  0.91307000  0.70709000  1
  C  C56  1  0.18907000  0.19259000  0.09802000  1
  C  C57  1  0.59457000  0.69259000  0.00352000  1
  C  C58  1  0.68907000  0.09105000  0.49648000  1
  C  C59  1  0.09457000  0.59105000  0.40198000  1
  C  C60  1  0.23912000  0.91693000  0.86541000  1
  C  C61  1  0.55152000  0.41693000  0.67781000  1
  C  C62  1  0.73912000  0.37371000  0.82219000  1
  C  C63  1  0.05152000  0.87371000  0.63459000  1
  C  C64  1  0.28748000  0.08185000  0.00053000  1
  C  C65  1  0.58132000  0.58185000  0.79437000  1
  C  C66  1  0.78748000  0.28695000  0.70563000  1
  C  C67  1  0.08132000  0.78695000  0.49947000  1
  C  C68  1  0.24060000  0.10162000  0.94748000  1
  C  C69  1  0.65414000  0.60162000  0.86102000  1
  C  C70  1  0.74060000  0.29312000  0.63898000  1
  C  C71  1  0.15414000  0.79312000  0.55252000  1
  C  C72  1  0.26954000  0.27314000  0.13934000  1
  C  C73  1  0.63380000  0.77314000  0.00360000  1
  C  C74  1  0.76954000  0.13020000  0.49640000  1
  C  C75  1  0.13380000  0.63020000  0.36066000  1
  C  C76  1  0.34237000  0.29291000  0.20598000  1
  C  C77  1  0.58693000  0.79291000  0.95054000  1
  C  C78  1  0.84237000  0.13639000  0.54946000  1
  C  C79  1  0.08693000  0.63639000  0.29402000  1
  C  C80  1  0.37371000  0.13459000  0.05152000  1
  C  C81  1  0.58307000  0.63459000  0.76088000  1
  C  C82  1  0.87371000  0.32219000  0.73912000  1
  C  C83  1  0.08307000  0.82219000  0.44848000  1
  C  C84  1  0.27129000  0.32588000  0.10585000  1
  C  C85  1  0.72003000  0.82588000  0.05459000  1
  C  C86  1  0.77129000  0.16544000  0.44541000  1
  C  C87  1  0.22003000  0.66544000  0.39415000  1
  C  C88  1  0.27997000  0.17412000  0.94541000  1
  C  C89  1  0.72871000  0.67412000  0.89415000  1
  C  C90  1  0.77997000  0.33456000  0.60585000  1
  C  C91  1  0.22871000  0.83456000  0.55459000  1
  C  C92  1  0.41693000  0.36541000  0.23912000  1
  C  C93  1  0.62629000  0.86541000  0.94848000  1
  C  C94  1  0.91693000  0.17781000  0.55152000  1
  C  C95  1  0.12629000  0.67781000  0.26088000  1
  C  C96  1  0.41307000  0.20709000  0.04946000  1
  C  C97  1  0.65763000  0.70709000  0.79402000  1
  C  C98  1  0.91307000  0.36361000  0.70598000  1
  C  C99  1  0.15763000  0.86361000  0.45054000  1
  C  C100  1  0.36620000  0.22686000  0.99640000  1
  C  C101  1  0.73046000  0.72686000  0.86066000  1
  C  C102  1  0.86620000  0.36980000  0.63934000  1
  C  C103  1  0.23046000  0.86980000  0.50360000  1
  C  C104  1  0.34586000  0.39838000  0.13898000  1
  C  C105  1  0.75940000  0.89838000  0.05252000  1
  C  C106  1  0.84586000  0.20688000  0.44748000  1
  C  C107  1  0.25940000  0.70688000  0.36102000  1
  C  C108  1  0.41868000  0.41815000  0.20563000  1
  C  C109  1  0.71252000  0.91815000  0.99947000  1
  C  C110  1  0.91868000  0.21305000  0.50053000  1
  C  C111  1  0.21252000  0.71305000  0.29437000  1
  C  C112  1  0.44848000  0.58307000  0.32219000  1
  C  C113  1  0.76088000  0.08307000  0.13459000  1
  C  C114  1  0.94848000  0.12629000  0.36541000  1
  C  C115  1  0.26088000  0.62629000  0.17781000  1
  C  C116  1  0.40543000  0.30741000  0.99648000  1
  C  C117  1  0.81093000  0.80741000  0.90198000  1
  C  C118  1  0.90543000  0.40895000  0.59802000  1
  C  C119  1  0.31093000  0.90895000  0.50352000  1
  C  C120  1  0.45054000  0.65763000  0.36361000  1
  C  C121  1  0.79402000  0.15763000  0.20709000  1
  C  C122  1  0.95054000  0.08693000  0.29291000  1
  C  C123  1  0.29402000  0.58693000  0.13639000  1
  C  C124  1  0.50000000  0.50000000  0.23260000  1
  C  C125  1  0.76740000  1.00000000  1.00000000  1
  C  C126  1  0.00000000  0.26740000  0.50000000  1
  C  C127  1  0.26740000  0.76740000  0.26740000  1
  C  C128  1  0.49947000  0.58132000  0.28695000  1
  C  C129  1  0.79437000  0.08132000  0.08185000  1
  C  C130  1  0.99947000  0.21252000  0.41815000  1
  C  C131  1  0.29437000  0.71252000  0.21305000  1
  C  C132  1  0.58185000  0.50053000  0.28748000  1
  C  C133  1  0.71305000  0.00053000  0.91868000  1
  C  C134  1  0.08185000  0.29437000  0.58132000  1
  C  C135  1  0.21305000  0.79437000  0.21252000  1
  C  C136  1  0.60162000  0.44748000  0.24060000  1
  C  C137  1  0.70688000  0.94748000  0.84586000  1
  C  C138  1  0.10162000  0.36102000  0.65414000  1
  C  C139  1  0.20688000  0.86102000  0.25940000  1
  C  C140  1  0.63459000  0.55152000  0.37371000  1
  C  C141  1  0.67781000  0.05152000  0.91693000  1
  C  C142  1  0.13459000  0.26088000  0.58307000  1
  C  C143  1  0.17781000  0.76088000  0.12629000  1
  C  C144  1  0.66544000  0.94541000  0.77129000  1
  C  C145  1  0.67412000  0.44541000  0.27997000  1
  C  C146  1  0.16544000  0.89415000  0.22003000  1
  C  C147  1  0.17412000  0.39415000  0.72871000  1
  C  C148  1  0.63639000  0.04946000  0.84237000  1
  C  C149  1  0.70709000  0.54946000  0.41307000  1
  C  C150  1  0.13639000  0.79402000  0.08693000  1
  C  C151  1  0.20709000  0.29402000  0.65763000  1
  C  C152  1  0.63020000  0.99640000  0.76954000  1
  C  C153  1  0.72686000  0.49640000  0.36620000  1
  C  C154  1  0.13020000  0.86066000  0.13380000  1
  C  C155  1  0.22686000  0.36066000  0.73046000  1
  C  C156  1  0.50360000  0.73046000  0.36980000  1
  C  C157  1  0.86066000  0.23046000  0.22686000  1
  C  C158  1  0.00360000  0.13380000  0.27314000  1
  C  C159  1  0.36066000  0.63380000  0.13020000  1
  C  C160  1  0.59105000  0.99648000  0.68907000  1
  C  C161  1  0.80741000  0.49648000  0.40543000  1
  C  C162  1  0.09105000  0.90198000  0.09457000  1
  C  C163  1  0.30741000  0.40198000  0.81093000  1
  C  C164  1  0.50352000  0.81093000  0.40895000  1
  C  C165  1  0.90198000  0.31093000  0.30741000  1
  C  C166  1  0.00352000  0.09457000  0.19259000  1
  C  C167  1  0.40198000  0.59457000  0.09105000  1
  C  C168  1  0.55252000  0.65414000  0.29312000  1
  C  C169  1  0.86102000  0.15414000  0.10162000  1
  C  C170  1  0.05252000  0.25940000  0.39838000  1
  C  C171  1  0.36102000  0.75940000  0.20688000  1
  C  C172  1  0.55459000  0.72871000  0.33456000  1
  C  C173  1  0.89415000  0.22871000  0.17412000  1
  C  C174  1  0.05459000  0.22003000  0.32588000  1
  C  C175  1  0.39415000  0.72003000  0.16544000  1
  H  H176  1  0.09010000  0.25140000  0.31270000  1
  H  H177  1  0.43870000  0.75140000  0.16130000  1
  H  H178  1  0.59010000  0.77740000  0.33870000  1
  H  H179  1  0.93870000  0.27740000  0.18730000  1
  H  H180  1  0.11660000  0.84710000  0.93370000  1
  H  H181  1  0.41340000  0.34710000  0.73050000  1
  H  H182  1  0.61660000  0.18290000  0.76950000  1
  H  H183  1  0.91340000  0.68290000  0.56630000  1
  H  H184  1  0.25760000  0.41640000  0.52920000  1
  H  H185  1  0.38720000  0.91640000  0.15880000  1
  H  H186  1  0.75760000  0.72840000  0.34120000  1
  H  H187  1  0.88720000  0.22840000  0.97080000  1
  H  H188  1  0.31270000  0.59010000  0.75140000  1
  H  H189  1  0.33870000  0.09010000  0.27740000  1
  H  H190  1  0.81270000  0.56130000  0.22260000  1
  H  H191  1  0.83870000  0.06130000  0.74860000  1
  H  H192  1  0.18240000  1.00000000  1.00000000  1
  H  H193  1  0.50000000  0.50000000  0.81760000  1
  H  H194  1  0.68240000  0.18240000  0.68240000  1
  H  H195  1  0.00000000  0.68240000  0.50000000  1
  H  H196  1  0.31800000  0.91290000  0.03430000  1
  H  H197  1  0.37860000  0.41290000  0.59490000  1
  H  H198  1  0.81800000  0.28370000  0.90510000  1
  H  H199  1  0.87860000  0.78370000  0.46570000  1
  H  H200  1  0.26950000  0.08660000  0.15290000  1
  H  H201  1  0.43370000  0.58660000  0.81710000  1
  H  H202  1  0.76950000  0.11660000  0.68290000  1
  H  H203  1  0.93370000  0.61660000  0.34710000  1
  H  H204  1  0.22840000  0.84120000  0.75760000  1
  H  H205  1  0.58360000  0.34120000  0.61280000  1
  H  H206  1  0.72840000  0.47080000  0.88720000  1
  H  H207  1  0.08360000  0.97080000  0.74240000  1
  H  H208  1  0.18290000  0.06630000  0.91340000  1
  H  H209  1  0.65290000  0.56630000  0.88340000  1
  H  H210  1  0.68290000  0.26950000  0.61660000  1
  H  H211  1  0.15290000  0.76950000  0.58660000  1
  H  H212  1  0.34120000  0.25760000  0.22840000  1
  H  H213  1  0.52920000  0.75760000  0.91640000  1
  H  H214  1  0.84120000  0.11280000  0.58360000  1
  H  H215  1  0.02920000  0.61280000  0.27160000  1
  H  H216  1  0.28370000  0.96570000  0.87860000  1
  H  H217  1  0.58710000  0.46570000  0.68200000  1
  H  H218  1  0.78370000  0.40510000  0.81800000  1
  H  H219  1  0.08710000  0.90510000  0.62140000  1
  H  H220  1  0.40510000  0.12140000  0.08710000  1
  H  H221  1  0.53430000  0.62140000  0.71630000  1
  H  H222  1  0.90510000  0.31800000  0.78370000  1
  H  H223  1  0.03430000  0.81800000  0.41290000  1
  H  H224  1  0.25140000  0.66130000  0.43870000  1
  H  H225  1  0.72260000  0.16130000  0.40990000  1
  H  H226  1  0.75140000  0.81270000  0.09010000  1
  H  H227  1  0.22260000  0.31270000  0.06130000  1
  H  H228  1  0.27740000  0.83870000  0.59010000  1
  H  H229  1  0.74860000  0.33870000  0.56130000  1
  H  H230  1  0.77740000  0.68730000  0.93870000  1
  H  H231  1  0.24860000  0.18730000  0.90990000  1
  H  H232  1  0.46570000  0.37860000  0.28370000  1
  H  H233  1  0.59490000  0.87860000  0.91290000  1
  H  H234  1  0.96570000  0.18200000  0.58710000  1
  H  H235  1  0.09490000  0.68200000  0.21630000  1
  H  H236  1  0.41290000  0.53430000  0.31800000  1
  H  H237  1  0.71630000  0.03430000  0.12140000  1
  H  H238  1  0.91290000  0.09490000  0.37860000  1
  H  H239  1  0.21630000  0.59490000  0.18200000  1
  H  H240  1  0.47080000  0.24240000  0.08360000  1
  H  H241  1  0.65880000  0.74240000  0.77160000  1
  H  H242  1  0.97080000  0.38720000  0.72840000  1
  H  H243  1  0.15880000  0.88720000  0.41640000  1
  H  H244  1  0.34710000  0.43370000  0.11660000  1
  H  H245  1  0.81710000  0.93370000  0.08660000  1
  H  H246  1  0.84710000  0.23050000  0.41340000  1
  H  H247  1  0.31710000  0.73050000  0.38340000  1
  H  H248  1  0.41640000  0.65880000  0.38720000  1
  H  H249  1  0.77160000  0.15880000  0.24240000  1
  H  H250  1  0.91640000  0.02920000  0.25760000  1
  H  H251  1  0.27160000  0.52920000  0.11280000  1
  H  H252  1  0.56630000  0.41340000  0.18290000  1
  H  H253  1  0.73050000  0.91340000  0.84710000  1
  H  H254  1  0.06630000  0.38340000  0.65290000  1
  H  H255  1  0.23050000  0.88340000  0.31710000  1
  H  H256  1  0.62140000  0.58710000  0.40510000  1
  H  H257  1  0.68200000  0.08710000  0.96570000  1
  H  H258  1  0.12140000  0.21630000  0.53430000  1
  H  H259  1  0.18200000  0.71630000  0.09490000  1
  H  H260  1  0.50000000  0.50000000  0.18240000  1
  H  H261  1  0.81760000  0.00000000  1.00000000  1
  H  H262  1  0.00000000  0.31760000  0.50000000  1
  H  H263  1  0.31760000  0.81760000  0.31760000  1
  H  H264  1  0.66130000  0.90990000  0.72260000  1
  H  H265  1  0.68730000  0.40990000  0.24860000  1
  H  H266  1  0.16130000  0.93870000  0.25140000  1
  H  H267  1  0.18730000  0.43870000  0.77740000  1
  H  H268  1  0.61280000  0.08360000  0.84120000  1
  H  H269  1  0.74240000  0.58360000  0.47080000  1
  H  H270  1  0.11280000  0.77160000  0.02920000  1
  H  H271  1  0.24240000  0.27160000  0.65880000  1
  H  H272  1  0.58660000  0.65290000  0.26950000  1
  H  H273  1  0.88340000  0.15290000  0.06630000  1
  H  H274  1  0.08660000  0.31710000  0.43370000  1
  H  H275  1  0.38340000  0.81710000  0.23050000  1
  H  H276  1  0.56130000  0.24860000  0.83870000  1
  H  H277  1  0.90990000  0.74860000  0.68730000  1
  H  H278  1  0.06130000  0.72260000  0.81270000  1
  H  H279  1  0.40990000  0.22260000  0.66130000  1
  O  O280  1  0.00000000  0.00000000  0.00000000  1
  O  O281  1  0.00000000  0.50000000  0.50000000  1
  O  O282  1  0.50000000  1.00000000  0.50000000  1
  O  O283  1  0.50000000  0.50000000  1.00000000  1
  O  O284  1  0.03708000  0.13796000  0.16914000  1
  O  O285  1  0.46882000  0.63796000  0.10088000  1
  O  O286  1  0.53708000  0.86794000  0.39912000  1
  O  O287  1  0.96882000  0.36794000  0.33086000  1
  O  O288  1  0.16914000  0.53708000  0.63796000  1
  O  O289  1  0.39912000  0.03708000  0.36794000  1
  O  O290  1  0.66914000  0.53118000  0.13206000  1
  O  O291  1  0.89912000  0.03118000  0.86204000  1
  O  O292  1  0.14882000  0.46260000  0.51764000  1
  O  O293  1  0.44496000  0.96260000  0.31378000  1
  O  O294  1  0.64882000  0.63118000  0.18622000  1
  O  O295  1  0.94496000  0.13118000  0.98236000  1
  O  O296  1  0.13118000  0.68622000  0.64882000  1
  O  O297  1  0.53740000  0.18622000  0.55504000  1
  O  O298  1  0.63118000  0.48236000  0.94496000  1
  O  O299  1  0.03740000  0.98236000  0.85118000  1
  O  O300  1  0.18622000  0.14882000  0.13118000  1
  O  O301  1  0.51764000  0.64882000  0.96260000  1
  O  O302  1  0.68622000  0.05504000  0.53740000  1
  O  O303  1  0.01764000  0.55504000  0.36882000  1
  O  O304  1  0.13796000  0.60088000  0.46882000  1
  O  O305  1  0.63206000  0.10088000  0.46292000  1
  O  O306  1  0.63796000  0.66914000  0.03708000  1
  O  O307  1  0.13206000  0.16914000  0.03118000  1
  O  O308  1  0.36794000  0.89912000  0.53708000  1
  O  O309  1  0.86204000  0.39912000  0.53118000  1
  O  O310  1  0.86794000  0.83086000  0.96882000  1
  O  O311  1  0.36204000  0.33086000  0.96292000  1
  O  O312  1  0.48236000  0.35118000  0.03740000  1
  O  O313  1  0.81378000  0.85118000  0.86882000  1
  O  O314  1  0.98236000  0.44496000  0.63118000  1
  O  O315  1  0.31378000  0.94496000  0.46260000  1
  O  O316  1  0.46260000  0.81378000  0.44496000  1
  O  O317  1  0.86882000  0.31378000  0.35118000  1
  O  O318  1  0.96260000  0.01764000  0.14882000  1
  O  O319  1  0.36882000  0.51764000  0.05504000  1
  O  O320  1  0.55504000  0.03740000  0.68622000  1
  O  O321  1  0.85118000  0.53740000  0.48236000  1
  O  O322  1  0.05504000  0.86882000  0.01764000  1
  O  O323  1  0.35118000  0.36882000  0.81378000  1
  O  O324  1  0.60088000  0.96292000  0.63206000  1
  O  O325  1  0.83086000  0.46292000  0.36204000  1
  O  O326  1  0.10088000  0.96882000  0.13796000  1
  O  O327  1  0.33086000  0.46882000  0.86794000  1
  O  O328  1  0.53118000  0.36204000  0.89912000  1
  O  O329  1  0.96292000  0.86204000  0.83086000  1
  O  O330  1  0.03118000  0.63206000  0.66914000  1
  O  O331  1  0.46292000  0.13206000  0.60088000  1
  Zn  Zn332  1  0.08478000  0.05881000  0.11853000  1
  Zn  Zn333  1  0.44028000  0.55881000  0.97403000  1
  Zn  Zn334  1  0.58478000  0.96625000  0.52597000  1
  Zn  Zn335  1  0.94028000  0.46625000  0.38147000  1
  Zn  Zn336  1  0.05881000  0.47403000  0.44028000  1
  Zn  Zn337  1  0.53375000  0.97403000  0.41522000  1
  Zn  Zn338  1  0.55881000  0.61853000  0.08478000  1
  Zn  Zn339  1  0.03375000  0.11853000  0.05972000  1
  Zn  Zn340  1  0.11853000  0.58478000  0.55881000  1
  Zn  Zn341  1  0.52597000  0.08478000  0.46625000  1
  Zn  Zn342  1  0.61853000  0.55972000  0.03375000  1
  Zn  Zn343  1  0.02597000  0.05972000  0.94119000  1
  Zn  Zn344  1  0.47403000  0.91522000  0.53375000  1
  Zn  Zn345  1  0.88147000  0.41522000  0.44119000  1
  Zn  Zn346  1  0.97403000  0.94028000  0.05881000  1
  Zn  Zn347  1  0.38147000  0.44028000  0.96625000  1
  Zn  Zn348  1  0.46625000  0.02597000  0.58478000  1
  Zn  Zn349  1  0.94119000  0.52597000  0.55972000  1
  Zn  Zn350  1  0.96625000  0.88147000  0.94028000  1
  Zn  Zn351  1  0.44119000  0.38147000  0.91522000  1
  Zn  Zn352  1  0.55972000  0.44119000  0.02597000  1
  Zn  Zn353  1  0.91522000  0.94119000  0.88147000  1
  Zn  Zn354  1  0.05972000  0.53375000  0.61853000  1
  Zn  Zn355  1  0.41522000  0.03375000  0.47403000  1
