# generated using pymatgen
data_Zn2CoH5C15O11
_symmetry_space_group_name_H-M   'P 1'
_cell_length_a   17.96900000
_cell_length_b   18.38900000
_cell_length_c   18.38900000
_cell_angle_alpha   120.00000000
_cell_angle_beta   90.00000000
_cell_angle_gamma   90.00000000
_symmetry_Int_Tables_number   1
_chemical_formula_structural   Zn2CoH5C15O11
_chemical_formula_sum   'Zn12 Co6 H30 C90 O66'
_cell_volume   5262.24138735
_cell_formula_units_Z   6
loop_
 _symmetry_equiv_pos_site_id
 _symmetry_equiv_pos_as_xyz
  1  'x, y, z'
loop_
 _atom_site_type_symbol
 _atom_site_label
 _atom_site_symmetry_multiplicity
 _atom_site_fract_x
 _atom_site_fract_y
 _atom_site_fract_z
 _atom_site_occupancy
  Zn  Zn0  1  0.66684000  0.90167000  0.24309000  1
  Zn  Zn1  1  0.16684000  0.90167000  0.65858000  1
  Zn  Zn2  1  0.16684000  0.75691000  0.09833000  1
  Zn  Zn3  1  0.66684000  0.75691000  0.65858000  1
  Zn  Zn4  1  0.66684000  0.65858000  0.75691000  1
  Zn  Zn5  1  0.16684000  0.65858000  0.90167000  1
  Zn  Zn6  1  0.66684000  0.34142000  0.09833000  1
  Zn  Zn7  1  0.16684000  0.34142000  0.24309000  1
  Zn  Zn8  1  0.16684000  0.24309000  0.34142000  1
  Zn  Zn9  1  0.66684000  0.24309000  0.90167000  1
  Zn  Zn10  1  0.66684000  0.09833000  0.34142000  1
  Zn  Zn11  1  0.16684000  0.09833000  0.75691000  1
  Co  Co12  1  0.82460000  0.00000000  0.34934000  1
  Co  Co13  1  0.32460000  1.00000000  0.65066000  1
  Co  Co14  1  0.82460000  0.65066000  0.65066000  1
  Co  Co15  1  0.32460000  0.65066000  1.00000000  1
  Co  Co16  1  0.32460000  0.34934000  0.34934000  1
  Co  Co17  1  0.82460000  0.34934000  1.00000000  1
  H  H18  1  0.25700000  0.00000000  0.18475000  1
  H  H19  1  0.75700000  0.00000000  0.81525000  1
  H  H20  1  0.44870000  0.87330000  0.15570000  1
  H  H21  1  0.94870000  0.87330000  0.71760000  1
  H  H22  1  0.94870000  0.84430000  0.12670000  1
  H  H23  1  0.44870000  0.84430000  0.71760000  1
  H  H24  1  0.25700000  0.81525000  0.81525000  1
  H  H25  1  0.75700000  0.81525000  1.00000000  1
  H  H26  1  0.12250000  0.80210000  0.35460000  1
  H  H27  1  0.62250000  0.80210000  0.44750000  1
  H  H28  1  0.44870000  0.71760000  0.84430000  1
  H  H29  1  0.94870000  0.71760000  0.87330000  1
  H  H30  1  0.62250000  0.64540000  0.19790000  1
  H  H31  1  0.12250000  0.64540000  0.44750000  1
  H  H32  1  0.12250000  0.55250000  0.19790000  1
  H  H33  1  0.62250000  0.55250000  0.35460000  1
  H  H34  1  0.12250000  0.44750000  0.64540000  1
  H  H35  1  0.62250000  0.44750000  0.80210000  1
  H  H36  1  0.62250000  0.35460000  0.55250000  1
  H  H37  1  0.12250000  0.35460000  0.80210000  1
  H  H38  1  0.44870000  0.28240000  0.12670000  1
  H  H39  1  0.94870000  0.28240000  0.15570000  1
  H  H40  1  0.12250000  0.19790000  0.55250000  1
  H  H41  1  0.62250000  0.19790000  0.64540000  1
  H  H42  1  0.75700000  0.18475000  0.18475000  1
  H  H43  1  0.25700000  0.18475000  1.00000000  1
  H  H44  1  0.94870000  0.15570000  0.28240000  1
  H  H45  1  0.44870000  0.15570000  0.87330000  1
  H  H46  1  0.44870000  0.12670000  0.28240000  1
  H  H47  1  0.94870000  0.12670000  0.84430000  1
  C  C48  1  0.30790000  0.00000000  0.19630000  1
  C  C49  1  0.46060000  0.00000000  0.22200000  1
  C  C50  1  0.53960000  0.00000000  0.23980000  1
  C  C51  1  0.03960000  0.00000000  0.76020000  1
  C  C52  1  0.96060000  0.00000000  0.77800000  1
  C  C53  1  0.80790000  0.00000000  0.80370000  1
  C  C54  1  0.42240000  0.92420000  0.17790000  1
  C  C55  1  0.92240000  0.92420000  0.74630000  1
  C  C56  1  0.34600000  0.92310000  0.16650000  1
  C  C57  1  0.84600000  0.92310000  0.75660000  1
  C  C58  1  0.80320000  0.87700000  0.15520000  1
  C  C59  1  0.30320000  0.87700000  0.72180000  1
  C  C60  1  0.30320000  0.84480000  0.12300000  1
  C  C61  1  0.80320000  0.84480000  0.72180000  1
  C  C62  1  0.84600000  0.83350000  0.07690000  1
  C  C63  1  0.34600000  0.83350000  0.75660000  1
  C  C64  1  0.92240000  0.82210000  0.07580000  1
  C  C65  1  0.42240000  0.82210000  0.74630000  1
  C  C66  1  0.62930000  0.81200000  0.30830000  1
  C  C67  1  0.12930000  0.81200000  0.50370000  1
  C  C68  1  0.30790000  0.80370000  0.80370000  1
  C  C69  1  0.80790000  0.80370000  1.00000000  1
  C  C70  1  0.46060000  0.77800000  0.77800000  1
  C  C71  1  0.96060000  0.77800000  1.00000000  1
  C  C72  1  0.53960000  0.76020000  0.76020000  1
  C  C73  1  0.03960000  0.76020000  0.00000000  1
  C  C74  1  0.34600000  0.75660000  0.83350000  1
  C  C75  1  0.84600000  0.75660000  0.92310000  1
  C  C76  1  0.12280000  0.74740000  0.34640000  1
  C  C77  1  0.62280000  0.74740000  0.40100000  1
  C  C78  1  0.42240000  0.74630000  0.82210000  1
  C  C79  1  0.92240000  0.74630000  0.92420000  1
  C  C80  1  0.62300000  0.73570000  0.32250000  1
  C  C81  1  0.12300000  0.73570000  0.41320000  1
  C  C82  1  0.80320000  0.72180000  0.84480000  1
  C  C83  1  0.30320000  0.72180000  0.87700000  1
  C  C84  1  0.12930000  0.69170000  0.18800000  1
  C  C85  1  0.62930000  0.69170000  0.50370000  1
  C  C86  1  0.12300000  0.67750000  0.26430000  1
  C  C87  1  0.62300000  0.67750000  0.41320000  1
  C  C88  1  0.62280000  0.65360000  0.25260000  1
  C  C89  1  0.12280000  0.65360000  0.40100000  1
  C  C90  1  0.12280000  0.59900000  0.25260000  1
  C  C91  1  0.62280000  0.59900000  0.34640000  1
  C  C92  1  0.62300000  0.58680000  0.26430000  1
  C  C93  1  0.12300000  0.58680000  0.32250000  1
  C  C94  1  0.62930000  0.50370000  0.69170000  1
  C  C95  1  0.12930000  0.50370000  0.81200000  1
  C  C96  1  0.62930000  0.49630000  0.18800000  1
  C  C97  1  0.12930000  0.49630000  0.30830000  1
  C  C98  1  0.62300000  0.41320000  0.67750000  1
  C  C99  1  0.12300000  0.41320000  0.73570000  1
  C  C100  1  0.12280000  0.40100000  0.65360000  1
  C  C101  1  0.62280000  0.40100000  0.74740000  1
  C  C102  1  0.62280000  0.34640000  0.59900000  1
  C  C103  1  0.12280000  0.34640000  0.74740000  1
  C  C104  1  0.12300000  0.32250000  0.58680000  1
  C  C105  1  0.62300000  0.32250000  0.73570000  1
  C  C106  1  0.12930000  0.30830000  0.49630000  1
  C  C107  1  0.62930000  0.30830000  0.81200000  1
  C  C108  1  0.80320000  0.27820000  0.12300000  1
  C  C109  1  0.30320000  0.27820000  0.15520000  1
  C  C110  1  0.62300000  0.26430000  0.58680000  1
  C  C111  1  0.12300000  0.26430000  0.67750000  1
  C  C112  1  0.42240000  0.25370000  0.07580000  1
  C  C113  1  0.92240000  0.25370000  0.17790000  1
  C  C114  1  0.12280000  0.25260000  0.59900000  1
  C  C115  1  0.62280000  0.25260000  0.65360000  1
  C  C116  1  0.34600000  0.24340000  0.07690000  1
  C  C117  1  0.84600000  0.24340000  0.16650000  1
  C  C118  1  0.03960000  0.23980000  0.23980000  1
  C  C119  1  0.53960000  0.23980000  0.00000000  1
  C  C120  1  0.96060000  0.22200000  0.22200000  1
  C  C121  1  0.46060000  0.22200000  1.00000000  1
  C  C122  1  0.80790000  0.19630000  0.19630000  1
  C  C123  1  0.30790000  0.19630000  0.00000000  1
  C  C124  1  0.62930000  0.18800000  0.49630000  1
  C  C125  1  0.12930000  0.18800000  0.69170000  1
  C  C126  1  0.92240000  0.17790000  0.25370000  1
  C  C127  1  0.42240000  0.17790000  0.92420000  1
  C  C128  1  0.84600000  0.16650000  0.24340000  1
  C  C129  1  0.34600000  0.16650000  0.92310000  1
  C  C130  1  0.30320000  0.15520000  0.27820000  1
  C  C131  1  0.80320000  0.15520000  0.87700000  1
  C  C132  1  0.80320000  0.12300000  0.27820000  1
  C  C133  1  0.30320000  0.12300000  0.84480000  1
  C  C134  1  0.34600000  0.07690000  0.24340000  1
  C  C135  1  0.84600000  0.07690000  0.83350000  1
  C  C136  1  0.42240000  0.07580000  0.25370000  1
  C  C137  1  0.92240000  0.07580000  0.82210000  1
  O  O138  1  0.70790000  0.00000000  0.34290000  1
  O  O139  1  0.20790000  0.00000000  0.65710000  1
  O  O140  1  0.57070000  0.93090000  0.21230000  1
  O  O141  1  0.07070000  0.93090000  0.71860000  1
  O  O142  1  0.83730000  0.90700000  0.22260000  1
  O  O143  1  0.33730000  0.90700000  0.68440000  1
  O  O144  1  0.61910000  0.88190000  0.36890000  1
  O  O145  1  0.11910000  0.88190000  0.51300000  1
  O  O146  1  0.73310000  0.87990000  0.15090000  1
  O  O147  1  0.23310000  0.87990000  0.72900000  1
  O  O148  1  0.23310000  0.84910000  0.12010000  1
  O  O149  1  0.73310000  0.84910000  0.72900000  1
  O  O150  1  0.65010000  0.79650000  0.23970000  1
  O  O151  1  0.15010000  0.79650000  0.55680000  1
  O  O152  1  0.07070000  0.78770000  0.06910000  1
  O  O153  1  0.57070000  0.78770000  0.71860000  1
  O  O154  1  0.33730000  0.77740000  0.09300000  1
  O  O155  1  0.83730000  0.77740000  0.68440000  1
  O  O156  1  0.15010000  0.76030000  0.20350000  1
  O  O157  1  0.65010000  0.76030000  0.55680000  1
  O  O158  1  0.73310000  0.72900000  0.84910000  1
  O  O159  1  0.23310000  0.72900000  0.87990000  1
  O  O160  1  0.57070000  0.71860000  0.78770000  1
  O  O161  1  0.07070000  0.71860000  0.93090000  1
  O  O162  1  0.83730000  0.68440000  0.77740000  1
  O  O163  1  0.33730000  0.68440000  0.90700000  1
  O  O164  1  0.70790000  0.65710000  0.65710000  1
  O  O165  1  0.20790000  0.65710000  1.00000000  1
  O  O166  1  0.11910000  0.63110000  0.11810000  1
  O  O167  1  0.61910000  0.63110000  0.51300000  1
  O  O168  1  0.65010000  0.55680000  0.76030000  1
  O  O169  1  0.15010000  0.55680000  0.79650000  1
  O  O170  1  0.61910000  0.51300000  0.63110000  1
  O  O171  1  0.11910000  0.51300000  0.88190000  1
  O  O172  1  0.61910000  0.48700000  0.11810000  1
  O  O173  1  0.11910000  0.48700000  0.36890000  1
  O  O174  1  0.65010000  0.44320000  0.20350000  1
  O  O175  1  0.15010000  0.44320000  0.23970000  1
  O  O176  1  0.11910000  0.36890000  0.48700000  1
  O  O177  1  0.61910000  0.36890000  0.88190000  1
  O  O178  1  0.20790000  0.34290000  0.34290000  1
  O  O179  1  0.70790000  0.34290000  1.00000000  1
  O  O180  1  0.83730000  0.31560000  0.09300000  1
  O  O181  1  0.33730000  0.31560000  0.22260000  1
  O  O182  1  0.57070000  0.28140000  0.06910000  1
  O  O183  1  0.07070000  0.28140000  0.21230000  1
  O  O184  1  0.73310000  0.27100000  0.12010000  1
  O  O185  1  0.23310000  0.27100000  0.15090000  1
  O  O186  1  0.15010000  0.23970000  0.44320000  1
  O  O187  1  0.65010000  0.23970000  0.79650000  1
  O  O188  1  0.33730000  0.22260000  0.31560000  1
  O  O189  1  0.83730000  0.22260000  0.90700000  1
  O  O190  1  0.07070000  0.21230000  0.28140000  1
  O  O191  1  0.57070000  0.21230000  0.93090000  1
  O  O192  1  0.65010000  0.20350000  0.44320000  1
  O  O193  1  0.15010000  0.20350000  0.76030000  1
  O  O194  1  0.23310000  0.15090000  0.27100000  1
  O  O195  1  0.73310000  0.15090000  0.87990000  1
  O  O196  1  0.73310000  0.12010000  0.27100000  1
  O  O197  1  0.23310000  0.12010000  0.84910000  1
  O  O198  1  0.61910000  0.11810000  0.48700000  1
  O  O199  1  0.11910000  0.11810000  0.63110000  1
  O  O200  1  0.83730000  0.09300000  0.31560000  1
  O  O201  1  0.33730000  0.09300000  0.77740000  1
  O  O202  1  0.57070000  0.06910000  0.28140000  1
  O  O203  1  0.07070000  0.06910000  0.78770000  1
