# generated using pymatgen
data_EuH6C14(NO4)2
_symmetry_space_group_name_H-M   'P 1'
_cell_length_a   12.64929722
_cell_length_b   12.64929722
_cell_length_c   16.05065253
_cell_angle_alpha   112.96978293
_cell_angle_beta   112.96978293
_cell_angle_gamma   90.55217937
_symmetry_Int_Tables_number   1
_chemical_formula_structural   EuH6C14(NO4)2
_chemical_formula_sum   'Eu4 H24 C56 N8 O32'
_cell_volume   2136.97980109
_cell_formula_units_Z   4
loop_
 _symmetry_equiv_pos_site_id
 _symmetry_equiv_pos_as_xyz
  1  'x, y, z'
loop_
 _atom_site_type_symbol
 _atom_site_label
 _atom_site_symmetry_multiplicity
 _atom_site_fract_x
 _atom_site_fract_y
 _atom_site_fract_z
 _atom_site_occupancy
  C  C0  1  0.52200000  0.34720000  0.00020000  1
  C  C1  1  0.97820000  0.65300000  0.00020000  1
  C  C2  1  0.99184000  0.87104000  0.02568000  1
  C  C3  1  0.53384000  0.15464000  0.02568000  1
  C  C4  1  0.44549000  0.84509000  0.05158000  1
  C  C5  1  0.10609000  0.20649000  0.05158000  1
  C  C6  1  0.45040000  0.74600000  0.06340000  1
  C  C7  1  0.11300000  0.31740000  0.06340000  1
  C  C8  1  0.50450000  0.34090000  0.07700000  1
  C  C9  1  0.07250000  0.73610000  0.07700000  1
  C  C10  1  0.20033000  0.16713000  0.11886000  1
  C  C11  1  0.41853000  0.95173000  0.11886000  1
  C  C12  1  0.47840000  0.44040000  0.15280000  1
  C  C13  1  0.17440000  0.71240000  0.15280000  1
  C  C14  1  0.05960000  0.02160000  0.34720000  1
  C  C15  1  0.78760000  0.32560000  0.34720000  1
  C  C16  1  0.33287000  0.29967000  0.38114000  1
  C  C17  1  0.54827000  0.08147000  0.38114000  1
  C  C18  1  0.15910000  0.99550000  0.42300000  1
  C  C19  1  0.76390000  0.42750000  0.42300000  1
  C  C20  1  0.75400000  0.04960000  0.43660000  1
  C  C21  1  0.18260000  0.38700000  0.43660000  1
  C  C22  1  0.65491000  0.05451000  0.44842000  1
  C  C23  1  0.29351000  0.39391000  0.44842000  1
  C  C24  1  0.62896000  0.50816000  0.47432000  1
  C  C25  1  0.34536000  0.96616000  0.47432000  1
  C  C26  1  0.15280000  0.97800000  0.49980000  1
  C  C27  1  0.84700000  0.52180000  0.49980000  1
  C  C28  1  0.15300000  0.47820000  0.50020000  1
  C  C29  1  0.84720000  0.02200000  0.50020000  1
  C  C30  1  0.65464000  0.03384000  0.52568000  1
  C  C31  1  0.37104000  0.49184000  0.52568000  1
  C  C32  1  0.70649000  0.60609000  0.55158000  1
  C  C33  1  0.34509000  0.94549000  0.55158000  1
  C  C34  1  0.81740000  0.61300000  0.56340000  1
  C  C35  1  0.24600000  0.95040000  0.56340000  1
  C  C36  1  0.23610000  0.57250000  0.57700000  1
  C  C37  1  0.84090000  0.00450000  0.57700000  1
  C  C38  1  0.45173000  0.91853000  0.61886000  1
  C  C39  1  0.66713000  0.70033000  0.61886000  1
  C  C40  1  0.21240000  0.67440000  0.65280000  1
  C  C41  1  0.94040000  0.97840000  0.65280000  1
  C  C42  1  0.82560000  0.28760000  0.84720000  1
  C  C43  1  0.52160000  0.55960000  0.84720000  1
  C  C44  1  0.58147000  0.04827000  0.88114000  1
  C  C45  1  0.79967000  0.83287000  0.88114000  1
  C  C46  1  0.92750000  0.26390000  0.92300000  1
  C  C47  1  0.49550000  0.65910000  0.92300000  1
  C  C48  1  0.88700000  0.68260000  0.93660000  1
  C  C49  1  0.54960000  0.25400000  0.93660000  1
  C  C50  1  0.89391000  0.79351000  0.94842000  1
  C  C51  1  0.55451000  0.15491000  0.94842000  1
  C  C52  1  0.46616000  0.84536000  0.97432000  1
  C  C53  1  0.00816000  0.12896000  0.97432000  1
  C  C54  1  0.02180000  0.34700000  0.99980000  1
  C  C55  1  0.47800000  0.65280000  0.99980000  1
  Eu  Eu56  1  0.50205000  0.25205000  0.25000000  1
  Eu  Eu57  1  0.24795500  0.99795500  0.25000000  1
  Eu  Eu58  1  0.75205000  0.00205000  0.75000000  1
  Eu  Eu59  1  0.49795500  0.74795500  0.75000000  1
  H  H60  1  0.02450000  0.42450000  0.00920000  1
  H  H61  1  0.48470000  0.58470000  0.00920000  1
  H  H62  1  0.99850000  0.94810000  0.03380000  1
  H  H63  1  0.53530000  0.08570000  0.03380000  1
  H  H64  1  0.43550000  0.74010000  0.11400000  1
  H  H65  1  0.17850000  0.37390000  0.11400000  1
  H  H66  1  0.75990000  0.06450000  0.38600000  1
  H  H67  1  0.12610000  0.32150000  0.38600000  1
  H  H68  1  0.55190000  0.50150000  0.46620000  1
  H  H69  1  0.41430000  0.96470000  0.46620000  1
  H  H70  1  0.07550000  0.47550000  0.49080000  1
  H  H71  1  0.91530000  0.01530000  0.49080000  1
  H  H72  1  0.08470000  0.98470000  0.50920000  1
  H  H73  1  0.92450000  0.52450000  0.50920000  1
  H  H74  1  0.58570000  0.03530000  0.53380000  1
  H  H75  1  0.44810000  0.49850000  0.53380000  1
  H  H76  1  0.87390000  0.67850000  0.61400000  1
  H  H77  1  0.24010000  0.93550000  0.61400000  1
  H  H78  1  0.82150000  0.62610000  0.88600000  1
  H  H79  1  0.56450000  0.25990000  0.88600000  1
  H  H80  1  0.46470000  0.91430000  0.96620000  1
  H  H81  1  0.00150000  0.05190000  0.96620000  1
  H  H82  1  0.51530000  0.41530000  0.99080000  1
  H  H83  1  0.97550000  0.57550000  0.99080000  1
  N  N84  1  0.07855000  0.84555000  0.09030000  1
  N  N85  1  0.51175000  0.24475000  0.09030000  1
  N  N86  1  0.65445000  0.42145000  0.40970000  1
  N  N87  1  0.25525000  0.98825000  0.40970000  1
  N  N88  1  0.74475000  0.01175000  0.59030000  1
  N  N89  1  0.34555000  0.57855000  0.59030000  1
  N  N90  1  0.48825000  0.75525000  0.90970000  1
  N  N91  1  0.92145000  0.15445000  0.90970000  1
  O  O92  1  0.18370000  0.61070000  0.13680000  1
  O  O93  1  0.45310000  0.52610000  0.13680000  1
  O  O94  1  0.16751000  0.09171000  0.13962000  1
  O  O95  1  0.47211000  0.04791000  0.13962000  1
  O  O96  1  0.30293000  0.21073000  0.14726000  1
  O  O97  1  0.34433000  0.93653000  0.14726000  1
  O  O98  1  0.48289000  0.42665000  0.22714000  1
  O  O99  1  0.24425000  0.80049000  0.22714000  1
  O  O100  1  0.07335000  0.01711000  0.27286000  1
  O  O101  1  0.69951000  0.25575000  0.27286000  1
  O  O102  1  0.28927000  0.19707000  0.35274000  1
  O  O103  1  0.56347000  0.15567000  0.35274000  1
  O  O104  1  0.40829000  0.33249000  0.36038000  1
  O  O105  1  0.45209000  0.02789000  0.36038000  1
  O  O106  1  0.88930000  0.31630000  0.36320000  1
  O  O107  1  0.97390000  0.04690000  0.36320000  1
  O  O108  1  0.02610000  0.95310000  0.63680000  1
  O  O109  1  0.11070000  0.68370000  0.63680000  1
  O  O110  1  0.54791000  0.97211000  0.63962000  1
  O  O111  1  0.59171000  0.66751000  0.63962000  1
  O  O112  1  0.43653000  0.84433000  0.64726000  1
  O  O113  1  0.71073000  0.80293000  0.64726000  1
  O  O114  1  0.30049000  0.74425000  0.72714000  1
  O  O115  1  0.92665000  0.98289000  0.72714000  1
  O  O116  1  0.75575000  0.19951000  0.77286000  1
  O  O117  1  0.51711000  0.57335000  0.77286000  1
  O  O118  1  0.65567000  0.06347000  0.85274000  1
  O  O119  1  0.69707000  0.78927000  0.85274000  1
  O  O120  1  0.52789000  0.95209000  0.86038000  1
  O  O121  1  0.83249000  0.90829000  0.86038000  1
  O  O122  1  0.54690000  0.47390000  0.86320000  1
  O  O123  1  0.81630000  0.38930000  0.86320000  1
