# generated using pymatgen
data_Co3H2C10N9O8
_symmetry_space_group_name_H-M   'P 1'
_cell_length_a   12.04463097
_cell_length_b   12.04463097
_cell_length_c   18.85971082
_cell_angle_alpha   105.56363152
_cell_angle_beta   105.56363152
_cell_angle_gamma   99.19269176
_symmetry_Int_Tables_number   1
_chemical_formula_structural   Co3H2C10N9O8
_chemical_formula_sum   'Co12 H8 C40 N36 O32'
_cell_volume   2458.62773668
_cell_formula_units_Z   4
loop_
 _symmetry_equiv_pos_site_id
 _symmetry_equiv_pos_as_xyz
  1  'x, y, z'
loop_
 _atom_site_type_symbol
 _atom_site_label
 _atom_site_symmetry_multiplicity
 _atom_site_fract_x
 _atom_site_fract_y
 _atom_site_fract_z
 _atom_site_occupancy
  C  C0  1  0.24219000  0.25319000  0.55518000  1
  C  C1  1  0.19801000  0.68701000  0.94482000  1
  C  C2  1  0.42816000  0.66136000  0.20812000  1
  C  C3  1  0.95324000  0.22004000  0.29188000  1
  C  C4  1  0.70160000  0.25600000  0.07620000  1
  C  C5  1  0.67980000  0.62540000  0.42380000  1
  C  C6  1  0.34901000  0.09661000  0.60562000  1
  C  C7  1  0.99099000  0.74339000  0.89438000  1
  C  C8  1  0.07796000  0.68036000  0.92932000  1
  C  C9  1  0.25104000  0.14864000  0.57068000  1
  C  C10  1  0.81964000  0.42204000  0.57068000  1
  C  C11  1  0.35136000  0.24896000  0.92932000  1
  C  C12  1  0.40339000  0.15099000  0.89438000  1
  C  C13  1  0.75661000  0.50901000  0.60562000  1
  C  C14  1  0.83864000  0.07184000  0.29188000  1
  C  C15  1  0.27996000  0.54676000  0.20812000  1
  C  C16  1  0.24400000  0.79840000  0.42380000  1
  C  C17  1  0.87460000  0.82020000  0.07620000  1
  C  C18  1  0.24681000  0.25781000  0.94482000  1
  C  C19  1  0.81299000  0.30199000  0.55518000  1
  C  C20  1  0.18701000  0.69801000  0.44482000  1
  C  C21  1  0.75319000  0.74219000  0.05518000  1
  C  C22  1  0.12540000  0.17980000  0.92380000  1
  C  C23  1  0.75600000  0.20160000  0.57620000  1
  C  C24  1  0.72004000  0.45324000  0.79188000  1
  C  C25  1  0.16136000  0.92816000  0.70812000  1
  C  C26  1  0.24339000  0.49099000  0.39438000  1
  C  C27  1  0.59661000  0.84901000  0.10562000  1
  C  C28  1  0.64864000  0.75104000  0.07068000  1
  C  C29  1  0.18036000  0.57796000  0.42932000  1
  C  C30  1  0.74896000  0.85136000  0.42932000  1
  C  C31  1  0.92204000  0.31964000  0.07068000  1
  C  C32  1  0.00901000  0.25661000  0.10562000  1
  C  C33  1  0.65099000  0.90339000  0.39438000  1
  C  C34  1  0.32020000  0.37460000  0.57620000  1
  C  C35  1  0.29840000  0.74400000  0.92380000  1
  C  C36  1  0.04676000  0.77996000  0.70812000  1
  C  C37  1  0.57184000  0.33864000  0.79188000  1
  C  C38  1  0.80199000  0.31299000  0.05518000  1
  C  C39  1  0.75781000  0.74681000  0.44482000  1
  Co  Co40  1  0.40423000  0.62503000  0.03684000  1
  Co  Co41  1  0.08819000  0.36739000  0.46316000  1
  Co  Co42  1  0.43921000  0.68921000  0.37842000  1
  Co  Co43  1  0.81079000  0.06079000  0.12158000  1
  Co  Co44  1  0.87497000  0.09577000  0.46316000  1
  Co  Co45  1  0.13261000  0.41181000  0.03684000  1
  Co  Co46  1  0.86739000  0.58819000  0.96316000  1
  Co  Co47  1  0.12503000  0.90423000  0.53684000  1
  Co  Co48  1  0.18921000  0.93921000  0.87842000  1
  Co  Co49  1  0.56079000  0.31079000  0.62158000  1
  Co  Co50  1  0.91181000  0.63261000  0.53684000  1
  Co  Co51  1  0.59577000  0.37497000  0.96316000  1
  H  H52  1  0.50000000  0.71820000  0.22440000  1
  H  H53  1  0.99380000  0.27560000  0.27560000  1
  H  H54  1  0.78180000  0.00000000  0.27560000  1
  H  H55  1  0.22440000  0.50620000  0.22440000  1
  H  H56  1  0.77560000  0.49380000  0.77560000  1
  H  H57  1  0.21820000  0.00000000  0.72440000  1
  H  H58  1  0.00620000  0.72440000  0.72440000  1
  H  H59  1  0.50000000  0.28180000  0.77560000  1
  N  N60  1  0.12780000  0.24140000  0.51720000  1
  N  N61  1  0.22420000  0.61060000  0.98280000  1
  N  N62  1  0.36670000  0.60630000  0.13500000  1
  N  N63  1  0.97130000  0.23170000  0.36500000  1
  N  N64  1  0.90235000  0.46395000  0.54230000  1
  N  N65  1  0.42165000  0.36005000  0.95770000  1
  N  N66  1  0.36421000  0.43381000  0.98942000  1
  N  N67  1  0.94439000  0.37479000  0.51058000  1
  N  N68  1  0.37910000  0.62910000  0.25820000  1
  N  N69  1  0.87090000  0.12090000  0.24180000  1
  N  N70  1  0.06619000  0.13579000  0.51058000  1
  N  N71  1  0.12521000  0.55561000  0.98942000  1
  N  N72  1  0.03605000  0.59765000  0.95770000  1
  N  N73  1  0.13995000  0.07835000  0.54230000  1
  N  N74  1  0.89370000  0.13330000  0.36500000  1
  N  N75  1  0.26830000  0.52870000  0.13500000  1
  N  N76  1  0.25860000  0.37220000  0.98280000  1
  N  N77  1  0.88940000  0.27580000  0.51720000  1
  N  N78  1  0.11060000  0.72420000  0.48280000  1
  N  N79  1  0.74140000  0.62780000  0.01720000  1
  N  N80  1  0.73170000  0.47130000  0.86500000  1
  N  N81  1  0.10630000  0.86670000  0.63500000  1
  N  N82  1  0.86005000  0.92165000  0.45770000  1
  N  N83  1  0.96395000  0.40235000  0.04230000  1
  N  N84  1  0.87479000  0.44439000  0.01058000  1
  N  N85  1  0.93381000  0.86421000  0.48942000  1
  N  N86  1  0.12910000  0.87910000  0.75820000  1
  N  N87  1  0.62090000  0.37090000  0.74180000  1
  N  N88  1  0.05561000  0.62521000  0.48942000  1
  N  N89  1  0.63579000  0.56619000  0.01058000  1
  N  N90  1  0.57835000  0.63995000  0.04230000  1
  N  N91  1  0.09765000  0.53605000  0.45770000  1
  N  N92  1  0.02870000  0.76830000  0.63500000  1
  N  N93  1  0.63330000  0.39370000  0.86500000  1
  N  N94  1  0.77580000  0.38940000  0.01720000  1
  N  N95  1  0.87220000  0.75860000  0.48280000  1
  O  O96  1  0.45460000  0.15120000  0.62440000  1
  O  O97  1  0.02680000  0.83020000  0.87560000  1
  O  O98  1  0.60439000  0.28279000  0.05178000  1
  O  O99  1  0.73101000  0.55261000  0.44822000  1
  O  O100  1  0.50250000  0.18570000  0.88860000  1
  O  O101  1  0.79710000  0.61390000  0.61140000  1
  O  O102  1  0.57324000  0.59864000  0.38048000  1
  O  O103  1  0.71816000  0.19276000  0.11952000  1
  O  O104  1  0.90136000  0.92676000  0.11952000  1
  O  O105  1  0.30724000  0.78184000  0.38048000  1
  O  O106  1  0.31430000  0.99750000  0.61140000  1
  O  O107  1  0.88610000  0.70290000  0.88860000  1
  O  O108  1  0.21721000  0.89561000  0.44822000  1
  O  O109  1  0.94739000  0.76899000  0.05178000  1
  O  O110  1  0.34880000  0.04540000  0.87560000  1
  O  O111  1  0.66980000  0.47320000  0.62440000  1
  O  O112  1  0.33020000  0.52680000  0.37560000  1
  O  O113  1  0.65120000  0.95460000  0.12440000  1
  O  O114  1  0.05261000  0.23101000  0.94822000  1
  O  O115  1  0.78279000  0.10439000  0.55178000  1
  O  O116  1  0.11390000  0.29710000  0.11140000  1
  O  O117  1  0.68570000  0.00250000  0.38860000  1
  O  O118  1  0.69276000  0.21816000  0.61952000  1
  O  O119  1  0.09864000  0.07324000  0.88048000  1
  O  O120  1  0.28184000  0.80724000  0.88048000  1
  O  O121  1  0.42676000  0.40136000  0.61952000  1
  O  O122  1  0.20290000  0.38610000  0.38860000  1
  O  O123  1  0.49750000  0.81430000  0.11140000  1
  O  O124  1  0.26899000  0.44739000  0.55178000  1
  O  O125  1  0.39561000  0.71721000  0.94822000  1
  O  O126  1  0.97320000  0.16980000  0.12440000  1
  O  O127  1  0.54540000  0.84880000  0.37560000  1
