# generated using pymatgen
data_Fe3H12C26(N6O)4
_symmetry_space_group_name_H-M   'P 1'
_cell_length_a   12.01150000
_cell_length_b   12.10200000
_cell_length_c   13.67872895
_cell_angle_alpha   81.31665535
_cell_angle_beta   63.95660901
_cell_angle_gamma   69.88790000
_symmetry_Int_Tables_number   1
_chemical_formula_structural   Fe3H12C26(N6O)4
_chemical_formula_sum   'Fe3 H12 C26 N24 O4'
_cell_volume   1677.54957960
_cell_formula_units_Z   1
loop_
 _symmetry_equiv_pos_site_id
 _symmetry_equiv_pos_as_xyz
  1  'x, y, z'
loop_
 _atom_site_type_symbol
 _atom_site_label
 _atom_site_symmetry_multiplicity
 _atom_site_fract_x
 _atom_site_fract_y
 _atom_site_fract_z
 _atom_site_occupancy
  Fe  Fe0  1  0.00000000  0.00000000  0.00000000  1
  Fe  Fe1  1  0.10664000  0.25873000  1.00000000  1
  Fe  Fe2  1  0.89336000  0.74127000  1.00000000  1
  H  H3  1  0.67020000  0.07990000  0.42460000  1
  H  H4  1  0.52690000  0.11170000  0.60760000  1
  H  H5  1  0.90520000  0.92010000  0.42460000  1
  H  H6  1  0.33540000  0.44080000  1.00000000  1
  H  H7  1  0.47220000  0.69910000  1.00000000  1
  H  H8  1  0.86550000  0.88830000  0.60760000  1
  H  H9  1  0.13450000  0.11170000  0.39240000  1
  H  H10  1  0.52780000  0.30090000  1.00000000  1
  H  H11  1  0.66460000  0.55920000  1.00000000  1
  H  H12  1  0.09480000  0.07990000  0.57540000  1
  H  H13  1  0.47310000  0.88830000  0.39240000  1
  H  H14  1  0.32980000  0.92010000  0.57540000  1
  C  C15  1  0.41322000  0.01930000  0.60936000  1
  C  C16  1  0.96864000  0.50000000  0.06272000  1
  C  C17  1  0.31991000  0.04240000  0.72418000  1
  C  C18  1  0.60075000  0.04680000  0.45510000  1
  C  C19  1  0.51529000  0.06620000  0.56402000  1
  C  C20  1  0.26350000  0.66940000  1.00000000  1
  C  C21  1  0.04409000  0.04240000  0.27582000  1
  C  C22  1  0.38550000  0.58270000  1.00000000  1
  C  C23  1  0.94415000  0.95320000  0.45510000  1
  C  C24  1  0.40210000  0.46610000  0.00000000  1
  C  C25  1  0.02258000  0.01930000  0.39064000  1
  C  C26  1  0.48280000  0.61770000  1.00000000  1
  C  C27  1  0.92069000  0.93380000  0.56402000  1
  C  C28  1  0.07931000  0.06620000  0.43598000  1
  C  C29  1  0.51720000  0.38230000  1.00000000  1
  C  C30  1  0.97742000  0.98070000  0.60936000  1
  C  C31  1  0.59790000  0.53390000  1.00000000  1
  C  C32  1  0.05585000  0.04680000  0.54490000  1
  C  C33  1  0.61450000  0.41730000  1.00000000  1
  C  C34  1  0.95591000  0.95760000  0.72418000  1
  C  C35  1  0.73650000  0.33060000  0.00000000  1
  C  C36  1  0.48471000  0.93380000  0.43598000  1
  C  C37  1  0.39925000  0.95320000  0.54490000  1
  C  C38  1  0.68009000  0.95760000  0.27582000  1
  C  C39  1  0.03136000  0.50000000  0.93728000  1
  C  C40  1  0.58678000  0.98070000  0.39064000  1
  N  N41  1  0.23941000  0.98020000  0.78198000  1
  N  N42  1  0.16532000  0.03630000  0.87716000  1
  N  N43  1  0.07610000  0.73690000  1.00000000  1
  N  N44  1  0.20166000  0.12830000  0.87528000  1
  N  N45  1  0.29906000  0.13510000  0.77968000  1
  N  N46  1  0.11380000  0.82630000  1.00000000  1
  N  N47  1  0.04248000  0.03630000  0.12284000  1
  N  N48  1  0.16850000  0.63590000  1.00000000  1
  N  N49  1  0.07694000  0.12830000  0.12472000  1
  N  N50  1  0.23350000  0.78730000  1.00000000  1
  N  N51  1  0.02139000  0.98020000  0.21802000  1
  N  N52  1  0.07874000  0.13510000  0.22032000  1
  N  N53  1  0.92126000  0.86490000  0.77968000  1
  N  N54  1  0.97861000  0.01980000  0.78198000  1
  N  N55  1  0.76650000  0.21270000  0.00000000  1
  N  N56  1  0.92306000  0.87170000  0.87528000  1
  N  N57  1  0.83150000  0.36410000  0.00000000  1
  N  N58  1  0.95752000  0.96370000  0.87716000  1
  N  N59  1  0.88620000  0.17370000  1.00000000  1
  N  N60  1  0.70094000  0.86490000  0.22032000  1
  N  N61  1  0.79834000  0.87170000  0.12472000  1
  N  N62  1  0.92390000  0.26310000  1.00000000  1
  N  N63  1  0.83468000  0.96370000  0.12284000  1
  N  N64  1  0.76059000  0.01980000  0.21802000  1
  O  O65  1  0.89335000  0.59639000  0.10968000  1
  O  O66  1  0.99697000  0.40361000  0.10968000  1
  O  O67  1  0.00303000  0.59639000  0.89032000  1
  O  O68  1  0.10665000  0.40361000  0.89032000  1
