# generated using pymatgen
data_Eu3H3C9O13
_symmetry_space_group_name_H-M   'P 1'
_cell_length_a   3.68900000
_cell_length_b   12.38500000
_cell_length_c   17.64000000
_cell_angle_alpha   91.24700000
_cell_angle_beta   90.00000000
_cell_angle_gamma   90.00000000
_symmetry_Int_Tables_number   1
_chemical_formula_structural   Eu3H3C9O13
_chemical_formula_sum   'Eu6 H6 C18 O26'
_cell_volume   805.75012193
_cell_formula_units_Z   2
loop_
 _symmetry_equiv_pos_site_id
 _symmetry_equiv_pos_as_xyz
  1  'x, y, z'
loop_
 _atom_site_type_symbol
 _atom_site_label
 _atom_site_symmetry_multiplicity
 _atom_site_fract_x
 _atom_site_fract_y
 _atom_site_fract_z
 _atom_site_occupancy
  Eu  Eu0  1  0.75000000  0.44850000  0.90510000  1
  Eu  Eu1  1  0.75000000  0.36880000  0.54080000  1
  Eu  Eu2  1  0.75000000  0.70950000  0.26730000  1
  Eu  Eu3  1  0.25000000  0.29050000  0.73270000  1
  Eu  Eu4  1  0.25000000  0.63120000  0.45920000  1
  Eu  Eu5  1  0.25000000  0.55150000  0.09490000  1
  H  H6  1  0.98344000  0.63381000  0.72895000  1
  H  H7  1  0.73893000  0.92425000  0.60516000  1
  H  H8  1  0.58663000  0.90853000  0.85358000  1
  H  H9  1  0.48344000  0.36619000  0.27105000  1
  H  H10  1  0.23893000  0.07575000  0.39484000  1
  H  H11  1  0.08663000  0.09147000  0.14642000  1
  C  C12  1  0.95500000  0.73300000  0.58800000  1
  C  C13  1  0.91500000  0.78100000  0.66400000  1
  C  C14  1  0.86000000  0.71800000  0.72600000  1
  C  C15  1  0.77000000  0.88600000  0.66300000  1
  C  C16  1  0.73000000  0.69700000  0.86200000  1
  C  C17  1  0.67000000  0.94100000  0.72600000  1
  C  C18  1  0.64600000  0.75900000  0.78700000  1
  C  C19  1  0.63000000  0.87000000  0.79500000  1
  C  C20  1  0.52000000  0.04100000  0.73800000  1
  C  C21  1  0.45500000  0.26700000  0.41200000  1
  C  C22  1  0.41500000  0.21900000  0.33600000  1
  C  C23  1  0.36000000  0.28200000  0.27400000  1
  C  C24  1  0.27000000  0.11400000  0.33700000  1
  C  C25  1  0.23000000  0.30300000  0.13800000  1
  C  C26  1  0.17000000  0.05900000  0.27400000  1
  C  C27  1  0.14600000  0.24100000  0.21300000  1
  C  C28  1  0.13000000  0.13000000  0.20500000  1
  C  C29  1  0.02000000  0.95900000  0.26200000  1
  O  O30  1  0.89500000  0.76000000  0.91200000  1
  O  O31  1  0.84000000  0.60900000  0.84900000  1
  O  O32  1  0.81000000  0.92500000  0.20600000  1
  O  O33  1  0.76500000  0.54400000  0.18700000  1
  O  O34  1  0.76500000  0.44600000  0.04800000  1
  O  O35  1  0.76000000  0.67800000  0.05100000  1
  O  O36  1  0.75000000  0.50400000  0.43900000  1
  O  O37  1  0.75000000  0.71900000  0.40400000  1
  O  O38  1  0.74500000  0.28400000  0.82900000  1
  O  O39  1  0.74500000  0.39400000  0.68500000  1
  O  O40  1  0.72000000  0.22100000  0.44700000  1
  O  O41  1  0.70500000  0.13000000  0.71400000  1
  O  O42  1  0.69500000  0.70100000  0.54300000  1
  O  O43  1  0.39500000  0.24000000  0.08800000  1
  O  O44  1  0.34000000  0.39100000  0.15100000  1
  O  O45  1  0.31000000  0.07500000  0.79400000  1
  O  O46  1  0.26500000  0.55400000  0.95200000  1
  O  O47  1  0.26500000  0.45600000  0.81300000  1
  O  O48  1  0.26000000  0.32200000  0.94900000  1
  O  O49  1  0.25000000  0.28100000  0.59600000  1
  O  O50  1  0.25000000  0.49600000  0.56100000  1
  O  O51  1  0.24500000  0.60600000  0.31500000  1
  O  O52  1  0.24500000  0.71600000  0.17100000  1
  O  O53  1  0.22000000  0.77900000  0.55300000  1
  O  O54  1  0.20500000  0.87000000  0.28600000  1
  O  O55  1  0.19500000  0.29900000  0.45700000  1
