# generated using pymatgen
data_Cu3H23C29N10Cl3O
_symmetry_space_group_name_H-M   'P 1'
_cell_length_a   12.28700000
_cell_length_b   12.91600000
_cell_length_c   18.19900000
_cell_angle_alpha   86.73300000
_cell_angle_beta   70.44300000
_cell_angle_gamma   80.14600000
_symmetry_Int_Tables_number   1
_chemical_formula_structural   Cu3H23C29N10Cl3O
_chemical_formula_sum   'Cu6 H46 C58 N20 Cl6 O2'
_cell_volume   2681.38915681
_cell_formula_units_Z   2
loop_
 _symmetry_equiv_pos_site_id
 _symmetry_equiv_pos_as_xyz
  1  'x, y, z'
loop_
 _atom_site_type_symbol
 _atom_site_label
 _atom_site_symmetry_multiplicity
 _atom_site_fract_x
 _atom_site_fract_y
 _atom_site_fract_z
 _atom_site_occupancy
  Cu  Cu0  1  0.27572000  0.77738000  0.16254000  1
  Cu  Cu1  1  0.35559000  0.74572000  0.32479000  1
  Cu  Cu2  1  0.47070000  0.36855000  0.83854000  1
  Cu  Cu3  1  0.52930000  0.63145000  0.16146000  1
  Cu  Cu4  1  0.64441000  0.25428000  0.67521000  1
  Cu  Cu5  1  0.72428000  0.22262000  0.83746000  1
  H  H6  1  0.05530000  0.96980000  0.23520000  1
  H  H7  1  0.05620000  0.32340000  0.96520000  1
  H  H8  1  0.05930000  0.32510000  0.50170000  1
  H  H9  1  0.06560000  0.75980000  0.11950000  1
  H  H10  1  0.07510000  0.12070000  0.91690000  1
  H  H11  1  0.08650000  0.77460000  0.43800000  1
  H  H12  1  0.11110000  0.61900000  0.97680000  1
  H  H13  1  0.17770000  0.04740000  0.98630000  1
  H  H14  1  0.18040000  0.41210000  0.45200000  1
  H  H15  1  0.18780000  0.95960000  0.41300000  1
  H  H16  1  0.25430000  0.27190000  0.89970000  1
  H  H17  1  0.26970000  0.95710000  0.07100000  1
  H  H18  1  0.29250000  0.51220000  0.76650000  1
  H  H19  1  0.29460000  0.79790000  0.50620000  1
  H  H20  1  0.30570000  0.73180000  0.97940000  1
  H  H21  1  0.30920000  0.56750000  0.91120000  1
  H  H22  1  0.32600000  0.62000000  0.23700000  1
  H  H23  1  0.32620000  0.51180000  0.39170000  1
  H  H24  1  0.35880000  0.90590000  0.57520000  1
  H  H25  1  0.37370000  0.42120000  0.02580000  1
  H  H26  1  0.42050000  0.00110000  0.62580000  1
  H  H27  1  0.48470000  0.10900000  0.69480000  1
  H  H28  1  0.49270000  0.60110000  0.43870000  1
  H  H29  1  0.50730000  0.39890000  0.56130000  1
  H  H30  1  0.51530000  0.89100000  0.30520000  1
  H  H31  1  0.57950000  0.99890000  0.37420000  1
  H  H32  1  0.62630000  0.57880000  0.97420000  1
  H  H33  1  0.64120000  0.09410000  0.42480000  1
  H  H34  1  0.67380000  0.48820000  0.60830000  1
  H  H35  1  0.67400000  0.38000000  0.76300000  1
  H  H36  1  0.69080000  0.43250000  0.08880000  1
  H  H37  1  0.69430000  0.26820000  0.02060000  1
  H  H38  1  0.70540000  0.20210000  0.49380000  1
  H  H39  1  0.70750000  0.48780000  0.23350000  1
  H  H40  1  0.73030000  0.04290000  0.92900000  1
  H  H41  1  0.74570000  0.72810000  0.10030000  1
  H  H42  1  0.81220000  0.04040000  0.58700000  1
  H  H43  1  0.81960000  0.58790000  0.54800000  1
  H  H44  1  0.82230000  0.95260000  0.01370000  1
  H  H45  1  0.88890000  0.38100000  0.02320000  1
  H  H46  1  0.91350000  0.22540000  0.56200000  1
  H  H47  1  0.92490000  0.87930000  0.08310000  1
  H  H48  1  0.93440000  0.24020000  0.88050000  1
  H  H49  1  0.94070000  0.67490000  0.49830000  1
  H  H50  1  0.94380000  0.67660000  0.03480000  1
  H  H51  1  0.94470000  0.03020000  0.76480000  1
  C  C52  1  0.00200000  0.89100000  0.06840000  1
  C  C53  1  0.01800000  0.64220000  0.47690000  1
  C  C54  1  0.03650000  0.96640000  0.01870000  1
  C  C55  1  0.04610000  0.53360000  0.48120000  1
  C  C56  1  0.06400000  0.47630000  0.97750000  1
  C  C57  1  0.08230000  0.82600000  0.10000000  1
  C  C58  1  0.09120000  0.00050000  0.33640000  1
  C  C59  1  0.10000000  0.94880000  0.26740000  1
  C  C60  1  0.10530000  0.70200000  0.44080000  1
  C  C61  1  0.10690000  0.37230000  0.95440000  1
  C  C62  1  0.13980000  0.54950000  0.96130000  1
  C  C63  1  0.14610000  0.99300000  0.01760000  1
  C  C64  1  0.16160000  0.48480000  0.44920000  1
  C  C65  1  0.17490000  0.94310000  0.36780000  1
  C  C66  1  0.20480000  0.93400000  0.06620000  1
  C  C67  1  0.22560000  0.34150000  0.91510000  1
  C  C68  1  0.24890000  0.54450000  0.41310000  1
  C  C69  1  0.25850000  0.51860000  0.92200000  1
  C  C70  1  0.35170000  0.83820000  0.47970000  1
  C  C71  1  0.35810000  0.48070000  0.72700000  1
  C  C72  1  0.36950000  0.70280000  0.99460000  1
  C  C73  1  0.37530000  0.49600000  0.64330000  1
  C  C74  1  0.39020000  0.90290000  0.52110000  1
  C  C75  1  0.44940000  0.38370000  0.00830000  1
  C  C76  1  0.47200000  0.41500000  0.61390000  1
  C  C77  1  0.47550000  0.96310000  0.48150000  1
  C  C78  1  0.47720000  0.64730000  0.94570000  1
  C  C79  1  0.47760000  0.04140000  0.59930000  1
  C  C80  1  0.48390000  0.89400000  0.35930000  1
  C  C81  1  0.51610000  0.10600000  0.64070000  1
  C  C82  1  0.52240000  0.95860000  0.40070000  1
  C  C83  1  0.52280000  0.35270000  0.05430000  1
  C  C84  1  0.52450000  0.03690000  0.51850000  1
  C  C85  1  0.52800000  0.58500000  0.38610000  1
  C  C86  1  0.55060000  0.61630000  0.99170000  1
  C  C87  1  0.60980000  0.09710000  0.47890000  1
  C  C88  1  0.62470000  0.50400000  0.35670000  1
  C  C89  1  0.63050000  0.29720000  0.00540000  1
  C  C90  1  0.64190000  0.51930000  0.27300000  1
  C  C91  1  0.64830000  0.16180000  0.52030000  1
  C  C92  1  0.74150000  0.48140000  0.07800000  1
  C  C93  1  0.75110000  0.45550000  0.58690000  1
  C  C94  1  0.77440000  0.65850000  0.08490000  1
  C  C95  1  0.79520000  0.06600000  0.93380000  1
  C  C96  1  0.82510000  0.05690000  0.63220000  1
  C  C97  1  0.83840000  0.51520000  0.55080000  1
  C  C98  1  0.85390000  0.00700000  0.98240000  1
  C  C99  1  0.86020000  0.45050000  0.03870000  1
  C  C100  1  0.89310000  0.62770000  0.04560000  1
  C  C101  1  0.89470000  0.29800000  0.55920000  1
  C  C102  1  0.90000000  0.05120000  0.73260000  1
  C  C103  1  0.90880000  0.99950000  0.66360000  1
  C  C104  1  0.91770000  0.17400000  0.90000000  1
  C  C105  1  0.93600000  0.52370000  0.02250000  1
  C  C106  1  0.95390000  0.46640000  0.51880000  1
  C  C107  1  0.96350000  0.03360000  0.98130000  1
  C  C108  1  0.98200000  0.35780000  0.52310000  1
  C  C109  1  0.99800000  0.10900000  0.93160000  1
  N  N110  1  0.17380000  0.85280000  0.10250000  1
  N  N111  1  0.18920000  0.85950000  0.25610000  1
  N  N112  1  0.22080000  0.65310000  0.40890000  1
  N  N113  1  0.23540000  0.85590000  0.31810000  1
  N  N114  1  0.30140000  0.41460000  0.89900000  1
  N  N115  1  0.37630000  0.70610000  0.07070000  1
  N  N116  1  0.39860000  0.83380000  0.39880000  1
  N  N117  1  0.44460000  0.41810000  0.73970000  1
  N  N118  1  0.48760000  0.64080000  0.32350000  1
  N  N119  1  0.48830000  0.65260000  0.06890000  1
  N  N120  1  0.51170000  0.34740000  0.93110000  1
  N  N121  1  0.51240000  0.35920000  0.67650000  1
  N  N122  1  0.55540000  0.58190000  0.26030000  1
  N  N123  1  0.60140000  0.16620000  0.60120000  1
  N  N124  1  0.62370000  0.29390000  0.92930000  1
  N  N125  1  0.69860000  0.58540000  0.10100000  1
  N  N126  1  0.76460000  0.14410000  0.68190000  1
  N  N127  1  0.77920000  0.34690000  0.59110000  1
  N  N128  1  0.81080000  0.14050000  0.74390000  1
  N  N129  1  0.82620000  0.14720000  0.89750000  1
  Cl  Cl130  1  0.00700000  0.90060000  0.61780000  1
  Cl  Cl131  1  0.29940000  0.55830000  0.59570000  1
  Cl  Cl132  1  0.48900000  0.36850000  0.15080000  1
  Cl  Cl133  1  0.51100000  0.63150000  0.84920000  1
  Cl  Cl134  1  0.70060000  0.44170000  0.40430000  1
  Cl  Cl135  1  0.99300000  0.09940000  0.38220000  1
  O  O136  1  0.36430000  0.68230000  0.22300000  1
  O  O137  1  0.63570000  0.31770000  0.77700000  1
