# generated using pymatgen
data_Zn3H21C30N14(O2F)3
_symmetry_space_group_name_H-M   'P 1'
_cell_length_a   12.78023438
_cell_length_b   12.78023438
_cell_length_c   12.78023438
_cell_angle_alpha   107.84109695
_cell_angle_beta   107.84109695
_cell_angle_gamma   107.84109695
_symmetry_Int_Tables_number   1
_chemical_formula_structural   Zn3H21C30N14(O2F)3
_chemical_formula_sum   'Zn3 H21 C30 N14 O6 F3'
_cell_volume   1696.98315240
_cell_formula_units_Z   1
loop_
 _symmetry_equiv_pos_site_id
 _symmetry_equiv_pos_as_xyz
  1  'x, y, z'
loop_
 _atom_site_type_symbol
 _atom_site_label
 _atom_site_symmetry_multiplicity
 _atom_site_fract_x
 _atom_site_fract_y
 _atom_site_fract_z
 _atom_site_occupancy
  C  C0  1  0.68560000  0.08495000  0.08495000  1
  C  C1  1  0.94830000  0.94830000  0.73660000  1
  C  C2  1  0.94830000  0.73660000  0.94830000  1
  C  C3  1  0.66410000  0.55240000  0.55240000  1
  C  C4  1  0.55340000  0.43840000  0.43840000  1
  C  C5  1  0.52880000  0.91255000  0.91255000  1
  C  C6  1  0.98090000  0.98090000  0.65610000  1
  C  C7  1  0.98090000  0.65610000  0.98090000  1
  C  C8  1  0.65610000  0.98090000  0.98090000  1
  C  C9  1  0.91255000  0.91255000  0.52880000  1
  C  C10  1  0.91255000  0.52880000  0.91255000  1
  C  C11  1  0.08495000  0.08495000  0.68560000  1
  C  C12  1  0.08495000  0.68560000  0.08495000  1
  C  C13  1  0.94365000  0.94365000  0.44320000  1
  C  C14  1  0.94365000  0.44320000  0.94365000  1
  C  C15  1  0.11800000  0.11800000  0.60390000  1
  C  C16  1  0.11800000  0.60390000  0.11800000  1
  C  C17  1  0.04665000  0.04665000  0.47960000  1
  C  C18  1  0.04665000  0.47960000  0.04665000  1
  C  C19  1  0.73660000  0.94830000  0.94830000  1
  C  C20  1  0.38810000  0.07710000  0.07710000  1
  C  C21  1  0.07710000  0.07710000  0.38810000  1
  C  C22  1  0.07710000  0.38810000  0.07710000  1
  C  C23  1  0.47960000  0.04665000  0.04665000  1
  C  C24  1  0.43840000  0.43840000  0.55340000  1
  C  C25  1  0.43840000  0.55340000  0.43840000  1
  C  C26  1  0.55240000  0.55240000  0.66410000  1
  C  C27  1  0.55240000  0.66410000  0.55240000  1
  C  C28  1  0.60390000  0.11800000  0.11800000  1
  C  C29  1  0.44320000  0.94365000  0.94365000  1
  F  F30  1  0.80370000  0.16450000  0.16450000  1
  F  F31  1  0.16450000  0.16450000  0.80370000  1
  F  F32  1  0.16450000  0.80370000  0.16450000  1
  H  H33  1  0.71410000  0.52490000  0.60070000  1
  H  H34  1  0.71410000  0.60070000  0.52490000  1
  H  H35  1  0.55590000  0.36380000  0.44000000  1
  H  H36  1  0.55590000  0.44000000  0.36380000  1
  H  H37  1  0.49930000  0.84150000  0.84150000  1
  H  H38  1  0.84150000  0.84150000  0.49930000  1
  H  H39  1  0.84150000  0.49930000  0.84150000  1
  H  H40  1  0.89355000  0.89355000  0.36010000  1
  H  H41  1  0.89355000  0.36010000  0.89355000  1
  H  H42  1  0.18880000  0.18880000  0.63240000  1
  H  H43  1  0.18880000  0.63240000  0.18880000  1
  H  H44  1  0.36380000  0.44000000  0.55590000  1
  H  H45  1  0.36380000  0.55590000  0.44000000  1
  H  H46  1  0.52490000  0.60070000  0.71410000  1
  H  H47  1  0.52490000  0.71410000  0.60070000  1
  H  H48  1  0.63240000  0.18880000  0.18880000  1
  H  H49  1  0.36010000  0.89355000  0.89355000  1
  H  H50  1  0.44000000  0.36380000  0.55590000  1
  H  H51  1  0.44000000  0.55590000  0.36380000  1
  H  H52  1  0.60070000  0.52490000  0.71410000  1
  H  H53  1  0.60070000  0.71410000  0.52490000  1
  N  N54  1  0.44253333  0.44253333  0.44253333  1
  N  N55  1  0.62993333  0.62993333  0.62993333  1
  N  N56  1  0.30680000  0.17415000  0.17415000  1
  N  N57  1  0.21680000  0.07050000  0.07050000  1
  N  N58  1  0.41570000  0.17955000  0.17955000  1
  N  N59  1  0.26370000  0.01090000  0.01090000  1
  N  N60  1  0.01090000  0.01090000  0.26370000  1
  N  N61  1  0.01090000  0.26370000  0.01090000  1
  N  N62  1  0.17955000  0.17955000  0.41570000  1
  N  N63  1  0.17955000  0.41570000  0.17955000  1
  N  N64  1  0.07050000  0.07050000  0.21680000  1
  N  N65  1  0.07050000  0.21680000  0.07050000  1
  N  N66  1  0.17415000  0.17415000  0.30680000  1
  N  N67  1  0.17415000  0.30680000  0.17415000  1
  O  O68  1  0.99990000  0.99990000  0.84520000  1
  O  O69  1  0.99990000  0.84520000  0.99990000  1
  O  O70  1  0.85520000  0.85520000  0.69810000  1
  O  O71  1  0.85520000  0.69810000  0.85520000  1
  O  O72  1  0.69810000  0.85520000  0.85520000  1
  O  O73  1  0.84520000  0.99990000  0.99990000  1
  Zn  Zn74  1  0.02992667  0.02992667  0.02992667  1
  Zn  Zn75  1  0.29009667  0.29009667  0.29009667  1
  Zn  Zn76  1  0.76983333  0.76983333  0.76983333  1
