# generated using pymatgen
data_CdH22C25(NO)4
_symmetry_space_group_name_H-M   'P 1'
_cell_length_a   12.15600000
_cell_length_b   18.59000000
_cell_length_c   21.02400000
_cell_angle_alpha   74.05000000
_cell_angle_beta   75.94000000
_cell_angle_gamma   75.58000000
_symmetry_Int_Tables_number   1
_chemical_formula_structural   CdH22C25(NO)4
_chemical_formula_sum   'Cd6 H132 C150 N24 O24'
_cell_volume   4345.81044508
_cell_formula_units_Z   6
loop_
 _symmetry_equiv_pos_site_id
 _symmetry_equiv_pos_as_xyz
  1  'x, y, z'
loop_
 _atom_site_type_symbol
 _atom_site_label
 _atom_site_symmetry_multiplicity
 _atom_site_fract_x
 _atom_site_fract_y
 _atom_site_fract_z
 _atom_site_occupancy
  Cd  Cd0  1  0.05035000  0.66086000  0.64253000  1
  Cd  Cd1  1  0.33727000  0.08374000  0.68953000  1
  Cd  Cd2  1  0.36246000  0.66300000  0.04426000  1
  Cd  Cd3  1  0.63754000  0.33700000  0.95574000  1
  Cd  Cd4  1  0.66273000  0.91626000  0.31047000  1
  Cd  Cd5  1  0.94965000  0.33914000  0.35747000  1
  H  H6  1  0.00190000  0.22960000  0.97460000  1
  H  H7  1  0.00270000  0.12920000  0.52040000  1
  H  H8  1  0.00490000  0.85800000  0.37830000  1
  H  H9  1  0.01170000  0.84910000  0.84140000  1
  H  H10  1  0.01710000  0.77420000  0.19010000  1
  H  H11  1  0.03480000  0.17550000  0.44620000  1
  H  H12  1  0.04510000  0.17840000  0.28260000  1
  H  H13  1  0.04780000  0.80150000  0.33010000  1
  H  H14  1  0.05790000  0.79690000  0.90560000  1
  H  H15  1  0.06590000  0.20300000  0.10420000  1
  H  H16  1  0.06820000  0.19010000  0.91550000  1
  H  H17  1  0.09230000  0.83710000  0.52450000  1
  H  H18  1  0.09310000  0.54680000  0.22370000  1
  H  H19  1  0.11340000  0.52790000  0.54680000  1
  H  H20  1  0.13480000  0.66730000  0.32350000  1
  H  H21  1  0.13480000  0.98050000  0.50930000  1
  H  H22  1  0.13940000  0.88790000  0.08990000  1
  H  H23  1  0.15120000  0.39230000  0.36980000  1
  H  H24  1  0.15820000  0.08740000  0.22480000  1
  H  H25  1  0.15850000  0.07140000  0.88780000  1
  H  H26  1  0.16120000  0.28650000  0.91520000  1
  H  H27  1  0.16290000  0.46880000  0.45870000  1
  H  H28  1  0.16370000  0.89560000  0.30590000  1
  H  H29  1  0.17370000  0.53590000  0.34980000  1
  H  H30  1  0.17570000  0.24970000  0.99010000  1
  H  H31  1  0.18840000  0.34870000  0.66560000  1
  H  H32  1  0.18850000  0.01650000  0.39640000  1
  H  H33  1  0.20190000  0.85880000  0.37560000  1
  H  H34  1  0.20670000  0.85440000  0.68370000  1
  H  H35  1  0.20690000  0.85250000  0.98780000  1
  H  H36  1  0.21930000  0.94470000  0.88790000  1
  H  H37  1  0.22750000  0.33450000  0.41930000  1
  H  H38  1  0.23080000  0.12200000  0.56470000  1
  H  H39  1  0.24060000  0.65890000  0.82610000  1
  H  H40  1  0.25470000  0.77930000  0.27080000  1
  H  H41  1  0.26020000  0.11260000  0.49020000  1
  H  H42  1  0.26580000  0.18950000  0.50540000  1
  H  H43  1  0.26860000  0.92230000  0.57920000  1
  H  H44  1  0.28060000  0.87930000  0.16020000  1
  H  H45  1  0.28480000  0.17520000  0.88490000  1
  H  H46  1  0.28620000  0.38200000  0.35130000  1
  H  H47  1  0.29890000  0.74680000  0.33930000  1
  H  H48  1  0.30700000  0.14700000  0.95910000  1
  H  H49  1  0.31480000  0.27160000  0.78330000  1
  H  H50  1  0.34910000  0.83800000  0.84290000  1
  H  H51  1  0.35560000  0.07000000  0.20340000  1
  H  H52  1  0.36110000  0.95730000  0.06460000  1
  H  H53  1  0.36630000  0.22030000  0.04550000  1
  H  H54  1  0.38120000  0.99370000  0.34450000  1
  H  H55  1  0.38150000  0.61910000  0.20220000  1
  H  H56  1  0.39330000  0.02760000  0.84490000  1
  H  H57  1  0.39980000  0.35730000  0.68960000  1
  H  H58  1  0.40570000  0.80860000  0.41240000  1
  H  H59  1  0.40900000  0.12860000  0.39600000  1
  H  H60  1  0.42110000  0.24750000  0.41650000  1
  H  H61  1  0.44090000  0.14610000  0.02390000  1
  H  H62  1  0.44750000  0.76780000  0.61660000  1
  H  H63  1  0.44820000  0.14280000  0.23930000  1
  H  H64  1  0.45000000  0.73440000  0.38440000  1
  H  H65  1  0.45110000  0.31390000  0.30230000  1
  H  H66  1  0.45190000  0.58910000  0.30140000  1
  H  H67  1  0.45580000  0.88730000  0.62530000  1
  H  H68  1  0.46130000  0.22070000  0.60920000  1
  H  H69  1  0.48310000  0.99290000  0.93810000  1
  H  H70  1  0.49790000  0.76380000  0.71950000  1
  H  H71  1  0.49890000  0.79620000  0.96170000  1
  H  H72  1  0.50110000  0.20380000  0.03830000  1
  H  H73  1  0.50210000  0.23620000  0.28050000  1
  H  H74  1  0.51690000  0.00710000  0.06190000  1
  H  H75  1  0.53870000  0.77930000  0.39080000  1
  H  H76  1  0.54420000  0.11270000  0.37470000  1
  H  H77  1  0.54810000  0.41090000  0.69860000  1
  H  H78  1  0.54890000  0.68610000  0.69770000  1
  H  H79  1  0.55000000  0.26560000  0.61560000  1
  H  H80  1  0.55180000  0.85720000  0.76070000  1
  H  H81  1  0.55250000  0.23220000  0.38340000  1
  H  H82  1  0.55910000  0.85390000  0.97610000  1
  H  H83  1  0.57890000  0.75250000  0.58350000  1
  H  H84  1  0.59100000  0.87140000  0.60400000  1
  H  H85  1  0.59430000  0.19140000  0.58760000  1
  H  H86  1  0.60020000  0.64270000  0.31040000  1
  H  H87  1  0.60670000  0.97240000  0.15510000  1
  H  H88  1  0.61850000  0.38090000  0.79780000  1
  H  H89  1  0.61880000  0.00630000  0.65550000  1
  H  H90  1  0.63370000  0.77970000  0.95450000  1
  H  H91  1  0.63890000  0.04270000  0.93540000  1
  H  H92  1  0.64440000  0.93000000  0.79660000  1
  H  H93  1  0.65090000  0.16200000  0.15710000  1
  H  H94  1  0.68520000  0.72840000  0.21670000  1
  H  H95  1  0.69300000  0.85300000  0.04090000  1
  H  H96  1  0.70110000  0.25320000  0.66070000  1
  H  H97  1  0.71380000  0.61800000  0.64870000  1
  H  H98  1  0.71520000  0.82480000  0.11510000  1
  H  H99  1  0.71940000  0.12070000  0.83980000  1
  H  H100  1  0.73140000  0.07770000  0.42080000  1
  H  H101  1  0.73420000  0.81050000  0.49460000  1
  H  H102  1  0.73980000  0.88740000  0.50980000  1
  H  H103  1  0.74530000  0.22070000  0.72920000  1
  H  H104  1  0.75940000  0.34110000  0.17390000  1
  H  H105  1  0.76920000  0.87800000  0.43530000  1
  H  H106  1  0.77250000  0.66550000  0.58070000  1
  H  H107  1  0.78070000  0.05530000  0.11210000  1
  H  H108  1  0.79310000  0.14750000  0.01220000  1
  H  H109  1  0.79330000  0.14560000  0.31630000  1
  H  H110  1  0.79810000  0.14120000  0.62440000  1
  H  H111  1  0.81150000  0.98350000  0.60360000  1
  H  H112  1  0.81160000  0.65130000  0.33440000  1
  H  H113  1  0.82430000  0.75030000  0.00990000  1
  H  H114  1  0.82630000  0.46410000  0.65020000  1
  H  H115  1  0.83630000  0.10440000  0.69410000  1
  H  H116  1  0.83710000  0.53120000  0.54130000  1
  H  H117  1  0.83880000  0.71350000  0.08480000  1
  H  H118  1  0.84150000  0.92860000  0.11220000  1
  H  H119  1  0.84180000  0.91260000  0.77520000  1
  H  H120  1  0.84880000  0.60770000  0.63020000  1
  H  H121  1  0.86060000  0.11210000  0.91010000  1
  H  H122  1  0.86520000  0.01950000  0.49070000  1
  H  H123  1  0.86520000  0.33270000  0.67650000  1
  H  H124  1  0.88660000  0.47210000  0.45320000  1
  H  H125  1  0.90690000  0.45320000  0.77630000  1
  H  H126  1  0.90770000  0.16290000  0.47550000  1
  H  H127  1  0.93180000  0.80990000  0.08450000  1
  H  H128  1  0.93410000  0.79700000  0.89580000  1
  H  H129  1  0.94210000  0.20310000  0.09440000  1
  H  H130  1  0.95220000  0.19850000  0.66990000  1
  H  H131  1  0.95490000  0.82160000  0.71740000  1
  H  H132  1  0.96520000  0.82450000  0.55380000  1
  H  H133  1  0.98290000  0.22580000  0.80990000  1
  H  H134  1  0.98830000  0.15090000  0.15860000  1
  H  H135  1  0.99510000  0.14200000  0.62170000  1
  H  H136  1  0.99730000  0.87080000  0.47960000  1
  H  H137  1  0.99810000  0.77040000  0.02540000  1
  C  C138  1  0.00000000  0.27300000  0.78590000  1
  C  C139  1  0.00000000  0.72700000  0.21410000  1
  C  C140  1  0.00940000  0.17220000  0.11130000  1
  C  C141  1  0.02450000  0.82870000  0.51410000  1
  C  C142  1  0.04400000  0.59130000  0.23310000  1
  C  C143  1  0.05390000  0.75570000  0.48950000  1
  C  C144  1  0.05630000  0.41390000  0.71710000  1
  C  C145  1  0.05820000  0.11030000  0.07570000  1
  C  C146  1  0.06700000  0.81730000  0.36570000  1
  C  C147  1  0.07100000  0.66110000  0.19780000  1
  C  C148  1  0.07360000  0.19730000  0.95850000  1
  C  C149  1  0.08940000  0.48780000  0.68240000  1
  C  C150  1  0.09560000  0.63520000  0.48890000  1
  C  C151  1  0.09620000  0.27620000  0.73430000  1
  C  C152  1  0.09970000  0.67660000  0.42120000  1
  C  C153  1  0.11790000  0.55660000  0.50270000  1
  C  C154  1  0.11800000  0.00140000  0.04870000  1
  C  C155  1  0.12380000  0.05580000  0.98830000  1
  C  C156  1  0.12410000  0.34630000  0.70020000  1
  C  C157  1  0.12530000  0.17150000  0.27390000  1
  C  C158  1  0.13030000  0.63990000  0.36800000  1
  C  C159  1  0.14630000  0.92450000  0.04960000  1
  C  C160  1  0.14690000  0.52180000  0.44980000  1
  C  C161  1  0.15330000  0.56220000  0.38410000  1
  C  C162  1  0.15810000  0.03480000  0.92820000  1
  C  C163  1  0.16500000  0.71650000  0.70910000  1
  C  C164  1  0.17170000  0.20490000  0.71670000  1
  C  C165  1  0.17330000  0.66500000  0.14190000  1
  C  C166  1  0.17420000  0.23840000  0.94790000  1
  C  C167  1  0.17860000  0.84790000  0.33880000  1
  C  C168  1  0.18120000  0.21560000  0.29540000  1
  C  C169  1  0.18490000  0.90390000  0.98890000  1
  C  C170  1  0.19150000  0.95960000  0.92850000  1
  C  C171  1  0.19340000  0.11730000  0.23960000  1
  C  C172  1  0.21310000  0.97140000  0.49040000  1
  C  C173  1  0.21500000  0.75080000  0.74840000  1
  C  C174  1  0.22270000  0.35640000  0.37280000  1
  C  C175  1  0.22780000  0.29560000  0.33920000  1
  C  C176  1  0.22940000  0.82640000  0.72400000  1
  C  C177  1  0.24510000  0.99270000  0.42240000  1
  C  C178  1  0.24820000  0.70960000  0.80970000  1
  C  C179  1  0.27770000  0.86050000  0.75950000  1
  C  C180  1  0.27880000  0.79310000  0.30580000  1
  C  C181  1  0.27890000  0.13500000  0.52130000  1
  C  C182  1  0.28910000  0.19200000  0.92390000  1
  C  C183  1  0.29120000  0.93700000  0.53270000  1
  C  C184  1  0.29230000  0.74420000  0.84610000  1
  C  C185  1  0.29600000  0.94080000  0.73370000  1
  C  C186  1  0.30050000  0.20370000  0.28390000  1
  C  C187  1  0.31210000  0.10670000  0.22680000  1
  C  C188  1  0.31240000  0.81720000  0.82020000  1
  C  C189  1  0.31880000  0.70370000  0.91450000  1
  C  C190  1  0.34630000  0.89710000  0.15900000  1
  C  C191  1  0.35960000  0.97980000  0.39110000  1
  C  C192  1  0.36800000  0.14980000  0.24840000  1
  C  C193  1  0.37290000  0.29440000  0.78590000  1
  C  C194  1  0.39370000  0.94430000  0.10290000  1
  C  C195  1  0.39980000  0.87620000  0.21490000  1
  C  C196  1  0.40060000  0.10600000  0.52690000  1
  C  C197  1  0.40830000  0.92580000  0.50020000  1
  C  C198  1  0.41330000  0.28120000  0.84340000  1
  C  C199  1  0.42490000  0.34490000  0.73030000  1
  C  C200  1  0.43840000  0.19900000  0.02040000  1
  C  C201  1  0.44130000  0.94510000  0.43190000  1
  C  C202  1  0.44270000  0.63920000  0.20490000  1
  C  C203  1  0.44630000  0.26040000  0.31380000  1
  C  C204  1  0.44930000  0.24080000  0.94790000  1
  C  C205  1  0.45810000  0.04640000  0.84350000  1
  C  C206  1  0.45930000  0.83050000  0.31180000  1
  C  C207  1  0.46380000  0.78410000  0.38090000  1
  C  C208  1  0.47720000  0.22340000  0.38330000  1
  C  C209  1  0.47950000  0.13810000  0.40320000  1
  C  C210  1  0.48430000  0.62260000  0.26400000  1
  C  C211  1  0.48850000  0.97370000  0.10080000  1
  C  C212  1  0.49560000  0.90510000  0.21370000  1
  C  C213  1  0.49800000  0.68810000  0.14870000  1
  C  C214  1  0.50200000  0.31190000  0.85130000  1
  C  C215  1  0.50440000  0.09490000  0.78630000  1
  C  C216  1  0.51150000  0.02630000  0.89920000  1
  C  C217  1  0.51570000  0.37740000  0.73600000  1
  C  C218  1  0.52050000  0.86190000  0.59680000  1
  C  C219  1  0.52280000  0.77660000  0.61670000  1
  C  C220  1  0.53620000  0.21590000  0.61910000  1
  C  C221  1  0.54070000  0.16950000  0.68820000  1
  C  C222  1  0.54190000  0.95360000  0.15650000  1
  C  C223  1  0.55070000  0.75920000  0.05210000  1
  C  C224  1  0.55370000  0.73960000  0.68620000  1
  C  C225  1  0.55730000  0.36080000  0.79510000  1
  C  C226  1  0.55870000  0.05490000  0.56810000  1
  C  C227  1  0.56160000  0.80100000  0.97960000  1
  C  C228  1  0.57510000  0.65510000  0.26970000  1
  C  C229  1  0.58670000  0.71880000  0.15660000  1
  C  C230  1  0.59170000  0.07420000  0.49980000  1
  C  C231  1  0.59940000  0.89400000  0.47310000  1
  C  C232  1  0.60020000  0.12380000  0.78510000  1
  C  C233  1  0.60630000  0.05570000  0.89710000  1
  C  C234  1  0.62710000  0.70560000  0.21410000  1
  C  C235  1  0.63200000  0.85020000  0.75160000  1
  C  C236  1  0.64040000  0.02020000  0.60890000  1
  C  C237  1  0.65370000  0.10290000  0.84100000  1
  C  C238  1  0.68120000  0.29630000  0.08550000  1
  C  C239  1  0.68760000  0.18280000  0.17980000  1
  C  C240  1  0.68790000  0.89330000  0.77320000  1
  C  C241  1  0.69950000  0.79630000  0.71610000  1
  C  C242  1  0.70400000  0.05920000  0.26630000  1
  C  C243  1  0.70770000  0.25580000  0.15390000  1
  C  C244  1  0.70880000  0.06300000  0.46730000  1
  C  C245  1  0.71090000  0.80800000  0.07610000  1
  C  C246  1  0.72110000  0.86500000  0.47870000  1
  C  C247  1  0.72120000  0.20690000  0.69420000  1
  C  C248  1  0.72230000  0.13950000  0.24050000  1
  C  C249  1  0.75180000  0.29040000  0.19030000  1
  C  C250  1  0.75490000  0.00730000  0.57760000  1
  C  C251  1  0.77060000  0.17360000  0.27600000  1
  C  C252  1  0.77220000  0.70440000  0.66080000  1
  C  C253  1  0.77730000  0.64360000  0.62720000  1
  C  C254  1  0.78500000  0.24920000  0.25160000  1
  C  C255  1  0.78690000  0.02860000  0.50960000  1
  C  C256  1  0.80660000  0.88270000  0.76040000  1
  C  C257  1  0.80850000  0.04040000  0.07150000  1
  C  C258  1  0.81510000  0.09610000  0.01110000  1
  C  C259  1  0.81880000  0.78440000  0.70460000  1
  C  C260  1  0.82140000  0.15210000  0.66120000  1
  C  C261  1  0.82580000  0.76160000  0.05210000  1
  C  C262  1  0.82670000  0.33500000  0.85810000  1
  C  C263  1  0.82830000  0.79510000  0.28330000  1
  C  C264  1  0.83500000  0.28350000  0.29090000  1
  C  C265  1  0.84190000  0.96520000  0.07180000  1
  C  C266  1  0.84670000  0.43780000  0.61590000  1
  C  C267  1  0.85310000  0.47820000  0.55020000  1
  C  C268  1  0.85370000  0.07550000  0.95040000  1
  C  C269  1  0.86970000  0.36010000  0.63200000  1
  C  C270  1  0.87470000  0.82850000  0.72610000  1
  C  C271  1  0.87590000  0.65370000  0.29980000  1
  C  C272  1  0.87620000  0.94420000  0.01170000  1
  C  C273  1  0.88200000  0.99860000  0.95130000  1
  C  C274  1  0.88210000  0.44340000  0.49730000  1
  C  C275  1  0.90030000  0.32340000  0.57880000  1
  C  C276  1  0.90380000  0.72380000  0.26570000  1
  C  C277  1  0.90440000  0.36480000  0.51110000  1
  C  C278  1  0.91060000  0.51220000  0.31760000  1
  C  C279  1  0.92640000  0.80270000  0.04150000  1
  C  C280  1  0.92900000  0.33890000  0.80220000  1
  C  C281  1  0.93300000  0.18270000  0.63430000  1
  C  C282  1  0.94180000  0.88970000  0.92430000  1
  C  C283  1  0.94370000  0.58610000  0.28290000  1
  C  C284  1  0.94610000  0.24430000  0.51050000  1
  C  C285  1  0.95600000  0.40870000  0.76690000  1
  C  C286  1  0.97550000  0.17130000  0.48590000  1
  C  C287  1  0.99060000  0.82780000  0.88870000  1
  N  N288  1  0.06480000  0.68770000  0.53030000  1
  N  N289  1  0.07420000  0.75310000  0.42360000  1
  N  N290  1  0.07510000  0.03740000  0.10260000  1
  N  N291  1  0.08580000  0.12510000  0.00500000  1
  N  N292  1  0.13780000  0.27450000  0.33020000  1
  N  N293  1  0.33040000  0.25390000  0.31130000  1
  N  N294  1  0.37900000  0.82780000  0.27700000  1
  N  N295  1  0.38150000  0.23560000  0.90600000  1
  N  N296  1  0.43940000  0.07490000  0.58480000  1
  N  N297  1  0.46820000  0.12490000  0.72420000  1
  N  N298  1  0.47930000  0.71320000  0.08420000  1
  N  N299  1  0.49010000  0.10630000  0.47430000  1
  N  N300  1  0.50990000  0.89370000  0.52570000  1
  N  N301  1  0.52070000  0.28680000  0.91580000  1
  N  N302  1  0.53180000  0.87510000  0.27580000  1
  N  N303  1  0.56060000  0.92510000  0.41520000  1
  N  N304  1  0.61850000  0.76440000  0.09400000  1
  N  N305  1  0.62100000  0.17220000  0.72300000  1
  N  N306  1  0.66960000  0.74610000  0.68870000  1
  N  N307  1  0.86220000  0.72550000  0.66980000  1
  N  N308  1  0.91420000  0.87490000  0.99500000  1
  N  N309  1  0.92490000  0.96260000  0.89740000  1
  N  N310  1  0.92580000  0.24690000  0.57640000  1
  N  N311  1  0.93520000  0.31230000  0.46970000  1
  O  O312  1  0.00950000  0.54630000  0.68470000  1
  O  O313  1  0.13770000  0.65230000  0.73430000  1
  O  O314  1  0.14470000  0.75360000  0.65140000  1
  O  O315  1  0.17460000  0.14300000  0.76020000  1
  O  O316  1  0.19100000  0.49020000  0.65300000  1
  O  O317  1  0.19180000  0.72770000  0.10670000  1
  O  O318  1  0.23330000  0.20970000  0.65840000  1
  O  O319  1  0.23930000  0.60380000  0.13200000  1
  O  O320  1  0.24610000  0.98290000  0.68670000  1
  O  O321  1  0.28850000  0.64450000  0.94380000  1
  O  O322  1  0.35990000  0.96350000  0.75840000  1
  O  O323  1  0.37090000  0.73360000  0.94110000  1
  O  O324  1  0.62910000  0.26640000  0.05890000  1
  O  O325  1  0.64010000  0.03650000  0.24160000  1
  O  O326  1  0.71150000  0.35550000  0.05620000  1
  O  O327  1  0.75390000  0.01710000  0.31330000  1
  O  O328  1  0.76070000  0.39620000  0.86800000  1
  O  O329  1  0.76670000  0.79030000  0.34160000  1
  O  O330  1  0.80820000  0.27230000  0.89330000  1
  O  O331  1  0.80900000  0.50980000  0.34700000  1
  O  O332  1  0.82540000  0.85700000  0.23980000  1
  O  O333  1  0.85530000  0.24640000  0.34860000  1
  O  O334  1  0.86230000  0.34770000  0.26570000  1
  O  O335  1  0.99050000  0.45370000  0.31530000  1
