# generated using pymatgen
data_CoH3(CO2)3
_symmetry_space_group_name_H-M   'P 1'
_cell_length_a   8.33430000
_cell_length_b   8.91110000
_cell_length_c   11.75300000
_cell_angle_alpha   90.00000000
_cell_angle_beta   90.00000000
_cell_angle_gamma   90.00000000
_symmetry_Int_Tables_number   1
_chemical_formula_structural   CoH3(CO2)3
_chemical_formula_sum   'Co4 H12 C12 O24'
_cell_volume   872.86922692
_cell_formula_units_Z   4
loop_
 _symmetry_equiv_pos_site_id
 _symmetry_equiv_pos_as_xyz
  1  'x, y, z'
loop_
 _atom_site_type_symbol
 _atom_site_label
 _atom_site_symmetry_multiplicity
 _atom_site_fract_x
 _atom_site_fract_y
 _atom_site_fract_z
 _atom_site_occupancy
  Co  Co0  1  0.75371000  0.75000000  0.25000000  1
  Co  Co1  1  0.74629000  0.75000000  0.75000000  1
  Co  Co2  1  0.25371000  0.25000000  0.25000000  1
  Co  Co3  1  0.24629000  0.25000000  0.75000000  1
  H  H4  1  0.91590000  0.06340000  0.77830000  1
  H  H5  1  0.91590000  0.43660000  0.72170000  1
  H  H6  1  0.75000000  0.69860000  0.00000000  1
  H  H7  1  0.75000000  0.80140000  0.50000000  1
  H  H8  1  0.58410000  0.43660000  0.27830000  1
  H  H9  1  0.58410000  0.06340000  0.22170000  1
  H  H10  1  0.41590000  0.93660000  0.77830000  1
  H  H11  1  0.41590000  0.56340000  0.72170000  1
  H  H12  1  0.25000000  0.30140000  0.00000000  1
  H  H13  1  0.25000000  0.19860000  0.50000000  1
  H  H14  1  0.08410000  0.56340000  0.27830000  1
  H  H15  1  0.08410000  0.93660000  0.22170000  1
  C  C16  1  0.97660000  0.48350000  0.77775000  1
  C  C17  1  0.97660000  0.01650000  0.72225000  1
  C  C18  1  0.75000000  0.80300000  0.00000000  1
  C  C19  1  0.75000000  0.69700000  0.50000000  1
  C  C20  1  0.52340000  0.01650000  0.27775000  1
  C  C21  1  0.52340000  0.48350000  0.22225000  1
  C  C22  1  0.47660000  0.51650000  0.77775000  1
  C  C23  1  0.47660000  0.98350000  0.72225000  1
  C  C24  1  0.25000000  0.19700000  0.00000000  1
  C  C25  1  0.25000000  0.30300000  0.50000000  1
  C  C26  1  0.02340000  0.98350000  0.27775000  1
  C  C27  1  0.02340000  0.51650000  0.22225000  1
  O  O28  1  0.93540000  0.61190000  0.80773000  1
  O  O29  1  0.93540000  0.88810000  0.69227000  1
  O  O30  1  0.90688000  0.91332000  0.31727000  1
  O  O31  1  0.90688000  0.58668000  0.18273000  1
  O  O32  1  0.75671000  0.63445000  0.40566000  1
  O  O33  1  0.75671000  0.86555000  0.09434000  1
  O  O34  1  0.74329000  0.86555000  0.90566000  1
  O  O35  1  0.74329000  0.63445000  0.59434000  1
  O  O36  1  0.59312000  0.58668000  0.81727000  1
  O  O37  1  0.59312000  0.91332000  0.68273000  1
  O  O38  1  0.56460000  0.88810000  0.30773000  1
  O  O39  1  0.56460000  0.61190000  0.19227000  1
  O  O40  1  0.43540000  0.38810000  0.80773000  1
  O  O41  1  0.43540000  0.11190000  0.69227000  1
  O  O42  1  0.40688000  0.08668000  0.31727000  1
  O  O43  1  0.40688000  0.41332000  0.18273000  1
  O  O44  1  0.25671000  0.36555000  0.40566000  1
  O  O45  1  0.25671000  0.13445000  0.09434000  1
  O  O46  1  0.24329000  0.13445000  0.90566000  1
  O  O47  1  0.24329000  0.36555000  0.59434000  1
  O  O48  1  0.09312000  0.41332000  0.81727000  1
  O  O49  1  0.09312000  0.08668000  0.68273000  1
  O  O50  1  0.06460000  0.11190000  0.30773000  1
  O  O51  1  0.06460000  0.38810000  0.19227000  1
