# generated using pymatgen
data_Al2Zn(PO4)3
_symmetry_space_group_name_H-M   'P 1'
_cell_length_a   13.07900000
_cell_length_b   14.73300000
_cell_length_c   15.21000000
_cell_angle_alpha   110.99000000
_cell_angle_beta   90.00000000
_cell_angle_gamma   90.00000000
_symmetry_Int_Tables_number   1
_chemical_formula_structural   Al2Zn(PO4)3
_chemical_formula_sum   'Al16 Zn8 P24 O96'
_cell_volume   2736.37597781
_cell_formula_units_Z   8
loop_
 _symmetry_equiv_pos_site_id
 _symmetry_equiv_pos_as_xyz
  1  'x, y, z'
loop_
 _atom_site_type_symbol
 _atom_site_label
 _atom_site_symmetry_multiplicity
 _atom_site_fract_x
 _atom_site_fract_y
 _atom_site_fract_z
 _atom_site_occupancy
  Al  Al0  1  0.80948000  0.87515000  0.12389000  1
  Al  Al1  1  0.19052000  0.87515000  0.62389000  1
  Al  Al2  1  0.87388000  0.75106000  0.41799000  1
  Al  Al3  1  0.62612000  0.74894000  0.58201000  1
  Al  Al4  1  0.69052000  0.62485000  0.87611000  1
  Al  Al5  1  0.30948000  0.62485000  0.37611000  1
  Al  Al6  1  0.60676000  0.58313000  0.16279000  1
  Al  Al7  1  0.39324000  0.58313000  0.66279000  1
  Al  Al8  1  0.60676000  0.41687000  0.33721000  1
  Al  Al9  1  0.39324000  0.41687000  0.83721000  1
  Al  Al10  1  0.69052000  0.37515000  0.62389000  1
  Al  Al11  1  0.30948000  0.37515000  0.12389000  1
  Al  Al12  1  0.37388000  0.25106000  0.41799000  1
  Al  Al13  1  0.12612000  0.24894000  0.58201000  1
  Al  Al14  1  0.80948000  0.12485000  0.37611000  1
  Al  Al15  1  0.19052000  0.12485000  0.87611000  1
  Zn  Zn16  1  0.89324000  0.91687000  0.83721000  1
  Zn  Zn17  1  0.10676000  0.91687000  0.33721000  1
  Zn  Zn18  1  0.12612000  0.75106000  0.91799000  1
  Zn  Zn19  1  0.37388000  0.74894000  0.08201000  1
  Zn  Zn20  1  0.62612000  0.25106000  0.91799000  1
  Zn  Zn21  1  0.87388000  0.24894000  0.08201000  1
  Zn  Zn22  1  0.89324000  0.08313000  0.66279000  1
  Zn  Zn23  1  0.10676000  0.08313000  0.16279000  1
  P  P24  1  0.86754000  0.90915000  0.32988000  1
  P  P25  1  0.13246000  0.90915000  0.82988000  1
  P  P26  1  0.81394000  0.87567000  0.62772000  1
  P  P27  1  0.18606000  0.87567000  0.12772000  1
  P  P28  1  0.88727000  0.75392000  0.92087000  1
  P  P29  1  0.11273000  0.75392000  0.42087000  1
  P  P30  1  0.61273000  0.74608000  0.07913000  1
  P  P31  1  0.38727000  0.74608000  0.57913000  1
  P  P32  1  0.68606000  0.62433000  0.37228000  1
  P  P33  1  0.31394000  0.62433000  0.87228000  1
  P  P34  1  0.63246000  0.59085000  0.67012000  1
  P  P35  1  0.36754000  0.59085000  0.17012000  1
  P  P36  1  0.63246000  0.40915000  0.82988000  1
  P  P37  1  0.36754000  0.40915000  0.32988000  1
  P  P38  1  0.68606000  0.37567000  0.12772000  1
  P  P39  1  0.31394000  0.37567000  0.62772000  1
  P  P40  1  0.61273000  0.25392000  0.42087000  1
  P  P41  1  0.38727000  0.25392000  0.92087000  1
  P  P42  1  0.88727000  0.24608000  0.57913000  1
  P  P43  1  0.11273000  0.24608000  0.07913000  1
  P  P44  1  0.81394000  0.12433000  0.87228000  1
  P  P45  1  0.18606000  0.12433000  0.37228000  1
  P  P46  1  0.86754000  0.09085000  0.17012000  1
  P  P47  1  0.13246000  0.09085000  0.67012000  1
  O  O48  1  0.79890000  0.99980000  0.35990000  1
  O  O49  1  0.20110000  0.99980000  0.85990000  1
  O  O50  1  0.82650000  0.97210000  0.61330000  1
  O  O51  1  0.17350000  0.97210000  0.11330000  1
  O  O52  1  0.97580000  0.93760000  0.36350000  1
  O  O53  1  0.02420000  0.93760000  0.86350000  1
  O  O54  1  0.87200000  0.87620000  0.71450000  1
  O  O55  1  0.12800000  0.87620000  0.21450000  1
  O  O56  1  0.69930000  0.86090000  0.63640000  1
  O  O57  1  0.30070000  0.86090000  0.13640000  1
  O  O58  1  0.86960000  0.85950000  0.22310000  1
  O  O59  1  0.13040000  0.85950000  0.72310000  1
  O  O60  1  0.82380000  0.84110000  0.37410000  1
  O  O61  1  0.17620000  0.84110000  0.87410000  1
  O  O62  1  0.68050000  0.83460000  0.11040000  1
  O  O63  1  0.31950000  0.83460000  0.61040000  1
  O  O64  1  0.84750000  0.82770000  0.87950000  1
  O  O65  1  0.15250000  0.82770000  0.37950000  1
  O  O66  1  0.88630000  0.79950000  0.02720000  1
  O  O67  1  0.11370000  0.79950000  0.52720000  1
  O  O68  1  0.85740000  0.79150000  0.54570000  1
  O  O69  1  0.14260000  0.79150000  0.04570000  1
  O  O70  1  0.50600000  0.77880000  0.11270000  1
  O  O71  1  0.49400000  0.77880000  0.61270000  1
  O  O72  1  0.99400000  0.72120000  0.88730000  1
  O  O73  1  0.00600000  0.72120000  0.38730000  1
  O  O74  1  0.64260000  0.70850000  0.45430000  1
  O  O75  1  0.35740000  0.70850000  0.95430000  1
  O  O76  1  0.61370000  0.70050000  0.97280000  1
  O  O77  1  0.38630000  0.70050000  0.47280000  1
  O  O78  1  0.65250000  0.67230000  0.12050000  1
  O  O79  1  0.34750000  0.67230000  0.62050000  1
  O  O80  1  0.81950000  0.66540000  0.88960000  1
  O  O81  1  0.18050000  0.66540000  0.38960000  1
  O  O82  1  0.67620000  0.65890000  0.62590000  1
  O  O83  1  0.32380000  0.65890000  0.12590000  1
  O  O84  1  0.63040000  0.64050000  0.77690000  1
  O  O85  1  0.36960000  0.64050000  0.27690000  1
  O  O86  1  0.80070000  0.63910000  0.36360000  1
  O  O87  1  0.19930000  0.63910000  0.86360000  1
  O  O88  1  0.62800000  0.62380000  0.28550000  1
  O  O89  1  0.37200000  0.62380000  0.78550000  1
  O  O90  1  0.52420000  0.56240000  0.63650000  1
  O  O91  1  0.47580000  0.56240000  0.13650000  1
  O  O92  1  0.67350000  0.52790000  0.38670000  1
  O  O93  1  0.32650000  0.52790000  0.88670000  1
  O  O94  1  0.70110000  0.50020000  0.64010000  1
  O  O95  1  0.29890000  0.50020000  0.14010000  1
  O  O96  1  0.70110000  0.49980000  0.85990000  1
  O  O97  1  0.29890000  0.49980000  0.35990000  1
  O  O98  1  0.67350000  0.47210000  0.11330000  1
  O  O99  1  0.32650000  0.47210000  0.61330000  1
  O  O100  1  0.52420000  0.43760000  0.86350000  1
  O  O101  1  0.47580000  0.43760000  0.36350000  1
  O  O102  1  0.62800000  0.37620000  0.21450000  1
  O  O103  1  0.37200000  0.37620000  0.71450000  1
  O  O104  1  0.80070000  0.36090000  0.13640000  1
  O  O105  1  0.19930000  0.36090000  0.63640000  1
  O  O106  1  0.63040000  0.35950000  0.72310000  1
  O  O107  1  0.36960000  0.35950000  0.22310000  1
  O  O108  1  0.67620000  0.34110000  0.87410000  1
  O  O109  1  0.32380000  0.34110000  0.37410000  1
  O  O110  1  0.81950000  0.33460000  0.61040000  1
  O  O111  1  0.18050000  0.33460000  0.11040000  1
  O  O112  1  0.65250000  0.32770000  0.37950000  1
  O  O113  1  0.34750000  0.32770000  0.87950000  1
  O  O114  1  0.61370000  0.29950000  0.52720000  1
  O  O115  1  0.38630000  0.29950000  0.02720000  1
  O  O116  1  0.64260000  0.29150000  0.04570000  1
  O  O117  1  0.35740000  0.29150000  0.54570000  1
  O  O118  1  0.99400000  0.27880000  0.61270000  1
  O  O119  1  0.00600000  0.27880000  0.11270000  1
  O  O120  1  0.50600000  0.22120000  0.38730000  1
  O  O121  1  0.49400000  0.22120000  0.88730000  1
  O  O122  1  0.85740000  0.20850000  0.95430000  1
  O  O123  1  0.14260000  0.20850000  0.45430000  1
  O  O124  1  0.88630000  0.20050000  0.47280000  1
  O  O125  1  0.11370000  0.20050000  0.97280000  1
  O  O126  1  0.84750000  0.17230000  0.62050000  1
  O  O127  1  0.15250000  0.17230000  0.12050000  1
  O  O128  1  0.68050000  0.16540000  0.38960000  1
  O  O129  1  0.31950000  0.16540000  0.88960000  1
  O  O130  1  0.82380000  0.15890000  0.12590000  1
  O  O131  1  0.17620000  0.15890000  0.62590000  1
  O  O132  1  0.86960000  0.14050000  0.27690000  1
  O  O133  1  0.13040000  0.14050000  0.77690000  1
  O  O134  1  0.69930000  0.13910000  0.86360000  1
  O  O135  1  0.30070000  0.13910000  0.36360000  1
  O  O136  1  0.87200000  0.12380000  0.78550000  1
  O  O137  1  0.12800000  0.12380000  0.28550000  1
  O  O138  1  0.97580000  0.06240000  0.13650000  1
  O  O139  1  0.02420000  0.06240000  0.63650000  1
  O  O140  1  0.82650000  0.02790000  0.88670000  1
  O  O141  1  0.17350000  0.02790000  0.38670000  1
  O  O142  1  0.79890000  0.00020000  0.14010000  1
  O  O143  1  0.20110000  0.00020000  0.64010000  1
