# generated using pymatgen
data_ErH3C9NO7
_symmetry_space_group_name_H-M   'P 1'
_cell_length_a   12.94060000
_cell_length_b   12.94060000
_cell_length_c   14.63900000
_cell_angle_alpha   83.93200000
_cell_angle_beta   83.93200000
_cell_angle_gamma   61.62450000
_symmetry_Int_Tables_number   1
_chemical_formula_structural   ErH3C9NO7
_chemical_formula_sum   'Er4 H12 C36 N4 O28'
_cell_volume   2140.49907770
_cell_formula_units_Z   4
loop_
 _symmetry_equiv_pos_site_id
 _symmetry_equiv_pos_as_xyz
  1  'x, y, z'
loop_
 _atom_site_type_symbol
 _atom_site_label
 _atom_site_symmetry_multiplicity
 _atom_site_fract_x
 _atom_site_fract_y
 _atom_site_fract_z
 _atom_site_occupancy
  Er  Er0  1  0.34832000  0.98972000  0.52755000  1
  Er  Er1  1  0.01028000  0.65168000  0.97245000  1
  Er  Er2  1  0.98972000  0.34832000  0.02755000  1
  Er  Er3  1  0.65168000  0.01028000  0.47245000  1
  H  H4  1  0.73230000  0.78290000  0.23540000  1
  H  H5  1  0.78290000  0.73230000  0.73540000  1
  H  H6  1  0.47320000  0.71400000  0.34190000  1
  H  H7  1  0.52230000  0.69830000  0.64090000  1
  H  H8  1  0.28600000  0.52680000  0.15810000  1
  H  H9  1  0.69830000  0.52230000  0.14090000  1
  H  H10  1  0.30170000  0.47770000  0.85910000  1
  H  H11  1  0.71400000  0.47320000  0.84190000  1
  H  H12  1  0.47770000  0.30170000  0.35910000  1
  H  H13  1  0.52680000  0.28600000  0.65810000  1
  H  H14  1  0.21710000  0.26770000  0.26460000  1
  H  H15  1  0.26770000  0.21710000  0.76460000  1
  C  C16  1  0.56050000  0.85710000  0.36460000  1
  C  C17  1  0.62920000  0.83060000  0.60680000  1
  C  C18  1  0.59980000  0.76020000  0.29870000  1
  C  C19  1  0.69330000  0.73810000  0.23700000  1
  C  C20  1  0.64980000  0.73100000  0.67650000  1
  C  C21  1  0.53880000  0.69660000  0.30140000  1
  C  C22  1  0.73810000  0.69330000  0.73700000  1
  C  C23  1  0.58290000  0.67290000  0.68030000  1
  C  C24  1  0.73100000  0.64980000  0.17650000  1
  C  C25  1  0.83060000  0.62920000  0.10680000  1
  C  C26  1  0.57780000  0.60540000  0.24180000  1
  C  C27  1  0.76020000  0.59980000  0.79870000  1
  C  C28  1  0.67290000  0.58290000  0.18030000  1
  C  C29  1  0.60540000  0.57780000  0.74180000  1
  C  C30  1  0.85710000  0.56050000  0.86460000  1
  C  C31  1  0.51550000  0.53970000  0.24630000  1
  C  C32  1  0.69660000  0.53880000  0.80140000  1
  C  C33  1  0.53970000  0.51550000  0.74630000  1
  C  C34  1  0.46030000  0.48450000  0.25370000  1
  C  C35  1  0.30340000  0.46120000  0.19860000  1
  C  C36  1  0.48450000  0.46030000  0.75370000  1
  C  C37  1  0.14290000  0.43950000  0.13540000  1
  C  C38  1  0.39460000  0.42220000  0.25820000  1
  C  C39  1  0.32710000  0.41710000  0.81970000  1
  C  C40  1  0.23980000  0.40020000  0.20130000  1
  C  C41  1  0.42220000  0.39460000  0.75820000  1
  C  C42  1  0.16940000  0.37080000  0.89320000  1
  C  C43  1  0.26900000  0.35020000  0.82350000  1
  C  C44  1  0.41710000  0.32710000  0.31970000  1
  C  C45  1  0.26190000  0.30670000  0.26300000  1
  C  C46  1  0.46120000  0.30340000  0.69860000  1
  C  C47  1  0.35020000  0.26900000  0.32350000  1
  C  C48  1  0.30670000  0.26190000  0.76300000  1
  C  C49  1  0.40020000  0.23980000  0.70130000  1
  C  C50  1  0.37080000  0.16940000  0.39320000  1
  C  C51  1  0.43950000  0.14290000  0.63540000  1
  N  N52  1  0.27190000  0.83590000  0.46680000  1
  N  N53  1  0.16410000  0.72810000  0.03320000  1
  N  N54  1  0.83590000  0.27190000  0.96680000  1
  N  N55  1  0.72810000  0.16410000  0.53320000  1
  O  O56  1  0.21990000  0.94610000  0.45110000  1
  O  O57  1  0.45630000  0.89970000  0.39680000  1
  O  O58  1  0.63620000  0.88440000  0.38230000  1
  O  O59  1  0.53610000  0.88190000  0.56830000  1
  O  O60  1  0.71240000  0.85480000  0.58620000  1
  O  O61  1  0.35220000  0.79800000  0.52130000  1
  O  O62  1  0.05390000  0.78010000  0.04890000  1
  O  O63  1  0.25450000  0.76850000  0.42720000  1
  O  O64  1  0.23150000  0.74550000  0.07280000  1
  O  O65  1  0.85480000  0.71240000  0.08620000  1
  O  O66  1  0.20200000  0.64780000  0.97870000  1
  O  O67  1  0.88440000  0.63620000  0.88230000  1
  O  O68  1  0.10030000  0.54370000  0.10320000  1
  O  O69  1  0.88190000  0.53610000  0.06830000  1
  O  O70  1  0.11810000  0.46390000  0.93170000  1
  O  O71  1  0.89970000  0.45630000  0.89680000  1
  O  O72  1  0.11560000  0.36380000  0.11770000  1
  O  O73  1  0.79800000  0.35220000  0.02130000  1
  O  O74  1  0.14520000  0.28760000  0.91380000  1
  O  O75  1  0.76850000  0.25450000  0.92720000  1
  O  O76  1  0.74550000  0.23150000  0.57280000  1
  O  O77  1  0.94610000  0.21990000  0.95110000  1
  O  O78  1  0.64780000  0.20200000  0.47870000  1
  O  O79  1  0.28760000  0.14520000  0.41380000  1
  O  O80  1  0.46390000  0.11810000  0.43170000  1
  O  O81  1  0.36380000  0.11560000  0.61770000  1
  O  O82  1  0.54370000  0.10030000  0.60320000  1
  O  O83  1  0.78010000  0.05390000  0.54890000  1
