# generated using pymatgen
data_CuH32(C3N)12
_symmetry_space_group_name_H-M   'P 1'
_cell_length_a   15.16600000
_cell_length_b   18.44300000
_cell_length_c   18.44300000
_cell_angle_alpha   90.00000000
_cell_angle_beta   90.00000000
_cell_angle_gamma   90.00000000
_symmetry_Int_Tables_number   1
_chemical_formula_structural   CuH32(C3N)12
_chemical_formula_sum   'Cu2 H64 C72 N24'
_cell_volume   5158.62768033
_cell_formula_units_Z   2
loop_
 _symmetry_equiv_pos_site_id
 _symmetry_equiv_pos_as_xyz
  1  'x, y, z'
loop_
 _atom_site_type_symbol
 _atom_site_label
 _atom_site_symmetry_multiplicity
 _atom_site_fract_x
 _atom_site_fract_y
 _atom_site_fract_z
 _atom_site_occupancy
  Cu  Cu0  1  0.50000000  0.00000000  0.00000000  1
  Cu  Cu1  1  0.00000000  0.50000000  0.50000000  1
  H  H2  1  0.82880000  0.01820000  0.34200000  1
  H  H3  1  0.37420000  0.02160000  0.85970000  1
  H  H4  1  0.53130000  0.02230000  0.62450000  1
  H  H5  1  0.89500000  0.05230000  0.44200000  1
  H  H6  1  0.60500000  0.05800000  0.44770000  1
  H  H7  1  0.75720000  0.06340000  0.73210000  1
  H  H8  1  0.62250000  0.06510000  0.87370000  1
  H  H9  1  0.96870000  0.12450000  0.52230000  1
  H  H10  1  0.37750000  0.12630000  0.06510000  1
  H  H11  1  0.55250000  0.13790000  0.70170000  1
  H  H12  1  0.62580000  0.14030000  0.02160000  1
  H  H13  1  0.63490000  0.14130000  0.75310000  1
  H  H14  1  0.67120000  0.15800000  0.48180000  1
  H  H15  1  0.94750000  0.20170000  0.63790000  1
  H  H16  1  0.74280000  0.23210000  0.56340000  1
  H  H17  1  0.36510000  0.24690000  0.14130000  1
  H  H18  1  0.86510000  0.25310000  0.64130000  1
  H  H19  1  0.24280000  0.26790000  0.06340000  1
  H  H20  1  0.44750000  0.29830000  0.13790000  1
  H  H21  1  0.17120000  0.34200000  0.98180000  1
  H  H22  1  0.13490000  0.35870000  0.25310000  1
  H  H23  1  0.12580000  0.35970000  0.52160000  1
  H  H24  1  0.05250000  0.36210000  0.20170000  1
  H  H25  1  0.87750000  0.37370000  0.56510000  1
  H  H26  1  0.46870000  0.37550000  0.02230000  1
  H  H27  1  0.12250000  0.43490000  0.37370000  1
  H  H28  1  0.25720000  0.43660000  0.23210000  1
  H  H29  1  0.10500000  0.44200000  0.94770000  1
  H  H30  1  0.39500000  0.44770000  0.94200000  1
  H  H31  1  0.03130000  0.47770000  0.12450000  1
  H  H32  1  0.87420000  0.47840000  0.35970000  1
  H  H33  1  0.32880000  0.48180000  0.84200000  1
  H  H34  1  0.32880000  0.51820000  0.15800000  1
  H  H35  1  0.87420000  0.52160000  0.64030000  1
  H  H36  1  0.03130000  0.52230000  0.87550000  1
  H  H37  1  0.39500000  0.55230000  0.05800000  1
  H  H38  1  0.10500000  0.55800000  0.05230000  1
  H  H39  1  0.25720000  0.56340000  0.76790000  1
  H  H40  1  0.12250000  0.56510000  0.62630000  1
  H  H41  1  0.46870000  0.62450000  0.97770000  1
  H  H42  1  0.87750000  0.62630000  0.43490000  1
  H  H43  1  0.05250000  0.63790000  0.79830000  1
  H  H44  1  0.12580000  0.64030000  0.47840000  1
  H  H45  1  0.13490000  0.64130000  0.74690000  1
  H  H46  1  0.17120000  0.65800000  0.01820000  1
  H  H47  1  0.44750000  0.70170000  0.86210000  1
  H  H48  1  0.24280000  0.73210000  0.93660000  1
  H  H49  1  0.86510000  0.74690000  0.35870000  1
  H  H50  1  0.36510000  0.75310000  0.85870000  1
  H  H51  1  0.74280000  0.76790000  0.43660000  1
  H  H52  1  0.94750000  0.79830000  0.36210000  1
  H  H53  1  0.67120000  0.84200000  0.51820000  1
  H  H54  1  0.63490000  0.85870000  0.24690000  1
  H  H55  1  0.62580000  0.85970000  0.97840000  1
  H  H56  1  0.55250000  0.86210000  0.29830000  1
  H  H57  1  0.37750000  0.87370000  0.93490000  1
  H  H58  1  0.96870000  0.87550000  0.47770000  1
  H  H59  1  0.62250000  0.93490000  0.12630000  1
  H  H60  1  0.75720000  0.93660000  0.26790000  1
  H  H61  1  0.60500000  0.94200000  0.55230000  1
  H  H62  1  0.89500000  0.94770000  0.55800000  1
  H  H63  1  0.53130000  0.97770000  0.37550000  1
  H  H64  1  0.37420000  0.97840000  0.14030000  1
  H  H65  1  0.82880000  0.98180000  0.65800000  1
  C  C66  1  0.76880000  0.01020000  0.34880000  1
  C  C67  1  0.59140000  0.01460000  0.63130000  1
  C  C68  1  0.63550000  0.03360000  0.41140000  1
  C  C69  1  0.43130000  0.03560000  0.84780000  1
  C  C70  1  0.72620000  0.03940000  0.69580000  1
  C  C71  1  0.72650000  0.04750000  0.40170000  1
  C  C72  1  0.63740000  0.05300000  0.68590000  1
  C  C73  1  0.56540000  0.05860000  0.85640000  1
  C  C74  1  0.86450000  0.08860000  0.46640000  1
  C  C75  1  0.77350000  0.09830000  0.45250000  1
  C  C76  1  0.59130000  0.10910000  0.73200000  1
  C  C77  1  0.90860000  0.13130000  0.51460000  1
  C  C78  1  0.43460000  0.14360000  0.05860000  1
  C  C79  1  0.73120000  0.15120000  0.48980000  1
  C  C80  1  0.56870000  0.15220000  0.03560000  1
  C  C81  1  0.86260000  0.18590000  0.55300000  1
  C  C82  1  0.77380000  0.19580000  0.53940000  1
  C  C83  1  0.90870000  0.23200000  0.60910000  1
  C  C84  1  0.40870000  0.26800000  0.10910000  1
  C  C85  1  0.27380000  0.30420000  0.03940000  1
  C  C86  1  0.36260000  0.31410000  0.05300000  1
  C  C87  1  0.06870000  0.34780000  0.53560000  1
  C  C88  1  0.23120000  0.34880000  0.98980000  1
  C  C89  1  0.93460000  0.35640000  0.55860000  1
  C  C90  1  0.40860000  0.36870000  0.01460000  1
  C  C91  1  0.09130000  0.39090000  0.23200000  1
  C  C92  1  0.27350000  0.40170000  0.95250000  1
  C  C93  1  0.36450000  0.41140000  0.96640000  1
  C  C94  1  0.06540000  0.44140000  0.35640000  1
  C  C95  1  0.13740000  0.44700000  0.18590000  1
  C  C96  1  0.22650000  0.45250000  0.90170000  1
  C  C97  1  0.22620000  0.46060000  0.19580000  1
  C  C98  1  0.93130000  0.46440000  0.34780000  1
  C  C99  1  0.13550000  0.46640000  0.91140000  1
  C  C100  1  0.09140000  0.48540000  0.13130000  1
  C  C101  1  0.26880000  0.48980000  0.84880000  1
  C  C102  1  0.26880000  0.51020000  0.15120000  1
  C  C103  1  0.09140000  0.51460000  0.86870000  1
  C  C104  1  0.13550000  0.53360000  0.08860000  1
  C  C105  1  0.93130000  0.53560000  0.65220000  1
  C  C106  1  0.22620000  0.53940000  0.80420000  1
  C  C107  1  0.22650000  0.54750000  0.09830000  1
  C  C108  1  0.13740000  0.55300000  0.81410000  1
  C  C109  1  0.06540000  0.55860000  0.64360000  1
  C  C110  1  0.36450000  0.58860000  0.03360000  1
  C  C111  1  0.27350000  0.59830000  0.04750000  1
  C  C112  1  0.09130000  0.60910000  0.76800000  1
  C  C113  1  0.40860000  0.63130000  0.98540000  1
  C  C114  1  0.93460000  0.64360000  0.44140000  1
  C  C115  1  0.23120000  0.65120000  0.01020000  1
  C  C116  1  0.06870000  0.65220000  0.46440000  1
  C  C117  1  0.36260000  0.68590000  0.94700000  1
  C  C118  1  0.27380000  0.69580000  0.96060000  1
  C  C119  1  0.40870000  0.73200000  0.89090000  1
  C  C120  1  0.90870000  0.76800000  0.39090000  1
  C  C121  1  0.77380000  0.80420000  0.46060000  1
  C  C122  1  0.86260000  0.81410000  0.44700000  1
  C  C123  1  0.56870000  0.84780000  0.96440000  1
  C  C124  1  0.73120000  0.84880000  0.51020000  1
  C  C125  1  0.43460000  0.85640000  0.94140000  1
  C  C126  1  0.90860000  0.86870000  0.48540000  1
  C  C127  1  0.59130000  0.89090000  0.26800000  1
  C  C128  1  0.77350000  0.90170000  0.54750000  1
  C  C129  1  0.86450000  0.91140000  0.53360000  1
  C  C130  1  0.56540000  0.94140000  0.14360000  1
  C  C131  1  0.63740000  0.94700000  0.31410000  1
  C  C132  1  0.72650000  0.95250000  0.59830000  1
  C  C133  1  0.72620000  0.96060000  0.30420000  1
  C  C134  1  0.43130000  0.96440000  0.15220000  1
  C  C135  1  0.63550000  0.96640000  0.58860000  1
  C  C136  1  0.59140000  0.98540000  0.36870000  1
  C  C137  1  0.76880000  0.98980000  0.65120000  1
  N  N138  1  0.49930000  0.03160000  0.89460000  1
  N  N139  1  0.45290000  0.06060000  0.78440000  1
  N  N140  1  0.53920000  0.07500000  0.79080000  1
  N  N141  1  0.50070000  0.10540000  0.03160000  1
  N  N142  1  0.46080000  0.20920000  0.07500000  1
  N  N143  1  0.54710000  0.21560000  0.06060000  1
  N  N144  1  0.04710000  0.28440000  0.56060000  1
  N  N145  1  0.96080000  0.29080000  0.57500000  1
  N  N146  1  0.00070000  0.39460000  0.53160000  1
  N  N147  1  0.03920000  0.42500000  0.29080000  1
  N  N148  1  0.95290000  0.43940000  0.28440000  1
  N  N149  1  0.99930000  0.46840000  0.39460000  1
  N  N150  1  0.99930000  0.53160000  0.60540000  1
  N  N151  1  0.95290000  0.56060000  0.71560000  1
  N  N152  1  0.03920000  0.57500000  0.70920000  1
  N  N153  1  0.00070000  0.60540000  0.46840000  1
  N  N154  1  0.96080000  0.70920000  0.42500000  1
  N  N155  1  0.04710000  0.71560000  0.43940000  1
  N  N156  1  0.54710000  0.78440000  0.93940000  1
  N  N157  1  0.46080000  0.79080000  0.92500000  1
  N  N158  1  0.50070000  0.89460000  0.96840000  1
  N  N159  1  0.53920000  0.92500000  0.20920000  1
  N  N160  1  0.45290000  0.93940000  0.21560000  1
  N  N161  1  0.49930000  0.96840000  0.10540000  1
