# generated using pymatgen
data_Li2H3C3SO5
_symmetry_space_group_name_H-M   'P 1'
_cell_length_a   7.52030000
_cell_length_b   13.55200000
_cell_length_c   15.62300000
_cell_angle_alpha   90.00000000
_cell_angle_beta   90.00000000
_cell_angle_gamma   90.00000000
_symmetry_Int_Tables_number   1
_chemical_formula_structural   Li2H3C3SO5
_chemical_formula_sum   'Li16 H24 C24 S8 O40'
_cell_volume   1592.21969479
_cell_formula_units_Z   8
loop_
 _symmetry_equiv_pos_site_id
 _symmetry_equiv_pos_as_xyz
  1  'x, y, z'
loop_
 _atom_site_type_symbol
 _atom_site_label
 _atom_site_symmetry_multiplicity
 _atom_site_fract_x
 _atom_site_fract_y
 _atom_site_fract_z
 _atom_site_occupancy
  Li  Li0  1  0.02210000  0.17550000  0.08893000  1
  Li  Li1  1  0.02210000  0.17550000  0.41107000  1
  Li  Li2  1  0.16280000  0.01820000  0.51710000  1
  Li  Li3  1  0.16280000  0.01820000  0.98290000  1
  Li  Li4  1  0.33720000  0.51820000  0.51710000  1
  Li  Li5  1  0.33720000  0.51820000  0.98290000  1
  Li  Li6  1  0.47790000  0.67550000  0.08893000  1
  Li  Li7  1  0.47790000  0.67550000  0.41107000  1
  Li  Li8  1  0.52210000  0.32450000  0.58893000  1
  Li  Li9  1  0.52210000  0.32450000  0.91107000  1
  Li  Li10  1  0.66280000  0.48180000  0.01710000  1
  Li  Li11  1  0.66280000  0.48180000  0.48290000  1
  Li  Li12  1  0.83720000  0.98180000  0.01710000  1
  Li  Li13  1  0.83720000  0.98180000  0.48290000  1
  Li  Li14  1  0.97790000  0.82450000  0.58893000  1
  Li  Li15  1  0.97790000  0.82450000  0.91107000  1
  H  H16  1  0.01380000  0.90030000  0.75000000  1
  H  H17  1  0.03180000  0.58640000  0.56460000  1
  H  H18  1  0.03180000  0.58640000  0.93540000  1
  H  H19  1  0.16220000  0.52190000  0.55170000  1
  H  H20  1  0.16220000  0.52190000  0.94830000  1
  H  H21  1  0.21200000  0.78150000  0.25000000  1
  H  H22  1  0.28800000  0.28150000  0.25000000  1
  H  H23  1  0.33780000  0.02190000  0.55170000  1
  H  H24  1  0.33780000  0.02190000  0.94830000  1
  H  H25  1  0.46820000  0.08640000  0.56460000  1
  H  H26  1  0.46820000  0.08640000  0.93540000  1
  H  H27  1  0.48620000  0.40030000  0.75000000  1
  H  H28  1  0.51380000  0.59970000  0.25000000  1
  H  H29  1  0.53180000  0.91360000  0.06460000  1
  H  H30  1  0.53180000  0.91360000  0.43540000  1
  H  H31  1  0.66220000  0.97810000  0.05170000  1
  H  H32  1  0.66220000  0.97810000  0.44830000  1
  H  H33  1  0.71200000  0.71850000  0.75000000  1
  H  H34  1  0.78800000  0.21850000  0.75000000  1
  H  H35  1  0.83780000  0.47810000  0.05170000  1
  H  H36  1  0.83780000  0.47810000  0.44830000  1
  H  H37  1  0.96820000  0.41360000  0.06460000  1
  H  H38  1  0.96820000  0.41360000  0.43540000  1
  H  H39  1  0.98620000  0.09970000  0.25000000  1
  C  C40  1  0.03030000  0.03560000  0.25000000  1
  C  C41  1  0.06190000  0.98969000  0.17076000  1
  C  C42  1  0.06190000  0.98969000  0.32924000  1
  C  C43  1  0.13130000  0.89201000  0.17312000  1
  C  C44  1  0.13130000  0.89201000  0.32688000  1
  C  C45  1  0.16570000  0.84511000  0.25000000  1
  C  C46  1  0.33430000  0.34511000  0.25000000  1
  C  C47  1  0.36870000  0.39201000  0.17312000  1
  C  C48  1  0.36870000  0.39201000  0.32688000  1
  C  C49  1  0.43810000  0.48969000  0.17076000  1
  C  C50  1  0.43810000  0.48969000  0.32924000  1
  C  C51  1  0.46970000  0.53560000  0.25000000  1
  C  C52  1  0.53030000  0.46440000  0.75000000  1
  C  C53  1  0.56190000  0.51031000  0.67076000  1
  C  C54  1  0.56190000  0.51031000  0.82924000  1
  C  C55  1  0.63130000  0.60799000  0.67312000  1
  C  C56  1  0.63130000  0.60799000  0.82688000  1
  C  C57  1  0.66570000  0.65489000  0.75000000  1
  C  C58  1  0.83430000  0.15489000  0.75000000  1
  C  C59  1  0.86870000  0.10799000  0.67312000  1
  C  C60  1  0.86870000  0.10799000  0.82688000  1
  C  C61  1  0.93810000  0.01031000  0.67076000  1
  C  C62  1  0.93810000  0.01031000  0.82924000  1
  C  C63  1  0.96970000  0.96440000  0.75000000  1
  S  S64  1  0.16800000  0.82970000  0.07763000  1
  S  S65  1  0.16800000  0.82970000  0.42237000  1
  S  S66  1  0.33200000  0.32970000  0.07763000  1
  S  S67  1  0.33200000  0.32970000  0.42237000  1
  S  S68  1  0.66800000  0.67030000  0.57763000  1
  S  S69  1  0.66800000  0.67030000  0.92237000  1
  S  S70  1  0.83200000  0.17030000  0.57763000  1
  S  S71  1  0.83200000  0.17030000  0.92237000  1
  O  O72  1  0.00428000  0.18170000  0.53564000  1
  O  O73  1  0.00428000  0.18170000  0.96436000  1
  O  O74  1  0.02835000  0.03376000  0.09667000  1
  O  O75  1  0.02835000  0.03376000  0.40333000  1
  O  O76  1  0.13370000  0.57169000  0.57818000  1
  O  O77  1  0.13370000  0.57169000  0.92182000  1
  O  O78  1  0.21291000  0.38948000  0.02440000  1
  O  O79  1  0.21291000  0.38948000  0.47560000  1
  O  O80  1  0.24536000  0.73446000  0.10070000  1
  O  O81  1  0.24536000  0.73446000  0.39930000  1
  O  O82  1  0.25464000  0.23446000  0.10070000  1
  O  O83  1  0.25464000  0.23446000  0.39930000  1
  O  O84  1  0.28709000  0.88948000  0.02440000  1
  O  O85  1  0.28709000  0.88948000  0.47560000  1
  O  O86  1  0.36630000  0.07169000  0.57818000  1
  O  O87  1  0.36630000  0.07169000  0.92182000  1
  O  O88  1  0.47165000  0.53376000  0.09667000  1
  O  O89  1  0.47165000  0.53376000  0.40333000  1
  O  O90  1  0.49572000  0.68170000  0.53564000  1
  O  O91  1  0.49572000  0.68170000  0.96436000  1
  O  O92  1  0.50428000  0.31830000  0.03564000  1
  O  O93  1  0.50428000  0.31830000  0.46436000  1
  O  O94  1  0.52835000  0.46624000  0.59667000  1
  O  O95  1  0.52835000  0.46624000  0.90333000  1
  O  O96  1  0.63370000  0.92831000  0.07818000  1
  O  O97  1  0.63370000  0.92831000  0.42182000  1
  O  O98  1  0.71291000  0.11052000  0.52440000  1
  O  O99  1  0.71291000  0.11052000  0.97560000  1
  O  O100  1  0.74536000  0.76554000  0.60070000  1
  O  O101  1  0.74536000  0.76554000  0.89930000  1
  O  O102  1  0.75464000  0.26554000  0.60070000  1
  O  O103  1  0.75464000  0.26554000  0.89930000  1
  O  O104  1  0.78709000  0.61052000  0.52440000  1
  O  O105  1  0.78709000  0.61052000  0.97560000  1
  O  O106  1  0.86630000  0.42831000  0.07818000  1
  O  O107  1  0.86630000  0.42831000  0.42182000  1
  O  O108  1  0.97165000  0.96624000  0.59667000  1
  O  O109  1  0.97165000  0.96624000  0.90333000  1
  O  O110  1  0.99572000  0.81830000  0.03564000  1
  O  O111  1  0.99572000  0.81830000  0.46436000  1
