# generated using pymatgen
data_ZnH8(C4O)4
_symmetry_space_group_name_H-M   'P 1'
_cell_length_a   7.30530000
_cell_length_b   12.67310000
_cell_length_c   17.50560000
_cell_angle_alpha   90.00000000
_cell_angle_beta   90.00000000
_cell_angle_gamma   90.00000000
_symmetry_Int_Tables_number   1
_chemical_formula_structural   ZnH8(C4O)4
_chemical_formula_sum   'Zn4 H32 C64 O16'
_cell_volume   1620.68240749
_cell_formula_units_Z   4
loop_
 _symmetry_equiv_pos_site_id
 _symmetry_equiv_pos_as_xyz
  1  'x, y, z'
loop_
 _atom_site_type_symbol
 _atom_site_label
 _atom_site_symmetry_multiplicity
 _atom_site_fract_x
 _atom_site_fract_y
 _atom_site_fract_z
 _atom_site_occupancy
  Zn  Zn0  1  0.75620000  0.25358000  0.75000000  1
  Zn  Zn1  1  0.74380000  0.75358000  0.25000000  1
  Zn  Zn2  1  0.25620000  0.24642000  0.75000000  1
  Zn  Zn3  1  0.24380000  0.74642000  0.25000000  1
  H  H4  1  0.88300000  0.94780000  0.81590000  1
  H  H5  1  0.88300000  0.94780000  0.68410000  1
  H  H6  1  0.86520000  0.74730000  0.46170000  1
  H  H7  1  0.86520000  0.74730000  0.03830000  1
  H  H8  1  0.78460000  0.77710000  0.81310000  1
  H  H9  1  0.78460000  0.77710000  0.68690000  1
  H  H10  1  0.77200000  0.67660000  0.92510000  1
  H  H11  1  0.77200000  0.67660000  0.57490000  1
  H  H12  1  0.72800000  0.17660000  0.42510000  1
  H  H13  1  0.72800000  0.17660000  0.07490000  1
  H  H14  1  0.71540000  0.27710000  0.31310000  1
  H  H15  1  0.71540000  0.27710000  0.18690000  1
  H  H16  1  0.63480000  0.24730000  0.96170000  1
  H  H17  1  0.63480000  0.24730000  0.53830000  1
  H  H18  1  0.61700000  0.44780000  0.31590000  1
  H  H19  1  0.61700000  0.44780000  0.18410000  1
  H  H20  1  0.38300000  0.55220000  0.81590000  1
  H  H21  1  0.38300000  0.55220000  0.68410000  1
  H  H22  1  0.36520000  0.75270000  0.46170000  1
  H  H23  1  0.36520000  0.75270000  0.03830000  1
  H  H24  1  0.28460000  0.72290000  0.81310000  1
  H  H25  1  0.28460000  0.72290000  0.68690000  1
  H  H26  1  0.27200000  0.82340000  0.92510000  1
  H  H27  1  0.27200000  0.82340000  0.57490000  1
  H  H28  1  0.22800000  0.32340000  0.42510000  1
  H  H29  1  0.22800000  0.32340000  0.07490000  1
  H  H30  1  0.21540000  0.22290000  0.31310000  1
  H  H31  1  0.21540000  0.22290000  0.18690000  1
  H  H32  1  0.13480000  0.25270000  0.96170000  1
  H  H33  1  0.13480000  0.25270000  0.53830000  1
  H  H34  1  0.11700000  0.05220000  0.31590000  1
  H  H35  1  0.11700000  0.05220000  0.18410000  1
  C  C36  1  0.99780000  0.87130000  0.36110000  1
  C  C37  1  0.99780000  0.87130000  0.13890000  1
  C  C38  1  0.99750000  0.93870000  0.43273000  1
  C  C39  1  0.99750000  0.93870000  0.06727000  1
  C  C40  1  0.94090000  0.95670000  0.93037000  1
  C  C41  1  0.94090000  0.95670000  0.56963000  1
  C  C42  1  0.93530000  0.89440000  0.99880000  1
  C  C43  1  0.93530000  0.89440000  0.50120000  1
  C  C44  1  0.88180000  0.90790000  0.86089000  1
  C  C45  1  0.88180000  0.90790000  0.63911000  1
  C  C46  1  0.86970000  0.78850000  0.99372000  1
  C  C47  1  0.86970000  0.78850000  0.50628000  1
  C  C48  1  0.82220000  0.80730000  0.85960000  1
  C  C49  1  0.82220000  0.80730000  0.64040000  1
  C  C50  1  0.81490000  0.74670000  0.92700000  1
  C  C51  1  0.81490000  0.74670000  0.57300000  1
  C  C52  1  0.68510000  0.24670000  0.42700000  1
  C  C53  1  0.68510000  0.24670000  0.07300000  1
  C  C54  1  0.67780000  0.30730000  0.35960000  1
  C  C55  1  0.67780000  0.30730000  0.14040000  1
  C  C56  1  0.63030000  0.28850000  0.49372000  1
  C  C57  1  0.63030000  0.28850000  0.00628000  1
  C  C58  1  0.61820000  0.40790000  0.36089000  1
  C  C59  1  0.61820000  0.40790000  0.13911000  1
  C  C60  1  0.56470000  0.39440000  0.49880000  1
  C  C61  1  0.56470000  0.39440000  0.00120000  1
  C  C62  1  0.55910000  0.45670000  0.43037000  1
  C  C63  1  0.55910000  0.45670000  0.06963000  1
  C  C64  1  0.50250000  0.43870000  0.93273000  1
  C  C65  1  0.50250000  0.43870000  0.56727000  1
  C  C66  1  0.50220000  0.37130000  0.86110000  1
  C  C67  1  0.50220000  0.37130000  0.63890000  1
  C  C68  1  0.49780000  0.62870000  0.36110000  1
  C  C69  1  0.49780000  0.62870000  0.13890000  1
  C  C70  1  0.49750000  0.56130000  0.43273000  1
  C  C71  1  0.49750000  0.56130000  0.06727000  1
  C  C72  1  0.44090000  0.54330000  0.93037000  1
  C  C73  1  0.44090000  0.54330000  0.56963000  1
  C  C74  1  0.43530000  0.60560000  0.99880000  1
  C  C75  1  0.43530000  0.60560000  0.50120000  1
  C  C76  1  0.38180000  0.59210000  0.86089000  1
  C  C77  1  0.38180000  0.59210000  0.63911000  1
  C  C78  1  0.36970000  0.71150000  0.99372000  1
  C  C79  1  0.36970000  0.71150000  0.50628000  1
  C  C80  1  0.32220000  0.69270000  0.85960000  1
  C  C81  1  0.32220000  0.69270000  0.64040000  1
  C  C82  1  0.31490000  0.75330000  0.92700000  1
  C  C83  1  0.31490000  0.75330000  0.57300000  1
  C  C84  1  0.18510000  0.25330000  0.42700000  1
  C  C85  1  0.18510000  0.25330000  0.07300000  1
  C  C86  1  0.17780000  0.19270000  0.35960000  1
  C  C87  1  0.17780000  0.19270000  0.14040000  1
  C  C88  1  0.13030000  0.21150000  0.49372000  1
  C  C89  1  0.13030000  0.21150000  0.00628000  1
  C  C90  1  0.11820000  0.09210000  0.36089000  1
  C  C91  1  0.11820000  0.09210000  0.13911000  1
  C  C92  1  0.06470000  0.10560000  0.49880000  1
  C  C93  1  0.06470000  0.10560000  0.00120000  1
  C  C94  1  0.05910000  0.04330000  0.43037000  1
  C  C95  1  0.05910000  0.04330000  0.06963000  1
  C  C96  1  0.00250000  0.06130000  0.93273000  1
  C  C97  1  0.00250000  0.06130000  0.56727000  1
  C  C98  1  0.00220000  0.12870000  0.86110000  1
  C  C99  1  0.00220000  0.12870000  0.63890000  1
  O  O100  1  0.84920000  0.15647000  0.83618000  1
  O  O101  1  0.84920000  0.15647000  0.66382000  1
  O  O102  1  0.84400000  0.85007000  0.33369000  1
  O  O103  1  0.84400000  0.85007000  0.16631000  1
  O  O104  1  0.65600000  0.35007000  0.83369000  1
  O  O105  1  0.65600000  0.35007000  0.66631000  1
  O  O106  1  0.65080000  0.65647000  0.33618000  1
  O  O107  1  0.65080000  0.65647000  0.16382000  1
  O  O108  1  0.34920000  0.34353000  0.83618000  1
  O  O109  1  0.34920000  0.34353000  0.66382000  1
  O  O110  1  0.34400000  0.64993000  0.33369000  1
  O  O111  1  0.34400000  0.64993000  0.16631000  1
  O  O112  1  0.15600000  0.14993000  0.83369000  1
  O  O113  1  0.15600000  0.14993000  0.66631000  1
  O  O114  1  0.15080000  0.84353000  0.33618000  1
  O  O115  1  0.15080000  0.84353000  0.16382000  1
