# generated using pymatgen
data_MnN9
_symmetry_space_group_name_H-M   'P 1'
_cell_length_a   8.63853701
_cell_length_b   8.63853701
_cell_length_c   12.21600000
_cell_angle_alpha   90.00000000
_cell_angle_beta   90.00000000
_cell_angle_gamma   90.63267634
_symmetry_Int_Tables_number   1
_chemical_formula_structural   MnN9
_chemical_formula_sum   'Mn4 N36'
_cell_volume   911.55513720
_cell_formula_units_Z   4
loop_
 _symmetry_equiv_pos_site_id
 _symmetry_equiv_pos_as_xyz
  1  'x, y, z'
loop_
 _atom_site_type_symbol
 _atom_site_label
 _atom_site_symmetry_multiplicity
 _atom_site_fract_x
 _atom_site_fract_y
 _atom_site_fract_z
 _atom_site_occupancy
  Mn  Mn0  1  0.80794000  0.19206000  0.19456000  1
  Mn  Mn1  1  0.69206000  0.30794000  0.69456000  1
  Mn  Mn2  1  0.30794000  0.69206000  0.30544000  1
  Mn  Mn3  1  0.19206000  0.80794000  0.80544000  1
  N  N4  1  0.98670000  0.01330000  0.17010000  1
  N  N5  1  0.94070000  0.05930000  0.76980000  1
  N  N6  1  0.86910000  0.13090000  0.71050000  1
  N  N7  1  0.82910000  0.17090000  0.37520000  1
  N  N8  1  0.79900000  0.20100000  0.01470000  1
  N  N9  1  0.76540000  0.23460000  0.44550000  1
  N  N10  1  0.73460000  0.26540000  0.94550000  1
  N  N11  1  0.70100000  0.29900000  0.51470000  1
  N  N12  1  0.67090000  0.32910000  0.87520000  1
  N  N13  1  0.63090000  0.36910000  0.21050000  1
  N  N14  1  0.55930000  0.44070000  0.26980000  1
  N  N15  1  0.51330000  0.48670000  0.67010000  1
  N  N16  1  0.48670000  0.51330000  0.32990000  1
  N  N17  1  0.44070000  0.55930000  0.73020000  1
  N  N18  1  0.36910000  0.63090000  0.78950000  1
  N  N19  1  0.32910000  0.67090000  0.12480000  1
  N  N20  1  0.29900000  0.70100000  0.48530000  1
  N  N21  1  0.26540000  0.73460000  0.05450000  1
  N  N22  1  0.23460000  0.76540000  0.55450000  1
  N  N23  1  0.20100000  0.79900000  0.98530000  1
  N  N24  1  0.17090000  0.82910000  0.62480000  1
  N  N25  1  0.13090000  0.86910000  0.28950000  1
  N  N26  1  0.05930000  0.94070000  0.23020000  1
  N  N27  1  0.01330000  0.98670000  0.82990000  1
  N  N28  1  0.63600000  0.00100000  0.18600000  1
  N  N29  1  0.50100000  0.13600000  0.68600000  1
  N  N30  1  0.13600000  0.50100000  0.31400000  1
  N  N31  1  0.00100000  0.63600000  0.81400000  1
  N  N32  1  0.56650000  0.93350000  0.25000000  1
  N  N33  1  0.43350000  0.06650000  0.75000000  1
  N  N34  1  0.06650000  0.43350000  0.25000000  1
  N  N35  1  0.93350000  0.56650000  0.75000000  1
  N  N36  1  0.49900000  0.86400000  0.31400000  1
  N  N37  1  0.36400000  0.99900000  0.81400000  1
  N  N38  1  0.99900000  0.36400000  0.18600000  1
  N  N39  1  0.86400000  0.49900000  0.68600000  1
