# generated using pymatgen
data_Mn2H16C26N10ClO4
_symmetry_space_group_name_H-M   'P 1'
_cell_length_a   9.87160000
_cell_length_b   16.55730479
_cell_length_c   24.73800000
_cell_angle_alpha   103.98812824
_cell_angle_beta   90.00000000
_cell_angle_gamma   107.34376490
_symmetry_Int_Tables_number   1
_chemical_formula_structural   Mn2H16C26N10ClO4
_chemical_formula_sum   'Mn8 H64 C104 N40 Cl4 O16'
_cell_volume   3733.71514544
_cell_formula_units_Z   4
loop_
 _symmetry_equiv_pos_site_id
 _symmetry_equiv_pos_as_xyz
  1  'x, y, z'
loop_
 _atom_site_type_symbol
 _atom_site_label
 _atom_site_symmetry_multiplicity
 _atom_site_fract_x
 _atom_site_fract_y
 _atom_site_fract_z
 _atom_site_occupancy
  C  C0  1  0.57569000  0.98998000  0.33616000  1
  C  C1  1  0.41429000  0.98998000  0.83616000  1
  C  C2  1  0.50221000  0.97762000  0.87486000  1
  C  C3  1  0.47541000  0.97762000  0.37486000  1
  C  C4  1  0.51630000  0.95280000  0.57452000  1
  C  C5  1  0.43650000  0.95280000  0.07452000  1
  C  C6  1  0.56760000  0.92400000  0.28829000  1
  C  C7  1  0.35640000  0.92400000  0.78829000  1
  C  C8  1  0.52719000  0.89698000  0.86569000  1
  C  C9  1  0.36979000  0.89698000  0.36569000  1
  C  C10  1  0.46029000  0.84478000  0.27766000  1
  C  C11  1  0.38449000  0.84478000  0.77766000  1
  C  C12  1  0.45795000  0.83730000  0.50875000  1
  C  C13  1  0.37935000  0.83730000  0.00875000  1
  C  C14  1  0.46827000  0.83154000  0.81770000  1
  C  C15  1  0.36327000  0.83154000  0.31770000  1
  C  C16  1  0.44839000  0.77718000  0.22352000  1
  C  C17  1  0.32879000  0.77718000  0.72352000  1
  C  C18  1  0.38265000  0.74770000  0.47665000  1
  C  C19  1  0.36505000  0.74770000  0.97665000  1
  C  C20  1  0.68486000  0.72832000  0.53586000  1
  C  C21  1  0.04346000  0.72832000  0.03586000  1
  C  C22  1  0.77832000  0.72424000  0.49442000  1
  C  C23  1  0.94592000  0.72424000  0.99442000  1
  C  C24  1  0.41986000  0.71252000  0.42323000  1
  C  C25  1  0.29266000  0.71252000  0.92323000  1
  C  C26  1  0.49314000  0.65668000  0.59347000  1
  C  C27  1  0.16354000  0.65668000  0.09347000  1
  C  C28  1  0.61378000  0.65396000  0.55376000  1
  C  C29  1  0.04018000  0.65396000  0.05376000  1
  C  C30  1  0.80142000  0.64564000  0.46969000  1
  C  C31  1  0.84422000  0.64564000  0.96969000  1
  C  C32  1  0.74949000  0.63878000  0.92166000  1
  C  C33  1  0.88929000  0.63878000  0.42166000  1
  C  C34  1  0.41115000  0.61910000  0.97076000  1
  C  C35  1  0.20795000  0.61910000  0.47076000  1
  C  C36  1  0.61833000  0.59846000  0.84609000  1
  C  C37  1  0.98013000  0.59846000  0.34609000  1
  C  C38  1  0.50956000  0.58692000  0.27266000  1
  C  C39  1  0.07736000  0.58692000  0.77266000  1
  C  C40  1  0.33902000  0.58524000  0.91852000  1
  C  C41  1  0.24622000  0.58524000  0.41852000  1
  C  C42  1  0.64572000  0.57684000  0.53164000  1
  C  C43  1  0.93112000  0.57684000  0.03164000  1
  C  C44  1  0.73879000  0.57258000  0.48941000  1
  C  C45  1  0.83379000  0.57258000  0.98941000  1
  C  C46  1  0.45719000  0.57138000  0.76157000  1
  C  C47  1  0.11419000  0.57138000  0.26157000  1
  C  C48  1  0.58818000  0.55656000  0.30516000  1
  C  C49  1  0.96838000  0.55656000  0.80516000  1
  C  C50  1  0.53916000  0.54232000  0.79348000  1
  C  C51  1  0.00316000  0.54232000  0.29348000  1
  C  C52  1  0.46084000  0.45768000  0.20652000  1
  C  C53  1  0.99684000  0.45768000  0.70652000  1
  C  C54  1  0.41182000  0.44344000  0.69484000  1
  C  C55  1  0.03162000  0.44344000  0.19484000  1
  C  C56  1  0.54281000  0.42862000  0.23843000  1
  C  C57  1  0.88581000  0.42862000  0.73843000  1
  C  C58  1  0.26121000  0.42742000  0.51059000  1
  C  C59  1  0.16621000  0.42742000  0.01059000  1
  C  C60  1  0.35428000  0.42316000  0.46836000  1
  C  C61  1  0.06888000  0.42316000  0.96836000  1
  C  C62  1  0.66098000  0.41476000  0.08148000  1
  C  C63  1  0.75378000  0.41476000  0.58148000  1
  C  C64  1  0.49044000  0.41308000  0.72734000  1
  C  C65  1  0.92264000  0.41308000  0.22734000  1
  C  C66  1  0.38167000  0.40154000  0.15391000  1
  C  C67  1  0.01987000  0.40154000  0.65391000  1
  C  C68  1  0.58885000  0.38090000  0.02924000  1
  C  C69  1  0.79205000  0.38090000  0.52924000  1
  C  C70  1  0.25051000  0.36122000  0.07834000  1
  C  C71  1  0.11071000  0.36122000  0.57834000  1
  C  C72  1  0.19858000  0.35436000  0.53031000  1
  C  C73  1  0.15578000  0.35436000  0.03031000  1
  C  C74  1  0.38622000  0.34604000  0.44624000  1
  C  C75  1  0.95982000  0.34604000  0.94624000  1
  C  C76  1  0.50686000  0.34332000  0.40653000  1
  C  C77  1  0.83646000  0.34332000  0.90653000  1
  C  C78  1  0.58014000  0.28748000  0.57677000  1
  C  C79  1  0.70734000  0.28748000  0.07677000  1
  C  C80  1  0.22168000  0.27576000  0.50558000  1
  C  C81  1  0.05408000  0.27576000  0.00558000  1
  C  C82  1  0.31514000  0.27168000  0.46414000  1
  C  C83  1  0.95654000  0.27168000  0.96414000  1
  C  C84  1  0.61735000  0.25230000  0.52335000  1
  C  C85  1  0.63495000  0.25230000  0.02335000  1
  C  C86  1  0.55161000  0.22282000  0.77648000  1
  C  C87  1  0.67121000  0.22282000  0.27648000  1
  C  C88  1  0.53173000  0.16846000  0.18230000  1
  C  C89  1  0.63673000  0.16846000  0.68230000  1
  C  C90  1  0.54205000  0.16270000  0.49125000  1
  C  C91  1  0.62065000  0.16270000  0.99125000  1
  C  C92  1  0.53971000  0.15522000  0.72234000  1
  C  C93  1  0.61551000  0.15522000  0.22234000  1
  C  C94  1  0.47281000  0.10302000  0.13431000  1
  C  C95  1  0.63021000  0.10302000  0.63431000  1
  C  C96  1  0.43240000  0.07600000  0.71171000  1
  C  C97  1  0.64360000  0.07600000  0.21171000  1
  C  C98  1  0.48370000  0.04720000  0.42548000  1
  C  C99  1  0.56350000  0.04720000  0.92548000  1
  C  C100  1  0.49779000  0.02238000  0.12514000  1
  C  C101  1  0.52459000  0.02238000  0.62514000  1
  C  C102  1  0.42431000  0.01002000  0.66384000  1
  C  C103  1  0.58571000  0.01002000  0.16384000  1
  Cl  Cl104  1  0.51958000  0.61298000  0.09889000  1
  Cl  Cl105  1  0.09340000  0.61298000  0.59889000  1
  Cl  Cl106  1  0.48042000  0.38702000  0.90111000  1
  Cl  Cl107  1  0.90660000  0.38702000  0.40111000  1
  H  H108  1  0.65750000  0.99020000  0.96810000  1
  H  H109  1  0.33270000  0.99020000  0.46810000  1
  H  H110  1  0.60610000  0.95740000  0.15780000  1
  H  H111  1  0.35130000  0.95740000  0.65780000  1
  H  H112  1  0.63600000  0.93320000  0.26270000  1
  H  H113  1  0.29720000  0.93320000  0.76270000  1
  H  H114  1  0.58360000  0.88700000  0.89190000  1
  H  H115  1  0.30340000  0.88700000  0.39190000  1
  H  H116  1  0.66900000  0.78120000  0.55200000  1
  H  H117  1  0.11220000  0.78120000  0.05200000  1
  H  H118  1  0.48530000  0.77800000  0.81230000  1
  H  H119  1  0.29270000  0.77800000  0.31230000  1
  H  H120  1  0.82580000  0.77440000  0.48320000  1
  H  H121  1  0.94860000  0.77440000  0.98320000  1
  H  H122  1  0.73170000  0.75720000  0.93600000  1
  H  H123  1  0.02550000  0.75720000  0.43600000  1
  H  H124  1  0.49420000  0.74700000  0.40780000  1
  H  H125  1  0.25280000  0.74700000  0.90780000  1
  H  H126  1  0.50040000  0.64240000  0.28590000  1
  H  H127  1  0.14200000  0.64240000  0.78590000  1
  H  H128  1  0.44660000  0.62640000  0.77510000  1
  H  H129  1  0.17980000  0.62640000  0.27510000  1
  H  H130  1  0.62930000  0.59220000  0.33990000  1
  H  H131  1  0.96290000  0.59220000  0.83990000  1
  H  H132  1  0.45210000  0.58460000  0.98560000  1
  H  H133  1  0.13250000  0.58460000  0.48560000  1
  H  H134  1  0.33150000  0.52800000  0.89960000  1
  H  H135  1  0.19650000  0.52800000  0.39960000  1
  H  H136  1  0.60470000  0.52780000  0.54500000  1
  H  H137  1  0.92310000  0.52780000  0.04500000  1
  H  H138  1  0.75900000  0.52060000  0.47440000  1
  H  H139  1  0.76160000  0.52060000  0.97440000  1
  H  H140  1  0.24100000  0.47940000  0.52560000  1
  H  H141  1  0.23840000  0.47940000  0.02560000  1
  H  H142  1  0.39530000  0.47220000  0.45500000  1
  H  H143  1  0.07690000  0.47220000  0.95500000  1
  H  H144  1  0.66850000  0.47200000  0.10040000  1
  H  H145  1  0.80350000  0.47200000  0.60040000  1
  H  H146  1  0.54790000  0.41540000  0.01440000  1
  H  H147  1  0.86750000  0.41540000  0.51440000  1
  H  H148  1  0.37070000  0.40780000  0.66010000  1
  H  H149  1  0.03710000  0.40780000  0.16010000  1
  H  H150  1  0.55340000  0.37360000  0.22490000  1
  H  H151  1  0.82020000  0.37360000  0.72490000  1
  H  H152  1  0.49960000  0.35760000  0.71410000  1
  H  H153  1  0.85800000  0.35760000  0.21410000  1
  H  H154  1  0.50580000  0.25300000  0.59220000  1
  H  H155  1  0.74720000  0.25300000  0.09220000  1
  H  H156  1  0.26830000  0.24280000  0.06400000  1
  H  H157  1  0.97450000  0.24280000  0.56400000  1
  H  H158  1  0.17420000  0.22560000  0.51680000  1
  H  H159  1  0.05140000  0.22560000  0.01680000  1
  H  H160  1  0.51470000  0.22200000  0.18770000  1
  H  H161  1  0.70730000  0.22200000  0.68770000  1
  H  H162  1  0.33100000  0.21880000  0.44800000  1
  H  H163  1  0.88780000  0.21880000  0.94800000  1
  H  H164  1  0.41640000  0.11300000  0.10810000  1
  H  H165  1  0.69660000  0.11300000  0.60810000  1
  H  H166  1  0.36400000  0.06680000  0.73730000  1
  H  H167  1  0.70280000  0.06680000  0.23730000  1
  H  H168  1  0.39390000  0.04260000  0.84220000  1
  H  H169  1  0.64870000  0.04260000  0.34220000  1
  H  H170  1  0.34250000  0.00980000  0.03190000  1
  H  H171  1  0.66730000  0.00980000  0.53190000  1
  Mn  Mn172  1  0.48875000  0.75994000  0.09710000  1
  Mn  Mn173  1  0.27119000  0.75994000  0.59710000  1
  Mn  Mn174  1  0.31582000  0.57748000  0.15917000  1
  Mn  Mn175  1  0.26166000  0.57748000  0.65917000  1
  Mn  Mn176  1  0.68418000  0.42252000  0.84083000  1
  Mn  Mn177  1  0.73834000  0.42252000  0.34083000  1
  Mn  Mn178  1  0.51125000  0.24006000  0.90290000  1
  Mn  Mn179  1  0.72881000  0.24006000  0.40290000  1
  N  N180  1  0.59983000  0.96286000  0.53194000  1
  N  N181  1  0.36303000  0.96286000  0.03194000  1
  N  N182  1  0.56397000  0.88974000  0.48941000  1
  N  N183  1  0.32577000  0.88974000  0.98941000  1
  N  N184  1  0.44653000  0.87186000  0.06106000  1
  N  N185  1  0.42533000  0.87186000  0.56106000  1
  N  N186  1  0.70806000  0.70572000  0.91359000  1
  N  N187  1  0.99766000  0.70572000  0.41359000  1
  N  N188  1  0.42386000  0.70072000  0.00083000  1
  N  N189  1  0.27686000  0.70072000  0.50083000  1
  N  N190  1  0.62429000  0.68118000  0.86539000  1
  N  N191  1  0.05689000  0.68118000  0.36539000  1
  N  N192  1  0.35193000  0.63146000  0.39412000  1
  N  N193  1  0.27953000  0.63146000  0.89412000  1
  N  N194  1  0.69491000  0.56862000  0.87888000  1
  N  N195  1  0.87371000  0.56862000  0.37888000  1
  N  N196  1  0.44681000  0.53782000  0.22270000  1
  N  N197  1  0.09101000  0.53782000  0.72270000  1
  N  N198  1  0.39308000  0.52216000  0.71180000  1
  N  N199  1  0.12908000  0.52216000  0.21180000  1
  N  N200  1  0.60692000  0.47784000  0.28820000  1
  N  N201  1  0.87092000  0.47784000  0.78820000  1
  N  N202  1  0.55319000  0.46218000  0.77730000  1
  N  N203  1  0.90899000  0.46218000  0.27730000  1
  N  N204  1  0.30509000  0.43138000  0.12112000  1
  N  N205  1  0.12629000  0.43138000  0.62112000  1
  N  N206  1  0.64807000  0.36854000  0.60588000  1
  N  N207  1  0.72047000  0.36854000  0.10588000  1
  N  N208  1  0.37571000  0.31882000  0.13461000  1
  N  N209  1  0.94311000  0.31882000  0.63461000  1
  N  N210  1  0.57614000  0.29928000  0.99917000  1
  N  N211  1  0.72314000  0.29928000  0.49917000  1
  N  N212  1  0.29194000  0.29428000  0.08641000  1
  N  N213  1  0.00234000  0.29428000  0.58641000  1
  N  N214  1  0.55347000  0.12814000  0.93894000  1
  N  N215  1  0.57467000  0.12814000  0.43894000  1
  N  N216  1  0.43603000  0.11026000  0.51059000  1
  N  N217  1  0.67423000  0.11026000  0.01059000  1
  N  N218  1  0.40017000  0.03714000  0.46806000  1
  N  N219  1  0.63697000  0.03714000  0.96806000  1
  O  O220  1  0.51704000  0.80308000  0.18492000  1
  O  O221  1  0.28604000  0.80308000  0.68492000  1
  O  O222  1  0.46046000  0.72432000  0.60421000  1
  O  O223  1  0.26386000  0.72432000  0.10421000  1
  O  O224  1  0.37022000  0.70004000  0.22045000  1
  O  O225  1  0.32982000  0.70004000  0.72045000  1
  O  O226  1  0.43962000  0.58964000  0.60964000  1
  O  O227  1  0.15002000  0.58964000  0.10964000  1
  O  O228  1  0.56038000  0.41036000  0.39036000  1
  O  O229  1  0.84998000  0.41036000  0.89036000  1
  O  O230  1  0.62978000  0.29996000  0.77955000  1
  O  O231  1  0.67018000  0.29996000  0.27955000  1
  O  O232  1  0.53954000  0.27568000  0.39579000  1
  O  O233  1  0.73614000  0.27568000  0.89579000  1
  O  O234  1  0.48296000  0.19692000  0.81508000  1
  O  O235  1  0.71396000  0.19692000  0.31508000  1
