# generated using pymatgen
data_CoH8C14SO6
_symmetry_space_group_name_H-M   'P 1'
_cell_length_a   16.70330000
_cell_length_b   17.46020000
_cell_length_c   20.01950000
_cell_angle_alpha   90.00000000
_cell_angle_beta   90.00000000
_cell_angle_gamma   100.42300000
_symmetry_Int_Tables_number   1
_chemical_formula_structural   CoH8C14SO6
_chemical_formula_sum   'Co12 H96 C168 S12 O72'
_cell_volume   5742.20393096
_cell_formula_units_Z   12
loop_
 _symmetry_equiv_pos_site_id
 _symmetry_equiv_pos_as_xyz
  1  'x, y, z'
loop_
 _atom_site_type_symbol
 _atom_site_label
 _atom_site_symmetry_multiplicity
 _atom_site_fract_x
 _atom_site_fract_y
 _atom_site_fract_z
 _atom_site_occupancy
  Co  Co0  1  0.96851000  0.74136000  0.33096000  1
  Co  Co1  1  0.90935000  0.06256000  0.64780000  1
  Co  Co2  1  0.86543000  0.54754000  0.36639000  1
  Co  Co3  1  0.63457000  0.95246000  0.86639000  1
  Co  Co4  1  0.59065000  0.43744000  0.14780000  1
  Co  Co5  1  0.53149000  0.75864000  0.83096000  1
  Co  Co6  1  0.46851000  0.24136000  0.16904000  1
  Co  Co7  1  0.40935000  0.56256000  0.85220000  1
  Co  Co8  1  0.36543000  0.04754000  0.13361000  1
  Co  Co9  1  0.13457000  0.45246000  0.63361000  1
  Co  Co10  1  0.09065000  0.93744000  0.35220000  1
  Co  Co11  1  0.03149000  0.25864000  0.66904000  1
  H  H12  1  0.99940000  0.76760000  0.49050000  1
  H  H13  1  0.99270000  0.39290000  0.32650000  1
  H  H14  1  0.98740000  0.74950000  0.03630000  1
  H  H15  1  0.98680000  0.76200000  0.15040000  1
  H  H16  1  0.97770000  0.89860000  0.74580000  1
  H  H17  1  0.97570000  0.61200000  0.87670000  1
  H  H18  1  0.97540000  0.43800000  0.21880000  1
  H  H19  1  0.96340000  0.55340000  0.57090000  1
  H  H20  1  0.96250000  0.17710000  0.40660000  1
  H  H21  1  0.93580000  0.34440000  0.84260000  1
  H  H22  1  0.91240000  0.30410000  0.05510000  1
  H  H23  1  0.89610000  0.66610000  0.75600000  1
  H  H24  1  0.89220000  0.02440000  0.45750000  1
  H  H25  1  0.89040000  0.03120000  0.97980000  1
  H  H26  1  0.88720000  0.39370000  0.93860000  1
  H  H27  1  0.88640000  0.02000000  0.86510000  1
  H  H28  1  0.85140000  0.92110000  0.78140000  1
  H  H29  1  0.83160000  0.67460000  0.93980000  1
  H  H30  1  0.81760000  0.35280000  0.63990000  1
  H  H31  1  0.79820000  0.09470000  0.12030000  1
  H  H32  1  0.79660000  0.35640000  0.07700000  1
  H  H33  1  0.79650000  0.80210000  0.40990000  1
  H  H34  1  0.76900000  0.68980000  0.78420000  1
  H  H35  1  0.76500000  0.04540000  0.49330000  1
  H  H36  1  0.73500000  0.45460000  0.99330000  1
  H  H37  1  0.73100000  0.81020000  0.28420000  1
  H  H38  1  0.70350000  0.69790000  0.90990000  1
  H  H39  1  0.70340000  0.14360000  0.57700000  1
  H  H40  1  0.70180000  0.40530000  0.62030000  1
  H  H41  1  0.68240000  0.14720000  0.13990000  1
  H  H42  1  0.66840000  0.82540000  0.43980000  1
  H  H43  1  0.64860000  0.57890000  0.28140000  1
  H  H44  1  0.61360000  0.48000000  0.36510000  1
  H  H45  1  0.61280000  0.10630000  0.43860000  1
  H  H46  1  0.60960000  0.46880000  0.47980000  1
  H  H47  1  0.60780000  0.47560000  0.95750000  1
  H  H48  1  0.60390000  0.83390000  0.25600000  1
  H  H49  1  0.58760000  0.19590000  0.55510000  1
  H  H50  1  0.56420000  0.15560000  0.34260000  1
  H  H51  1  0.53750000  0.32290000  0.90660000  1
  H  H52  1  0.53660000  0.94660000  0.07090000  1
  H  H53  1  0.52460000  0.06200000  0.71880000  1
  H  H54  1  0.52430000  0.88800000  0.37670000  1
  H  H55  1  0.52230000  0.60140000  0.24580000  1
  H  H56  1  0.51320000  0.73800000  0.65040000  1
  H  H57  1  0.51260000  0.75050000  0.53630000  1
  H  H58  1  0.50730000  0.10710000  0.82650000  1
  H  H59  1  0.50060000  0.73240000  0.99050000  1
  H  H60  1  0.49940000  0.26760000  0.00950000  1
  H  H61  1  0.49270000  0.89290000  0.17350000  1
  H  H62  1  0.48740000  0.24950000  0.46370000  1
  H  H63  1  0.48680000  0.26200000  0.34960000  1
  H  H64  1  0.47770000  0.39860000  0.75420000  1
  H  H65  1  0.47570000  0.11200000  0.62330000  1
  H  H66  1  0.47540000  0.93800000  0.28120000  1
  H  H67  1  0.46340000  0.05340000  0.92910000  1
  H  H68  1  0.46250000  0.67710000  0.09340000  1
  H  H69  1  0.43580000  0.84440000  0.65740000  1
  H  H70  1  0.41240000  0.80410000  0.44490000  1
  H  H71  1  0.39610000  0.16610000  0.74400000  1
  H  H72  1  0.39220000  0.52440000  0.04250000  1
  H  H73  1  0.39040000  0.53120000  0.52020000  1
  H  H74  1  0.38720000  0.89370000  0.56140000  1
  H  H75  1  0.38640000  0.52000000  0.63490000  1
  H  H76  1  0.35140000  0.42110000  0.71860000  1
  H  H77  1  0.33160000  0.17460000  0.56020000  1
  H  H78  1  0.31760000  0.85280000  0.86010000  1
  H  H79  1  0.29820000  0.59470000  0.37970000  1
  H  H80  1  0.29660000  0.85640000  0.42300000  1
  H  H81  1  0.29650000  0.30210000  0.09010000  1
  H  H82  1  0.26900000  0.18980000  0.71580000  1
  H  H83  1  0.26500000  0.54540000  0.00670000  1
  H  H84  1  0.23500000  0.95460000  0.50670000  1
  H  H85  1  0.23100000  0.31020000  0.21580000  1
  H  H86  1  0.20350000  0.19790000  0.59010000  1
  H  H87  1  0.20340000  0.64360000  0.92300000  1
  H  H88  1  0.20180000  0.90530000  0.87970000  1
  H  H89  1  0.18240000  0.64720000  0.36010000  1
  H  H90  1  0.16840000  0.32540000  0.06020000  1
  H  H91  1  0.14860000  0.07890000  0.21860000  1
  H  H92  1  0.11360000  0.98000000  0.13490000  1
  H  H93  1  0.11280000  0.60630000  0.06140000  1
  H  H94  1  0.10960000  0.96880000  0.02020000  1
  H  H95  1  0.10780000  0.97560000  0.54250000  1
  H  H96  1  0.10390000  0.33390000  0.24400000  1
  H  H97  1  0.08760000  0.69590000  0.94490000  1
  H  H98  1  0.06420000  0.65560000  0.15740000  1
  H  H99  1  0.03750000  0.82290000  0.59340000  1
  H  H100  1  0.03660000  0.44660000  0.42910000  1
  H  H101  1  0.02460000  0.56200000  0.78120000  1
  H  H102  1  0.02430000  0.38800000  0.12330000  1
  H  H103  1  0.02230000  0.10140000  0.25420000  1
  H  H104  1  0.01320000  0.23800000  0.84960000  1
  H  H105  1  0.01260000  0.25050000  0.96370000  1
  H  H106  1  0.00730000  0.60710000  0.67350000  1
  H  H107  1  0.00060000  0.23240000  0.50950000  1
  C  C108  1  0.99990000  0.73610000  0.52790000  1
  C  C109  1  0.99690000  0.52850000  0.81300000  1
  C  C110  1  0.99560000  0.36100000  0.36330000  1
  C  C111  1  0.98870000  0.20410000  0.94350000  1
  C  C112  1  0.98870000  0.19650000  0.87600000  1
  C  C113  1  0.98490000  0.44760000  0.80270000  1
  C  C114  1  0.98150000  0.58580000  0.25810000  1
  C  C115  1  0.97900000  0.60700000  0.57570000  1
  C  C116  1  0.97690000  0.65590000  0.52220000  1
  C  C117  1  0.97650000  0.23090000  0.41140000  1
  C  C118  1  0.97420000  0.28020000  0.35730000  1
  C  C119  1  0.96790000  0.55850000  0.86980000  1
  C  C120  1  0.95490000  0.12180000  0.77250000  1
  C  C121  1  0.95230000  0.12680000  0.84640000  1
  C  C122  1  0.95220000  0.14110000  0.98150000  1
  C  C123  1  0.94920000  0.78040000  0.74790000  1
  C  C124  1  0.94390000  0.39790000  0.84950000  1
  C  C125  1  0.94270000  0.62120000  0.45850000  1
  C  C126  1  0.93750000  0.89750000  0.40440000  1
  C  C127  1  0.93600000  0.85690000  0.75480000  1
  C  C128  1  0.92730000  0.50770000  0.91610000  1
  C  C129  1  0.91480000  0.42720000  0.90670000  1
  C  C130  1  0.91470000  0.07250000  0.95310000  1
  C  C131  1  0.91330000  0.06550000  0.88520000  1
  C  C132  1  0.88690000  0.71690000  0.76000000  1
  C  C133  1  0.86620000  0.19380000  0.08540000  1
  C  C134  1  0.86600000  0.27260000  0.07210000  1
  C  C135  1  0.86000000  0.87040000  0.77540000  1
  C  C136  1  0.85640000  0.91190000  0.42930000  1
  C  C137  1  0.84950000  0.20860000  0.62230000  1
  C  C138  1  0.84720000  0.98450000  0.45460000  1
  C  C139  1  0.81160000  0.73160000  0.77790000  1
  C  C140  1  0.79790000  0.14680000  0.11090000  1
  C  C141  1  0.79700000  0.80780000  0.78690000  1
  C  C142  1  0.79620000  0.30370000  0.08450000  1
  C  C143  1  0.79420000  0.56260000  0.96870000  1
  C  C144  1  0.78990000  0.85100000  0.42510000  1
  C  C145  1  0.78620000  0.63540000  0.94380000  1
  C  C146  1  0.78470000  0.67600000  0.30870000  1
  C  C147  1  0.77330000  0.24340000  0.60760000  1
  C  C148  1  0.77150000  0.32150000  0.62220000  1
  C  C149  1  0.77130000  0.99770000  0.47540000  1
  C  C150  1  0.72870000  0.50230000  0.97540000  1
  C  C151  1  0.72850000  0.17850000  0.12220000  1
  C  C152  1  0.72670000  0.25660000  0.10760000  1
  C  C153  1  0.71530000  0.82400000  0.80870000  1
  C  C154  1  0.71380000  0.86460000  0.44380000  1
  C  C155  1  0.71010000  0.64900000  0.92510000  1
  C  C156  1  0.70580000  0.93740000  0.46870000  1
  C  C157  1  0.70380000  0.19630000  0.58450000  1
  C  C158  1  0.70300000  0.69220000  0.28690000  1
  C  C159  1  0.70210000  0.35320000  0.61090000  1
  C  C160  1  0.68840000  0.76840000  0.27790000  1
  C  C161  1  0.65280000  0.51550000  0.95460000  1
  C  C162  1  0.65050000  0.29140000  0.12230000  1
  C  C163  1  0.64360000  0.58810000  0.92930000  1
  C  C164  1  0.64000000  0.62960000  0.27540000  1
  C  C165  1  0.63400000  0.22740000  0.57210000  1
  C  C166  1  0.63380000  0.30620000  0.58540000  1
  C  C167  1  0.61310000  0.78310000  0.26000000  1
  C  C168  1  0.58670000  0.43450000  0.38520000  1
  C  C169  1  0.58530000  0.42750000  0.45310000  1
  C  C170  1  0.58520000  0.07280000  0.40670000  1
  C  C171  1  0.57270000  0.99230000  0.41610000  1
  C  C172  1  0.56400000  0.64310000  0.25480000  1
  C  C173  1  0.56250000  0.60250000  0.90440000  1
  C  C174  1  0.55730000  0.87880000  0.95850000  1
  C  C175  1  0.55610000  0.10210000  0.34950000  1
  C  C176  1  0.55080000  0.71960000  0.24790000  1
  C  C177  1  0.54780000  0.35890000  0.48150000  1
  C  C178  1  0.54770000  0.37320000  0.34640000  1
  C  C179  1  0.54510000  0.37820000  0.27250000  1
  C  C180  1  0.53210000  0.94150000  0.36980000  1
  C  C181  1  0.52580000  0.21980000  0.85730000  1
  C  C182  1  0.52350000  0.26910000  0.91140000  1
  C  C183  1  0.52310000  0.84410000  0.02220000  1
  C  C184  1  0.52100000  0.89300000  0.07570000  1
  C  C185  1  0.51850000  0.91420000  0.75810000  1
  C  C186  1  0.51510000  0.05240000  0.30270000  1
  C  C187  1  0.51130000  0.29590000  0.44350000  1
  C  C188  1  0.51130000  0.30350000  0.37600000  1
  C  C189  1  0.50440000  0.13900000  0.86330000  1
  C  C190  1  0.50310000  0.97150000  0.31300000  1
  C  C191  1  0.50010000  0.76390000  0.02790000  1
  C  C192  1  0.49990000  0.23610000  0.97210000  1
  C  C193  1  0.49690000  0.02850000  0.68700000  1
  C  C194  1  0.49560000  0.86100000  0.13670000  1
  C  C195  1  0.48870000  0.69650000  0.62400000  1
  C  C196  1  0.48870000  0.70410000  0.55650000  1
  C  C197  1  0.48490000  0.94760000  0.69730000  1
  C  C198  1  0.48150000  0.08580000  0.24190000  1
  C  C199  1  0.47900000  0.10700000  0.92430000  1
  C  C200  1  0.47690000  0.15590000  0.97780000  1
  C  C201  1  0.47650000  0.73090000  0.08860000  1
  C  C202  1  0.47420000  0.78020000  0.14270000  1
  C  C203  1  0.46790000  0.05850000  0.63020000  1
  C  C204  1  0.45490000  0.62180000  0.72750000  1
  C  C205  1  0.45230000  0.62680000  0.65360000  1
  C  C206  1  0.45220000  0.64110000  0.51850000  1
  C  C207  1  0.44920000  0.28040000  0.75210000  1
  C  C208  1  0.44390000  0.89790000  0.65050000  1
  C  C209  1  0.44270000  0.12120000  0.04150000  1
  C  C210  1  0.43750000  0.39750000  0.09560000  1
  C  C211  1  0.43600000  0.35690000  0.74520000  1
  C  C212  1  0.42730000  0.00770000  0.58390000  1
  C  C213  1  0.41480000  0.92720000  0.59330000  1
  C  C214  1  0.41470000  0.57250000  0.54690000  1
  C  C215  1  0.41330000  0.56550000  0.61480000  1
  C  C216  1  0.38690000  0.21690000  0.74000000  1
  C  C217  1  0.36620000  0.69380000  0.41460000  1
  C  C218  1  0.36600000  0.77260000  0.42790000  1
  C  C219  1  0.36000000  0.37040000  0.72460000  1
  C  C220  1  0.35640000  0.41190000  0.07070000  1
  C  C221  1  0.34950000  0.70860000  0.87770000  1
  C  C222  1  0.34720000  0.48450000  0.04540000  1
  C  C223  1  0.31160000  0.23160000  0.72210000  1
  C  C224  1  0.29790000  0.64680000  0.38910000  1
  C  C225  1  0.29700000  0.30780000  0.71310000  1
  C  C226  1  0.29620000  0.80370000  0.41550000  1
  C  C227  1  0.29420000  0.06260000  0.53130000  1
  C  C228  1  0.28990000  0.35100000  0.07490000  1
  C  C229  1  0.28620000  0.13540000  0.55620000  1
  C  C230  1  0.28470000  0.17600000  0.19130000  1
  C  C231  1  0.27330000  0.74340000  0.89240000  1
  C  C232  1  0.27150000  0.82150000  0.87780000  1
  C  C233  1  0.27130000  0.49770000  0.02460000  1
  C  C234  1  0.22870000  0.00230000  0.52460000  1
  C  C235  1  0.22850000  0.67850000  0.37780000  1
  C  C236  1  0.22670000  0.75660000  0.39240000  1
  C  C237  1  0.21530000  0.32400000  0.69130000  1
  C  C238  1  0.21380000  0.36460000  0.05620000  1
  C  C239  1  0.21010000  0.14900000  0.57490000  1
  C  C240  1  0.20580000  0.43740000  0.03130000  1
  C  C241  1  0.20380000  0.69630000  0.91550000  1
  C  C242  1  0.20300000  0.19220000  0.21310000  1
  C  C243  1  0.20210000  0.85320000  0.88910000  1
  C  C244  1  0.18840000  0.26840000  0.22210000  1
  C  C245  1  0.15280000  0.01550000  0.54540000  1
  C  C246  1  0.15050000  0.79140000  0.37770000  1
  C  C247  1  0.14360000  0.08810000  0.57070000  1
  C  C248  1  0.14000000  0.12960000  0.22460000  1
  C  C249  1  0.13400000  0.72740000  0.92790000  1
  C  C250  1  0.13380000  0.80620000  0.91460000  1
  C  C251  1  0.11310000  0.28310000  0.24000000  1
  C  C252  1  0.08670000  0.93450000  0.11480000  1
  C  C253  1  0.08530000  0.92750000  0.04690000  1
  C  C254  1  0.08520000  0.57280000  0.09330000  1
  C  C255  1  0.07270000  0.49230000  0.08390000  1
  C  C256  1  0.06400000  0.14310000  0.24520000  1
  C  C257  1  0.06250000  0.10250000  0.59560000  1
  C  C258  1  0.05730000  0.37880000  0.54150000  1
  C  C259  1  0.05610000  0.60210000  0.15050000  1
  C  C260  1  0.05080000  0.21960000  0.25210000  1
  C  C261  1  0.04780000  0.85890000  0.01850000  1
  C  C262  1  0.04770000  0.87320000  0.15360000  1
  C  C263  1  0.04510000  0.87820000  0.22750000  1
  C  C264  1  0.03210000  0.44150000  0.13020000  1
  C  C265  1  0.02580000  0.71980000  0.64270000  1
  C  C266  1  0.02350000  0.76910000  0.58860000  1
  C  C267  1  0.02310000  0.34410000  0.47780000  1
  C  C268  1  0.02100000  0.39300000  0.42430000  1
  C  C269  1  0.01850000  0.41420000  0.74190000  1
  C  C270  1  0.01510000  0.55240000  0.19730000  1
  C  C271  1  0.01130000  0.80350000  0.12400000  1
  C  C272  1  0.01130000  0.79590000  0.05650000  1
  C  C273  1  0.00440000  0.63900000  0.63670000  1
  C  C274  1  0.00310000  0.47150000  0.18700000  1
  C  C275  1  0.00010000  0.26390000  0.47210000  1
  S  S276  1  0.95469000  0.15249000  0.06903000  1
  S  S277  1  0.95430000  0.23844000  0.27764000  1
  S  S278  1  0.89254000  0.54455000  0.98977000  1
  S  S279  1  0.60746000  0.95545000  0.48977000  1
  S  S280  1  0.54570000  0.26156000  0.77764000  1
  S  S281  1  0.54531000  0.34751000  0.56903000  1
  S  S282  1  0.45469000  0.65249000  0.43097000  1
  S  S283  1  0.45430000  0.73844000  0.22236000  1
  S  S284  1  0.39254000  0.04455000  0.51023000  1
  S  S285  1  0.10746000  0.45545000  0.01023000  1
  S  S286  1  0.04570000  0.76156000  0.72236000  1
  S  S287  1  0.04531000  0.84751000  0.93097000  1
  O  O288  1  0.99740000  0.82720000  0.25750000  1
  O  O289  1  0.99040000  0.95770000  0.39310000  1
  O  O290  1  0.98590000  0.65890000  0.26090000  1
  O  O291  1  0.97540000  0.78920000  0.91490000  1
  O  O292  1  0.94890000  0.82830000  0.39740000  1
  O  O293  1  0.94850000  0.53580000  0.29930000  1
  O  O294  1  0.94430000  0.07610000  0.09850000  1
  O  O295  1  0.94260000  0.61910000  0.00440000  1
  O  O296  1  0.93960000  0.66030000  0.40800000  1
  O  O297  1  0.93060000  0.29750000  0.23520000  1
  O  O298  1  0.90980000  0.06460000  0.74480000  1
  O  O299  1  0.90910000  0.25330000  0.64420000  1
  O  O300  1  0.90910000  0.54950000  0.45750000  1
  O  O301  1  0.90110000  0.16390000  0.28480000  1
  O  O302  1  0.88380000  0.48260000  0.03830000  1
  O  O303  1  0.84450000  0.13580000  0.61090000  1
  O  O304  1  0.84410000  0.73060000  0.30660000  1
  O  O305  1  0.78570000  0.60540000  0.32720000  1
  O  O306  1  0.71430000  0.89460000  0.82720000  1
  O  O307  1  0.65590000  0.76940000  0.80660000  1
  O  O308  1  0.65550000  0.36420000  0.11090000  1
  O  O309  1  0.61620000  0.01740000  0.53830000  1
  O  O310  1  0.59890000  0.33610000  0.78480000  1
  O  O311  1  0.59090000  0.95050000  0.95750000  1
  O  O312  1  0.59090000  0.24670000  0.14420000  1
  O  O313  1  0.59020000  0.43540000  0.24480000  1
  O  O314  1  0.56940000  0.20250000  0.73520000  1
  O  O315  1  0.56040000  0.83970000  0.90800000  1
  O  O316  1  0.55740000  0.88090000  0.50440000  1
  O  O317  1  0.55570000  0.42390000  0.59850000  1
  O  O318  1  0.55150000  0.96420000  0.79930000  1
  O  O319  1  0.55110000  0.67170000  0.89740000  1
  O  O320  1  0.52460000  0.71080000  0.41490000  1
  O  O321  1  0.51410000  0.84110000  0.76090000  1
  O  O322  1  0.50960000  0.54230000  0.89310000  1
  O  O323  1  0.50260000  0.67280000  0.75750000  1
  O  O324  1  0.49740000  0.32720000  0.24250000  1
  O  O325  1  0.49040000  0.45770000  0.10690000  1
  O  O326  1  0.48590000  0.15890000  0.23910000  1
  O  O327  1  0.47540000  0.28920000  0.58510000  1
  O  O328  1  0.44890000  0.32830000  0.10260000  1
  O  O329  1  0.44850000  0.03580000  0.20070000  1
  O  O330  1  0.44430000  0.57610000  0.40150000  1
  O  O331  1  0.44260000  0.11910000  0.49560000  1
  O  O332  1  0.43960000  0.16030000  0.09200000  1
  O  O333  1  0.43060000  0.79750000  0.26480000  1
  O  O334  1  0.40980000  0.56460000  0.75520000  1
  O  O335  1  0.40910000  0.75330000  0.85580000  1
  O  O336  1  0.40910000  0.04950000  0.04250000  1
  O  O337  1  0.40110000  0.66390000  0.21520000  1
  O  O338  1  0.38380000  0.98260000  0.46170000  1
  O  O339  1  0.34450000  0.63580000  0.88910000  1
  O  O340  1  0.34410000  0.23060000  0.19340000  1
  O  O341  1  0.28570000  0.10540000  0.17280000  1
  O  O342  1  0.21430000  0.39460000  0.67280000  1
  O  O343  1  0.15590000  0.26940000  0.69340000  1
  O  O344  1  0.15550000  0.86420000  0.38910000  1
  O  O345  1  0.11620000  0.51740000  0.96170000  1
  O  O346  1  0.09890000  0.83610000  0.71520000  1
  O  O347  1  0.09090000  0.45050000  0.54250000  1
  O  O348  1  0.09090000  0.74670000  0.35580000  1
  O  O349  1  0.09020000  0.93540000  0.25520000  1
  O  O350  1  0.06940000  0.70250000  0.76480000  1
  O  O351  1  0.06040000  0.33970000  0.59200000  1
  O  O352  1  0.05740000  0.38090000  0.99560000  1
  O  O353  1  0.05570000  0.92390000  0.90150000  1
  O  O354  1  0.05150000  0.46420000  0.70070000  1
  O  O355  1  0.05110000  0.17170000  0.60260000  1
  O  O356  1  0.02460000  0.21080000  0.08510000  1
  O  O357  1  0.01410000  0.34110000  0.73910000  1
  O  O358  1  0.00960000  0.04230000  0.60690000  1
  O  O359  1  0.00260000  0.17280000  0.74250000  1
