# generated using pymatgen
data_CeH12(C7O2)3
_symmetry_space_group_name_H-M   'P 1'
_cell_length_a   8.78900000
_cell_length_b   14.25700000
_cell_length_c   15.10917186
_cell_angle_alpha   114.93204961
_cell_angle_beta   106.90864893
_cell_angle_gamma   90.00000000
_symmetry_Int_Tables_number   1
_chemical_formula_structural   CeH12(C7O2)3
_chemical_formula_sum   'Ce2 H24 C42 O12'
_cell_volume   1626.11405606
_cell_formula_units_Z   2
loop_
 _symmetry_equiv_pos_site_id
 _symmetry_equiv_pos_as_xyz
  1  'x, y, z'
loop_
 _atom_site_type_symbol
 _atom_site_label
 _atom_site_symmetry_multiplicity
 _atom_site_fract_x
 _atom_site_fract_y
 _atom_site_fract_z
 _atom_site_occupancy
  Ce  Ce0  1  0.95861000  0.99499000  0.45346000  1
  Ce  Ce1  1  0.50515000  0.00501000  0.54654000  1
  H  H2  1  0.56950000  0.60450000  0.51780000  1
  H  H3  1  0.58800000  0.76460000  0.51300000  1
  H  H4  1  0.39180000  0.71530000  0.22120000  1
  H  H5  1  0.32390000  0.56660000  0.07000000  1
  H  H6  1  0.25390000  0.43340000  0.93000000  1
  H  H7  1  0.17060000  0.28470000  0.77880000  1
  H  H8  1  0.67770000  0.46930000  0.25680000  1
  H  H9  1  0.77520000  0.20090000  0.33280000  1
  H  H10  1  0.98240000  0.55690000  0.53320000  1
  H  H11  1  0.97210000  0.71330000  0.51980000  1
  H  H12  1  0.77220000  0.36020000  0.31900000  1
  H  H13  1  0.71770000  0.63640000  0.26080000  1
  H  H14  1  0.05170000  0.39550000  0.48220000  1
  H  H15  1  0.07500000  0.23540000  0.48700000  1
  H  H16  1  0.42090000  0.53070000  0.74320000  1
  H  H17  1  0.45690000  0.36360000  0.73920000  1
  H  H18  1  0.93630000  0.72110000  0.21140000  1
  H  H19  1  0.45320000  0.63980000  0.68100000  1
  H  H20  1  0.44240000  0.79910000  0.66720000  1
  H  H21  1  0.86200000  0.57720000  0.05400000  1
  H  H22  1  0.80800000  0.42280000  0.94600000  1
  H  H23  1  0.72490000  0.27890000  0.78860000  1
  H  H24  1  0.45230000  0.28670000  0.48020000  1
  H  H25  1  0.44920000  0.44310000  0.46680000  1
  C  C26  1  0.83190000  0.30950000  0.81740000  1
  C  C27  1  0.07780000  0.54770000  0.04840000  1
  C  C28  1  0.51950000  0.30180000  0.44900000  1
  C  C29  1  0.51660000  0.39620000  0.44100000  1
  C  C30  1  0.02940000  0.45230000  0.95160000  1
  C  C31  1  0.28440000  0.68580000  0.18860000  1
  C  C32  1  0.59760000  0.60940000  0.46500000  1
  C  C33  1  0.24540000  0.59620000  0.09880000  1
  C  C34  1  0.61310000  0.70630000  0.46400000  1
  C  C35  1  0.94130000  0.26570000  0.76700000  1
  C  C36  1  0.62170000  0.13280000  0.42620000  1
  C  C37  1  0.61630000  0.23190000  0.41320000  1
  C  C38  1  0.89070000  0.16660000  0.67080000  1
  C  C39  1  0.61490000  0.41830000  0.39420000  1
  C  C40  1  0.62290000  0.52250000  0.39020000  1
  C  C41  1  0.14660000  0.40380000  0.90120000  1
  C  C42  1  0.66580000  0.71550000  0.38980000  1
  C  C43  1  0.09580000  0.31420000  0.81140000  1
  C  C44  1  0.71130000  0.82280000  0.39820000  1
  C  C45  1  0.71200000  0.24980000  0.36120000  1
  C  C46  1  0.66490000  0.52910000  0.31040000  1
  C  C47  1  0.70910000  0.34600000  0.35300000  1
  C  C48  1  0.68790000  0.63010000  0.31260000  1
  C  C49  1  0.07560000  0.60380000  0.55900000  1
  C  C50  1  0.07050000  0.69820000  0.55100000  1
  C  C51  1  0.13260000  0.39060000  0.53500000  1
  C  C52  1  0.14910000  0.29370000  0.53600000  1
  C  C53  1  0.22070000  0.58170000  0.60580000  1
  C  C54  1  0.20310000  0.76810000  0.58680000  1
  C  C55  1  0.19550000  0.86720000  0.57380000  1
  C  C56  1  0.23270000  0.47750000  0.60980000  1
  C  C57  1  0.35450000  0.47090000  0.68960000  1
  C  C58  1  0.27600000  0.28450000  0.61020000  1
  C  C59  1  0.37530000  0.36990000  0.68740000  1
  C  C60  1  0.35610000  0.65400000  0.64700000  1
  C  C61  1  0.31310000  0.17720000  0.60180000  1
  C  C62  1  0.35080000  0.75020000  0.63880000  1
  C  C63  1  0.01450000  0.69050000  0.18260000  1
  C  C64  1  0.97080000  0.60110000  0.08960000  1
  C  C65  1  0.21990000  0.83340000  0.32920000  1
  C  C66  1  0.17430000  0.73430000  0.23300000  1
  C  C67  1  0.88120000  0.39890000  0.91040000  1
  O  O68  1  0.50930000  0.10350000  0.44820000  1
  O  O69  1  0.75120000  0.12280000  0.63900000  1
  O  O70  1  0.70900000  0.90240000  0.47660000  1
  O  O71  1  0.73790000  0.08540000  0.41440000  1
  O  O72  1  0.99130000  0.13100000  0.62640000  1
  O  O73  1  0.76250000  0.82830000  0.33180000  1
  O  O74  1  0.06110000  0.89650000  0.55180000  1
  O  O75  1  0.23240000  0.09760000  0.52340000  1
  O  O76  1  0.32350000  0.91460000  0.58560000  1
  O  O77  1  0.11220000  0.87720000  0.36100000  1
  O  O78  1  0.43070000  0.17170000  0.66820000  1
  O  O79  1  0.36490000  0.86900000  0.37360000  1
