# generated using pymatgen
data_Cd2SiH16(C7O2)4
_symmetry_space_group_name_H-M   'P 1'
_cell_length_a   12.91606053
_cell_length_b   14.18690000
_cell_length_c   14.86230000
_cell_angle_alpha   116.42900000
_cell_angle_beta   113.52614408
_cell_angle_gamma   94.24836813
_symmetry_Int_Tables_number   1
_chemical_formula_structural   Cd2SiH16(C7O2)4
_chemical_formula_sum   'Cd4 Si2 H32 C56 O16'
_cell_volume   2128.31370869
_cell_formula_units_Z   2
loop_
 _symmetry_equiv_pos_site_id
 _symmetry_equiv_pos_as_xyz
  1  'x, y, z'
loop_
 _atom_site_type_symbol
 _atom_site_label
 _atom_site_symmetry_multiplicity
 _atom_site_fract_x
 _atom_site_fract_y
 _atom_site_fract_z
 _atom_site_occupancy
  Cd  Cd0  1  1.00000000  1.00000000  0.50000000  1
  Cd  Cd1  1  0.06406000  0.31406000  0.62812000  1
  Cd  Cd2  1  1.00000000  0.50000000  0.50000000  1
  Cd  Cd3  1  0.93594000  0.68594000  0.37188000  1
  Si  Si4  1  0.70678000  0.95678000  0.91356000  1
  Si  Si5  1  0.29322000  0.04322000  0.08644000  1
  H  H6  1  0.26590000  0.28550000  0.42620000  1
  H  H7  1  0.17450000  0.21340000  0.07780000  1
  H  H8  1  0.97520000  0.01700000  0.77260000  1
  H  H9  1  0.66470000  0.76220000  0.70460000  1
  H  H10  1  0.77360000  0.92670000  0.24560000  1
  H  H11  1  0.90410000  0.06460000  0.90240000  1
  H  H12  1  0.10420000  0.27700000  0.95220000  1
  H  H13  1  0.91760000  0.12830000  0.12080000  1
  H  H14  1  0.70320000  0.99250000  0.12080000  1
  H  H15  1  0.34800000  0.67520000  0.95220000  1
  H  H16  1  0.49830000  0.83780000  0.90240000  1
  H  H17  1  0.97200000  0.31890000  0.24560000  1
  H  H18  1  0.53990000  0.94240000  0.70460000  1
  H  H19  1  0.29740000  0.75560000  0.77260000  1
  H  H20  1  0.40330000  0.86440000  0.07780000  1
  H  H21  1  0.66030000  0.14070000  0.42620000  1
  H  H22  1  0.33970000  0.85930000  0.57380000  1
  H  H23  1  0.59670000  0.13560000  0.92220000  1
  H  H24  1  0.70260000  0.24440000  0.22740000  1
  H  H25  1  0.46010000  0.05760000  0.29540000  1
  H  H26  1  0.02800000  0.68110000  0.75440000  1
  H  H27  1  0.50170000  0.16220000  0.09760000  1
  H  H28  1  0.65200000  0.32480000  0.04780000  1
  H  H29  1  0.29680000  0.00750000  0.87920000  1
  H  H30  1  0.08240000  0.87170000  0.87920000  1
  H  H31  1  0.89580000  0.72300000  0.04780000  1
  H  H32  1  0.09590000  0.93540000  0.09760000  1
  H  H33  1  0.22640000  0.07330000  0.75440000  1
  H  H34  1  0.33530000  0.23780000  0.29540000  1
  H  H35  1  0.02480000  0.98300000  0.22740000  1
  H  H36  1  0.82550000  0.78660000  0.92220000  1
  H  H37  1  0.73410000  0.71450000  0.57380000  1
  C  C38  1  0.81505000  0.81615000  0.98810000  1
  C  C39  1  0.85945000  0.86252000  0.65870000  1
  C  C40  1  0.76832000  0.78642000  0.64024000  1
  C  C41  1  0.15948000  0.18163000  0.84236000  1
  C  C42  1  0.91054000  0.96514000  0.75748000  1
  C  C43  1  0.09723000  0.16606000  0.42766000  1
  C  C44  1  0.14359000  0.22236000  0.93758000  1
  C  C45  1  0.72728000  0.81528000  0.71856000  1
  C  C46  1  0.11049000  0.22038000  0.75898000  1
  C  C47  1  0.78405000  0.89850000  0.17970000  1
  C  C48  1  0.86810000  0.99300000  0.83500000  1
  C  C49  1  0.75813000  0.89789000  0.00804000  1
  C  C50  1  0.77471000  0.91984000  0.81738000  1
  C  C51  1  0.74252000  0.93792000  0.10544000  1
  C  C52  1  0.86292000  0.16752000  0.10544000  1
  C  C53  1  0.54267000  0.89754000  0.81738000  1
  C  C54  1  0.74991000  0.11015000  0.00804000  1
  C  C55  1  0.46690000  0.84200000  0.83500000  1
  C  C56  1  0.89565000  0.28120000  0.17970000  1
  C  C57  1  0.14849000  0.53860000  0.75898000  1
  C  C58  1  0.49128000  0.90328000  0.71856000  1
  C  C59  1  0.29399000  0.71522000  0.93758000  1
  C  C60  1  0.83043000  0.26160000  0.42766000  1
  C  C61  1  0.34694000  0.79234000  0.75748000  1
  C  C62  1  0.18288000  0.66073000  0.84236000  1
  C  C63  1  0.37192000  0.85382000  0.64024000  1
  C  C64  1  0.29925000  0.79618000  0.65870000  1
  C  C65  1  0.67305000  0.17195000  0.98810000  1
  C  C66  1  0.32695000  0.82805000  0.01190000  1
  C  C67  1  0.70075000  0.20382000  0.34130000  1
  C  C68  1  0.62808000  0.14618000  0.35976000  1
  C  C69  1  0.81712000  0.33927000  0.15764000  1
  C  C70  1  0.65306000  0.20766000  0.24252000  1
  C  C71  1  0.16957000  0.73840000  0.57234000  1
  C  C72  1  0.70601000  0.28478000  0.06242000  1
  C  C73  1  0.50872000  0.09672000  0.28144000  1
  C  C74  1  0.85151000  0.46140000  0.24102000  1
  C  C75  1  0.10435000  0.71880000  0.82030000  1
  C  C76  1  0.53310000  0.15800000  0.16500000  1
  C  C77  1  0.25009000  0.88985000  0.99196000  1
  C  C78  1  0.45733000  0.10246000  0.18262000  1
  C  C79  1  0.13708000  0.83248000  0.89456000  1
  C  C80  1  0.25748000  0.06208000  0.89456000  1
  C  C81  1  0.22529000  0.08016000  0.18262000  1
  C  C82  1  0.24187000  0.10211000  0.99196000  1
  C  C83  1  0.13190000  0.00700000  0.16500000  1
  C  C84  1  0.21595000  0.10150000  0.82030000  1
  C  C85  1  0.88951000  0.77962000  0.24102000  1
  C  C86  1  0.27272000  0.18472000  0.28144000  1
  C  C87  1  0.85641000  0.77764000  0.06242000  1
  C  C88  1  0.90277000  0.83394000  0.57234000  1
  C  C89  1  0.08946000  0.03486000  0.24252000  1
  C  C90  1  0.84052000  0.81837000  0.15764000  1
  C  C91  1  0.23168000  0.21358000  0.35976000  1
  C  C92  1  0.14055000  0.13748000  0.34130000  1
  C  C93  1  0.18495000  0.18385000  0.01190000  1
  O  O94  1  0.11357000  0.17282000  0.66552000  1
  O  O95  1  0.02366000  0.09293000  0.41418000  1
  O  O96  1  0.14131000  0.26683000  0.51170000  1
  O  O97  1  0.07143000  0.30114000  0.78466000  1
  O  O98  1  0.21323000  0.48352000  0.78466000  1
  O  O99  1  0.87039000  0.24487000  0.51170000  1
  O  O100  1  0.89052000  0.32125000  0.41418000  1
  O  O101  1  0.05195000  0.49270000  0.66552000  1
  O  O102  1  0.94805000  0.50730000  0.33448000  1
  O  O103  1  0.10948000  0.67875000  0.58582000  1
  O  O104  1  0.12961000  0.75513000  0.48830000  1
  O  O105  1  0.78677000  0.51648000  0.21534000  1
  O  O106  1  0.92857000  0.69886000  0.21534000  1
  O  O107  1  0.85869000  0.73317000  0.48830000  1
  O  O108  1  0.97634000  0.90707000  0.58582000  1
  O  O109  1  0.88643000  0.82718000  0.33448000  1
