# generated using pymatgen
data_CoH2(C3O2)2
_symmetry_space_group_name_H-M   'P 1'
_cell_length_a   10.10700000
_cell_length_b   10.25800000
_cell_length_c   16.27600000
_cell_angle_alpha   90.00000000
_cell_angle_beta   95.38000000
_cell_angle_gamma   90.00000000
_symmetry_Int_Tables_number   1
_chemical_formula_structural   CoH2(C3O2)2
_chemical_formula_sum   'Co6 H12 C36 O24'
_cell_volume   1680.02305322
_cell_formula_units_Z   6
loop_
 _symmetry_equiv_pos_site_id
 _symmetry_equiv_pos_as_xyz
  1  'x, y, z'
loop_
 _atom_site_type_symbol
 _atom_site_label
 _atom_site_symmetry_multiplicity
 _atom_site_fract_x
 _atom_site_fract_y
 _atom_site_fract_z
 _atom_site_occupancy
  Co  Co0  1  0.00000000  0.00000000  0.00000000  1
  Co  Co1  1  0.00000000  0.50000000  0.50000000  1
  Co  Co2  1  0.22700000  0.24604000  0.07763000  1
  Co  Co3  1  0.22700000  0.25396000  0.57763000  1
  Co  Co4  1  0.77300000  0.74604000  0.42237000  1
  Co  Co5  1  0.77300000  0.75396000  0.92237000  1
  H  H6  1  0.05060000  0.64070000  0.75030000  1
  H  H7  1  0.05060000  0.85930000  0.25030000  1
  H  H8  1  0.32480000  0.72530000  0.42290000  1
  H  H9  1  0.32480000  0.77470000  0.92290000  1
  H  H10  1  0.43640000  0.55680000  0.73680000  1
  H  H11  1  0.43640000  0.94320000  0.23680000  1
  H  H12  1  0.56360000  0.05680000  0.76320000  1
  H  H13  1  0.56360000  0.44320000  0.26320000  1
  H  H14  1  0.67520000  0.22530000  0.07710000  1
  H  H15  1  0.67520000  0.27470000  0.57710000  1
  H  H16  1  0.94940000  0.14070000  0.74970000  1
  H  H17  1  0.94940000  0.35930000  0.24970000  1
  C  C18  1  0.06420000  0.72020000  0.38970000  1
  C  C19  1  0.06420000  0.77980000  0.88970000  1
  C  C20  1  0.13890000  0.64800000  0.77160000  1
  C  C21  1  0.13890000  0.85200000  0.27160000  1
  C  C22  1  0.17030000  0.71700000  0.84410000  1
  C  C23  1  0.17030000  0.78300000  0.34410000  1
  C  C24  1  0.20110000  0.51610000  0.65210000  1
  C  C25  1  0.20110000  0.98390000  0.15210000  1
  C  C26  1  0.23770000  0.58970000  0.73040000  1
  C  C27  1  0.23770000  0.91030000  0.23040000  1
  C  C28  1  0.30280000  0.72780000  0.87470000  1
  C  C29  1  0.30280000  0.77220000  0.37470000  1
  C  C30  1  0.37020000  0.59850000  0.76300000  1
  C  C31  1  0.37020000  0.90150000  0.26300000  1
  C  C32  1  0.40300000  0.67000000  0.83470000  1
  C  C33  1  0.40300000  0.83000000  0.33470000  1
  C  C34  1  0.45460000  0.18760000  0.63240000  1
  C  C35  1  0.45460000  0.31240000  0.13240000  1
  C  C36  1  0.54540000  0.68760000  0.86760000  1
  C  C37  1  0.54540000  0.81240000  0.36760000  1
  C  C38  1  0.59700000  0.17000000  0.66530000  1
  C  C39  1  0.59700000  0.33000000  0.16530000  1
  C  C40  1  0.62980000  0.09850000  0.73700000  1
  C  C41  1  0.62980000  0.40150000  0.23700000  1
  C  C42  1  0.69720000  0.22780000  0.62530000  1
  C  C43  1  0.69720000  0.27220000  0.12530000  1
  C  C44  1  0.76230000  0.08970000  0.76960000  1
  C  C45  1  0.76230000  0.41030000  0.26960000  1
  C  C46  1  0.79890000  0.01610000  0.84790000  1
  C  C47  1  0.79890000  0.48390000  0.34790000  1
  C  C48  1  0.82970000  0.21700000  0.65590000  1
  C  C49  1  0.82970000  0.28300000  0.15590000  1
  C  C50  1  0.86110000  0.14800000  0.72840000  1
  C  C51  1  0.86110000  0.35200000  0.22840000  1
  C  C52  1  0.93580000  0.22020000  0.11030000  1
  C  C53  1  0.93580000  0.27980000  0.61030000  1
  O  O54  1  0.05320000  0.24660000  0.63110000  1
  O  O55  1  0.05320000  0.25340000  0.13110000  1
  O  O56  1  0.09400000  0.55020000  0.61210000  1
  O  O57  1  0.09400000  0.94980000  0.11210000  1
  O  O58  1  0.10320000  0.63920000  0.44450000  1
  O  O59  1  0.10320000  0.86080000  0.94450000  1
  O  O60  1  0.27950000  0.07140000  0.13330000  1
  O  O61  1  0.27950000  0.42860000  0.63330000  1
  O  O62  1  0.36290000  0.16140000  0.67650000  1
  O  O63  1  0.36290000  0.33860000  0.17650000  1
  O  O64  1  0.43050000  0.23230000  0.56040000  1
  O  O65  1  0.43050000  0.26770000  0.06040000  1
  O  O66  1  0.56950000  0.73230000  0.93960000  1
  O  O67  1  0.56950000  0.76770000  0.43960000  1
  O  O68  1  0.63710000  0.66140000  0.82350000  1
  O  O69  1  0.63710000  0.83860000  0.32350000  1
  O  O70  1  0.72050000  0.57140000  0.36670000  1
  O  O71  1  0.72050000  0.92860000  0.86670000  1
  O  O72  1  0.89680000  0.13920000  0.05550000  1
  O  O73  1  0.89680000  0.36080000  0.55550000  1
  O  O74  1  0.90600000  0.05020000  0.88790000  1
  O  O75  1  0.90600000  0.44980000  0.38790000  1
  O  O76  1  0.94680000  0.74660000  0.86890000  1
  O  O77  1  0.94680000  0.75340000  0.36890000  1
