# generated using pymatgen
data_ZnH11C9(NO)2
_symmetry_space_group_name_H-M   'P 1'
_cell_length_a   9.77600000
_cell_length_b   12.48700000
_cell_length_c   12.48700000
_cell_angle_alpha   90.00000000
_cell_angle_beta   90.00000000
_cell_angle_gamma   90.00000000
_symmetry_Int_Tables_number   1
_chemical_formula_structural   ZnH11C9(NO)2
_chemical_formula_sum   'Zn4 H44 C36 N8 O8'
_cell_volume   1524.32445214
_cell_formula_units_Z   4
loop_
 _symmetry_equiv_pos_site_id
 _symmetry_equiv_pos_as_xyz
  1  'x, y, z'
loop_
 _atom_site_type_symbol
 _atom_site_label
 _atom_site_symmetry_multiplicity
 _atom_site_fract_x
 _atom_site_fract_y
 _atom_site_fract_z
 _atom_site_occupancy
  Zn  Zn0  1  0.77790000  0.01580000  0.59020000  1
  Zn  Zn1  1  0.52790000  0.40980000  0.01580000  1
  Zn  Zn2  1  0.02790000  0.59020000  0.98420000  1
  Zn  Zn3  1  0.27790000  0.98420000  0.40980000  1
  H  H4  1  0.66260000  0.02760000  0.42070000  1
  H  H5  1  0.22210000  0.06060000  0.73370000  1
  H  H6  1  0.88730000  0.06990000  0.30900000  1
  H  H7  1  0.36190000  0.10320000  0.74030000  1
  H  H8  1  0.28610000  0.13540000  0.64620000  1
  H  H9  1  0.52560000  0.14460000  0.31670000  1
  H  H10  1  0.02360000  0.15570000  0.58260000  1
  H  H11  1  0.69390000  0.16210000  0.77460000  1
  H  H12  1  0.68100000  0.21310000  0.48020000  1
  H  H13  1  0.83180000  0.21620000  0.43990000  1
  H  H14  1  0.44390000  0.22540000  0.16210000  1
  H  H15  1  0.11190000  0.25970000  0.10320000  1
  H  H16  1  0.97210000  0.26630000  0.06060000  1
  H  H17  1  0.13730000  0.30900000  0.93010000  1
  H  H18  1  0.10530000  0.31030000  0.66340000  1
  H  H19  1  0.77560000  0.31670000  0.85540000  1
  H  H20  1  0.85530000  0.33660000  0.31030000  1
  H  H21  1  0.03610000  0.35380000  0.13540000  1
  H  H22  1  0.77360000  0.41740000  0.15570000  1
  H  H23  1  0.91260000  0.42070000  0.97240000  1
  H  H24  1  0.08180000  0.43990000  0.78380000  1
  H  H25  1  0.93100000  0.48020000  0.78690000  1
  H  H26  1  0.43100000  0.51980000  0.21310000  1
  H  H27  1  0.58180000  0.56010000  0.21620000  1
  H  H28  1  0.41260000  0.57930000  0.02760000  1
  H  H29  1  0.27360000  0.58260000  0.84430000  1
  H  H30  1  0.53610000  0.64620000  0.86460000  1
  H  H31  1  0.35530000  0.66340000  0.68970000  1
  H  H32  1  0.27560000  0.68330000  0.14460000  1
  H  H33  1  0.60530000  0.68970000  0.33660000  1
  H  H34  1  0.63730000  0.69100000  0.06990000  1
  H  H35  1  0.47210000  0.73370000  0.93940000  1
  H  H36  1  0.61190000  0.74030000  0.89680000  1
  H  H37  1  0.94390000  0.77460000  0.83790000  1
  H  H38  1  0.33180000  0.78380000  0.56010000  1
  H  H39  1  0.18100000  0.78690000  0.51980000  1
  H  H40  1  0.19390000  0.83790000  0.22540000  1
  H  H41  1  0.52360000  0.84430000  0.41740000  1
  H  H42  1  0.02560000  0.85540000  0.68330000  1
  H  H43  1  0.78610000  0.86460000  0.35380000  1
  H  H44  1  0.86190000  0.89680000  0.25970000  1
  H  H45  1  0.38730000  0.93010000  0.69100000  1
  H  H46  1  0.72210000  0.93940000  0.26630000  1
  H  H47  1  0.16260000  0.97240000  0.57930000  1
  C  C48  1  0.85800000  0.01500000  0.36000000  1
  C  C49  1  0.47600000  0.01700000  0.56600000  1
  C  C50  1  0.30500000  0.07900000  0.69700000  1
  C  C51  1  0.74200000  0.18800000  0.42400000  1
  C  C52  1  0.97400000  0.18800000  0.63730000  1
  C  C53  1  0.77600000  0.19180000  0.75230000  1
  C  C54  1  0.57500000  0.19930000  0.28440000  1
  C  C55  1  0.69900000  0.23260000  0.32880000  1
  C  C56  1  0.52600000  0.24770000  0.19180000  1
  C  C57  1  0.02300000  0.28060000  0.68570000  1
  C  C58  1  0.82500000  0.28440000  0.80070000  1
  C  C59  1  0.05500000  0.30300000  0.07900000  1
  C  C60  1  0.77300000  0.31430000  0.28060000  1
  C  C61  1  0.94900000  0.32880000  0.76740000  1
  C  C62  1  0.10800000  0.36000000  0.98500000  1
  C  C63  1  0.72400000  0.36270000  0.18800000  1
  C  C64  1  0.99200000  0.42400000  0.81200000  1
  C  C65  1  0.22600000  0.43400000  0.01700000  1
  C  C66  1  0.72600000  0.56600000  0.98300000  1
  C  C67  1  0.49200000  0.57600000  0.18800000  1
  C  C68  1  0.22400000  0.63730000  0.81200000  1
  C  C69  1  0.60800000  0.64000000  0.01500000  1
  C  C70  1  0.44900000  0.67120000  0.23260000  1
  C  C71  1  0.27300000  0.68570000  0.71940000  1
  C  C72  1  0.55500000  0.69700000  0.92100000  1
  C  C73  1  0.32500000  0.71560000  0.19930000  1
  C  C74  1  0.52300000  0.71940000  0.31430000  1
  C  C75  1  0.02600000  0.75230000  0.80820000  1
  C  C76  1  0.19900000  0.76740000  0.67120000  1
  C  C77  1  0.07500000  0.80070000  0.71560000  1
  C  C78  1  0.27600000  0.80820000  0.24770000  1
  C  C79  1  0.47400000  0.81200000  0.36270000  1
  C  C80  1  0.24200000  0.81200000  0.57600000  1
  C  C81  1  0.80500000  0.92100000  0.30300000  1
  C  C82  1  0.97600000  0.98300000  0.43400000  1
  C  C83  1  0.35800000  0.98500000  0.64000000  1
  N  N84  1  0.75100000  0.05900000  0.43690000  1
  N  N85  1  0.85100000  0.14360000  0.67060000  1
  N  N86  1  0.60100000  0.32940000  0.14360000  1
  N  N87  1  0.00100000  0.43690000  0.94100000  1
  N  N88  1  0.50100000  0.56310000  0.05900000  1
  N  N89  1  0.10100000  0.67060000  0.85640000  1
  N  N90  1  0.35100000  0.85640000  0.32940000  1
  N  N91  1  0.25100000  0.94100000  0.56310000  1
  O  O92  1  0.46900000  0.02070000  0.47470000  1
  O  O93  1  0.57700000  0.05250000  0.62690000  1
  O  O94  1  0.32700000  0.37310000  0.05250000  1
  O  O95  1  0.71900000  0.47470000  0.97930000  1
  O  O96  1  0.21900000  0.52530000  0.02070000  1
  O  O97  1  0.82700000  0.62690000  0.94750000  1
  O  O98  1  0.07700000  0.94750000  0.37310000  1
  O  O99  1  0.96900000  0.97930000  0.52530000  1
