# generated using pymatgen
data_AlC8O5
_symmetry_space_group_name_H-M   'P 1'
_cell_length_a   11.08360000
_cell_length_b   13.22460000
_cell_length_c   17.89230000
_cell_angle_alpha   90.00000000
_cell_angle_beta   90.00000000
_cell_angle_gamma   89.80100000
_symmetry_Int_Tables_number   1
_chemical_formula_structural   AlC8O5
_chemical_formula_sum   'Al8 C64 O40'
_cell_volume   2622.56910556
_cell_formula_units_Z   8
loop_
 _symmetry_equiv_pos_site_id
 _symmetry_equiv_pos_as_xyz
  1  'x, y, z'
loop_
 _atom_site_type_symbol
 _atom_site_label
 _atom_site_symmetry_multiplicity
 _atom_site_fract_x
 _atom_site_fract_y
 _atom_site_fract_z
 _atom_site_occupancy
  Al  Al0  1  0.24160000  0.11620000  0.23720000  1
  Al  Al1  1  0.75440000  0.13100000  0.73380000  1
  Al  Al2  1  0.26490000  0.37220000  0.23400000  1
  Al  Al3  1  0.76090000  0.37460000  0.72730000  1
  Al  Al4  1  0.23910000  0.62540000  0.22730000  1
  Al  Al5  1  0.73510000  0.62780000  0.73400000  1
  Al  Al6  1  0.24560000  0.86900000  0.23380000  1
  Al  Al7  1  0.75840000  0.88380000  0.73720000  1
  C  C8  1  0.50606000  0.00553000  0.57167000  1
  C  C9  1  0.59662000  0.01041000  0.63439000  1
  C  C10  1  0.36494000  0.01567000  0.34285000  1
  C  C11  1  0.44369000  0.01932000  0.41135000  1
  C  C12  1  0.45887000  0.07584000  0.01503000  1
  C  C13  1  0.54879000  0.08312000  0.95108000  1
  C  C14  1  0.40521000  0.10064000  0.46684000  1
  C  C15  1  0.49350000  0.10823000  0.53197000  1
  C  C16  1  0.97751000  0.14473000  0.51255000  1
  C  C17  1  0.02421000  0.15190000  0.93229000  1
  C  C18  1  0.06778000  0.15557000  0.44896000  1
  C  C19  1  0.10900000  0.16401000  0.99873000  1
  C  C20  1  0.02789000  0.23408000  0.39138000  1
  C  C21  1  0.06078000  0.24167000  0.05369000  1
  C  C22  1  0.11832000  0.24177000  0.32891000  1
  C  C23  1  0.88348000  0.24297000  0.61899000  1
  C  C24  1  0.92199000  0.24575000  0.82762000  1
  C  C25  1  0.13319000  0.24678000  0.12458000  1
  C  C26  1  0.96150000  0.24759000  0.55040000  1
  C  C27  1  0.00731000  0.25383000  0.89276000  1
  C  C28  1  0.91755000  0.32464000  0.49364000  1
  C  C29  1  0.96308000  0.33296000  0.94865000  1
  C  C30  1  0.00755000  0.33633000  0.42983000  1
  C  C31  1  0.04815000  0.34420000  0.01490000  1
  C  C32  1  0.50445000  0.38327000  0.03220000  1
  C  C33  1  0.59336000  0.39042000  0.96738000  1
  C  C34  1  0.44514000  0.42419000  0.45475000  1
  C  C35  1  0.53566000  0.43095000  0.51841000  1
  C  C36  1  0.55847000  0.47452000  0.91326000  1
  C  C37  1  0.63771000  0.47810000  0.84497000  1
  C  C38  1  0.40475000  0.48066000  0.13614000  1
  C  C39  1  0.49581000  0.48496000  0.07367000  1
  C  C40  1  0.50419000  0.51504000  0.57367000  1
  C  C41  1  0.59525000  0.51934000  0.63614000  1
  C  C42  1  0.36229000  0.52190000  0.34497000  1
  C  C43  1  0.44153000  0.52548000  0.41326000  1
  C  C44  1  0.46434000  0.56905000  0.01841000  1
  C  C45  1  0.55486000  0.57581000  0.95475000  1
  C  C46  1  0.40664000  0.60958000  0.46738000  1
  C  C47  1  0.49555000  0.61673000  0.53220000  1
  C  C48  1  0.95185000  0.65580000  0.51490000  1
  C  C49  1  0.99245000  0.66367000  0.92983000  1
  C  C50  1  0.03692000  0.66704000  0.44865000  1
  C  C51  1  0.08245000  0.67536000  0.99364000  1
  C  C52  1  0.99269000  0.74617000  0.39276000  1
  C  C53  1  0.03850000  0.75241000  0.05040000  1
  C  C54  1  0.86681000  0.75322000  0.62458000  1
  C  C55  1  0.07801000  0.75425000  0.32762000  1
  C  C56  1  0.11652000  0.75703000  0.11899000  1
  C  C57  1  0.88168000  0.75823000  0.82891000  1
  C  C58  1  0.93922000  0.75833000  0.55369000  1
  C  C59  1  0.97211000  0.76592000  0.89138000  1
  C  C60  1  0.89100000  0.83599000  0.49873000  1
  C  C61  1  0.93222000  0.84443000  0.94896000  1
  C  C62  1  0.97579000  0.84810000  0.43229000  1
  C  C63  1  0.02249000  0.85527000  0.01255000  1
  C  C64  1  0.50650000  0.89177000  0.03197000  1
  C  C65  1  0.59479000  0.89936000  0.96684000  1
  C  C66  1  0.45121000  0.91688000  0.45108000  1
  C  C67  1  0.54113000  0.92416000  0.51503000  1
  C  C68  1  0.55631000  0.98068000  0.91135000  1
  C  C69  1  0.63506000  0.98433000  0.84285000  1
  C  C70  1  0.40338000  0.98959000  0.13439000  1
  C  C71  1  0.49394000  0.99447000  0.07167000  1
  O  O72  1  0.83340000  0.00670000  0.72200000  1
  O  O73  1  0.64950000  0.05590000  0.79630000  1
  O  O74  1  0.38120000  0.05730000  0.18350000  1
  O  O75  1  0.62770000  0.09600000  0.66090000  1
  O  O76  1  0.32620000  0.10000000  0.33310000  1
  O  O77  1  0.86160000  0.15720000  0.64740000  1
  O  O78  1  0.13650000  0.16390000  0.16180000  1
  O  O79  1  0.86660000  0.16400000  0.81080000  1
  O  O80  1  0.09700000  0.17600000  0.27720000  1
  O  O81  1  0.31150000  0.24180000  0.25470000  1
  O  O82  1  0.68120000  0.25590000  0.73900000  1
  O  O83  1  0.88760000  0.32730000  0.79460000  1
  O  O84  1  0.85970000  0.32950000  0.64860000  1
  O  O85  1  0.14320000  0.33040000  0.16190000  1
  O  O86  1  0.14090000  0.33070000  0.30520000  1
  O  O87  1  0.38090000  0.39350000  0.16200000  1
  O  O88  1  0.64700000  0.40610000  0.79790000  1
  O  O89  1  0.36050000  0.43160000  0.31750000  1
  O  O90  1  0.64160000  0.43940000  0.66300000  1
  O  O91  1  0.18940000  0.49310000  0.23250000  1
  O  O92  1  0.81060000  0.50690000  0.73250000  1
  O  O93  1  0.35840000  0.56060000  0.16300000  1
  O  O94  1  0.63950000  0.56840000  0.81750000  1
  O  O95  1  0.35300000  0.59390000  0.29790000  1
  O  O96  1  0.61910000  0.60650000  0.66200000  1
  O  O97  1  0.85910000  0.66930000  0.80520000  1
  O  O98  1  0.85680000  0.66960000  0.66190000  1
  O  O99  1  0.14030000  0.67050000  0.14860000  1
  O  O100  1  0.11240000  0.67270000  0.29460000  1
  O  O101  1  0.31880000  0.74410000  0.23900000  1
  O  O102  1  0.68850000  0.75820000  0.75470000  1
  O  O103  1  0.90300000  0.82400000  0.77720000  1
  O  O104  1  0.13340000  0.83600000  0.31080000  1
  O  O105  1  0.86350000  0.83610000  0.66180000  1
  O  O106  1  0.13840000  0.84280000  0.14740000  1
  O  O107  1  0.67380000  0.90000000  0.83310000  1
  O  O108  1  0.37230000  0.90400000  0.16090000  1
  O  O109  1  0.61880000  0.94270000  0.68350000  1
  O  O110  1  0.35050000  0.94410000  0.29630000  1
  O  O111  1  0.16660000  0.99330000  0.22200000  1
