# generated using pymatgen
data_CaH3C7NO4
_symmetry_space_group_name_H-M   'P 1'
_cell_length_a   6.44630000
_cell_length_b   10.97280000
_cell_length_c   16.09960000
_cell_angle_alpha   90.00000000
_cell_angle_beta   99.77500000
_cell_angle_gamma   90.00000000
_symmetry_Int_Tables_number   1
_chemical_formula_structural   CaH3C7NO4
_chemical_formula_sum   'Ca4 H12 C28 N4 O16'
_cell_volume   1122.25562433
_cell_formula_units_Z   4
loop_
 _symmetry_equiv_pos_site_id
 _symmetry_equiv_pos_as_xyz
  1  'x, y, z'
loop_
 _atom_site_type_symbol
 _atom_site_label
 _atom_site_symmetry_multiplicity
 _atom_site_fract_x
 _atom_site_fract_y
 _atom_site_fract_z
 _atom_site_occupancy
  Ca  Ca0  1  0.24297000  0.92848000  0.95223000  1
  Ca  Ca1  1  0.25703000  0.42848000  0.54777000  1
  Ca  Ca2  1  0.74297000  0.57152000  0.45223000  1
  Ca  Ca3  1  0.75703000  0.07152000  0.04777000  1
  H  H4  1  0.06690000  0.78240000  0.26530000  1
  H  H5  1  0.21990000  0.87570000  0.16240000  1
  H  H6  1  0.23460000  0.27260000  0.73380000  1
  H  H7  1  0.26540000  0.77260000  0.76620000  1
  H  H8  1  0.28010000  0.37570000  0.33760000  1
  H  H9  1  0.43310000  0.28240000  0.23470000  1
  H  H10  1  0.56690000  0.71760000  0.76530000  1
  H  H11  1  0.71990000  0.62430000  0.66240000  1
  H  H12  1  0.73460000  0.22740000  0.23380000  1
  H  H13  1  0.76540000  0.72740000  0.26620000  1
  H  H14  1  0.78010000  0.12430000  0.83760000  1
  H  H15  1  0.93310000  0.21760000  0.73470000  1
  C  C16  1  0.01190000  0.68970000  0.70260000  1
  C  C17  1  0.12140000  0.62460000  0.63930000  1
  C  C18  1  0.12170000  0.76240000  0.76500000  1
  C  C19  1  0.17140000  0.19700000  0.17700000  1
  C  C20  1  0.19990000  0.32700000  0.29710000  1
  C  C21  1  0.20920000  0.77080000  0.26390000  1
  C  C22  1  0.23070000  0.63270000  0.39030000  1
  C  C23  1  0.26930000  0.13270000  0.10970000  1
  C  C24  1  0.29080000  0.27080000  0.23610000  1
  C  C25  1  0.30010000  0.82700000  0.20290000  1
  C  C26  1  0.32860000  0.69700000  0.32300000  1
  C  C27  1  0.37830000  0.26240000  0.73500000  1
  C  C28  1  0.37860000  0.12460000  0.86070000  1
  C  C29  1  0.48810000  0.18970000  0.79740000  1
  C  C30  1  0.51190000  0.81030000  0.20260000  1
  C  C31  1  0.62140000  0.87540000  0.13930000  1
  C  C32  1  0.62170000  0.73760000  0.26500000  1
  C  C33  1  0.67140000  0.30300000  0.67700000  1
  C  C34  1  0.69990000  0.17300000  0.79710000  1
  C  C35  1  0.70920000  0.72920000  0.76390000  1
  C  C36  1  0.73070000  0.86730000  0.89030000  1
  C  C37  1  0.76930000  0.36730000  0.60970000  1
  C  C38  1  0.79080000  0.22920000  0.73610000  1
  C  C39  1  0.80010000  0.67300000  0.70290000  1
  C  C40  1  0.82860000  0.80300000  0.82300000  1
  C  C41  1  0.87830000  0.23760000  0.23500000  1
  C  C42  1  0.87860000  0.37540000  0.36070000  1
  C  C43  1  0.98810000  0.31030000  0.29740000  1
  N  N44  1  0.03370000  0.81910000  0.82410000  1
  N  N45  1  0.46630000  0.31910000  0.67590000  1
  N  N46  1  0.53370000  0.68090000  0.32410000  1
  N  N47  1  0.96630000  0.18090000  0.17590000  1
  O  O48  1  0.01600000  0.60050000  0.56863000  1
  O  O49  1  0.03860000  0.64800000  0.38799000  1
  O  O50  1  0.14600000  0.06900000  0.05737000  1
  O  O51  1  0.19180000  0.09470000  0.83924000  1
  O  O52  1  0.30820000  0.59470000  0.66076000  1
  O  O53  1  0.35400000  0.56900000  0.44263000  1
  O  O54  1  0.46140000  0.14800000  0.11201000  1
  O  O55  1  0.48400000  0.10050000  0.93137000  1
  O  O56  1  0.51600000  0.89950000  0.06863000  1
  O  O57  1  0.53860000  0.85200000  0.88799000  1
  O  O58  1  0.64600000  0.43100000  0.55737000  1
  O  O59  1  0.69180000  0.40530000  0.33924000  1
  O  O60  1  0.80820000  0.90530000  0.16076000  1
  O  O61  1  0.85400000  0.93100000  0.94263000  1
  O  O62  1  0.96140000  0.35200000  0.61201000  1
  O  O63  1  0.98400000  0.39950000  0.43137000  1
