# generated using pymatgen
data_CaH4(C3O2)3
_symmetry_space_group_name_H-M   'P 1'
_cell_length_a   6.86560000
_cell_length_b   9.12870000
_cell_length_c   9.92090000
_cell_angle_alpha   101.34100000
_cell_angle_beta   99.68300000
_cell_angle_gamma   111.95000000
_symmetry_Int_Tables_number   1
_chemical_formula_structural   CaH4(C3O2)3
_chemical_formula_sum   'Ca2 H8 C18 O12'
_cell_volume   545.11141004
_cell_formula_units_Z   2
loop_
 _symmetry_equiv_pos_site_id
 _symmetry_equiv_pos_as_xyz
  1  'x, y, z'
loop_
 _atom_site_type_symbol
 _atom_site_label
 _atom_site_symmetry_multiplicity
 _atom_site_fract_x
 _atom_site_fract_y
 _atom_site_fract_z
 _atom_site_occupancy
  Ca  Ca0  1  0.31318000  0.57803000  0.10836000  1
  Ca  Ca1  1  0.68682000  0.42197000  0.89164000  1
  H  H2  1  0.14130000  0.88970000  0.73670000  1
  H  H3  1  0.16380000  0.89120000  0.33570000  1
  H  H4  1  0.28350000  0.49580000  0.59040000  1
  H  H5  1  0.49190000  0.75080000  0.46030000  1
  H  H6  1  0.50810000  0.24920000  0.53970000  1
  H  H7  1  0.71650000  0.50420000  0.40960000  1
  H  H8  1  0.83620000  0.10880000  0.66430000  1
  H  H9  1  0.85870000  0.11030000  0.26330000  1
  C  C10  1  0.07320000  0.31470000  0.65120000  1
  C  C11  1  0.08330000  0.31750000  0.40980000  1
  C  C12  1  0.08740000  0.83780000  0.63930000  1
  C  C13  1  0.10010000  0.83950000  0.39910000  1
  C  C14  1  0.15610000  0.39520000  0.80880000  1
  C  C15  1  0.16600000  0.39290000  0.55620000  1
  C  C16  1  0.17800000  0.40200000  0.30580000  1
  C  C17  1  0.17850000  0.91660000  0.54510000  1
  C  C18  1  0.35750000  0.08470000  0.60160000  1
  C  C19  1  0.64250000  0.91530000  0.39840000  1
  C  C20  1  0.82150000  0.08340000  0.45490000  1
  C  C21  1  0.82200000  0.59800000  0.69420000  1
  C  C22  1  0.83400000  0.60710000  0.44380000  1
  C  C23  1  0.84390000  0.60480000  0.19120000  1
  C  C24  1  0.89990000  0.16050000  0.60090000  1
  C  C25  1  0.91260000  0.16220000  0.36070000  1
  C  C26  1  0.91670000  0.68250000  0.59020000  1
  C  C27  1  0.92680000  0.68530000  0.34880000  1
  O  O28  1  0.02160000  0.39730000  0.87920000  1
  O  O29  1  0.11110000  0.32710000  0.17544000  1
  O  O30  1  0.32360000  0.54708000  0.35115000  1
  O  O31  1  0.35780000  0.45900000  0.86646000  1
  O  O32  1  0.41820000  0.15365000  0.50235000  1
  O  O33  1  0.43820000  0.15175000  0.72896000  1
  O  O34  1  0.56180000  0.84825000  0.27104000  1
  O  O35  1  0.58180000  0.84635000  0.49765000  1
  O  O36  1  0.64220000  0.54100000  0.13354000  1
  O  O37  1  0.67640000  0.45292000  0.64885000  1
  O  O38  1  0.88890000  0.67290000  0.82456000  1
  O  O39  1  0.97840000  0.60270000  0.12080000  1
