# generated using pymatgen
data_U4H4C6O11
_symmetry_space_group_name_H-M   'P 1'
_cell_length_a   8.04950000
_cell_length_b   11.88520000
_cell_length_c   11.92090000
_cell_angle_alpha   79.88100000
_cell_angle_beta   86.23100000
_cell_angle_gamma   81.91200000
_symmetry_Int_Tables_number   1
_chemical_formula_structural   U4H4C6O11
_chemical_formula_sum   'U8 H8 C12 O22'
_cell_volume   1110.57915202
_cell_formula_units_Z   2
loop_
 _symmetry_equiv_pos_site_id
 _symmetry_equiv_pos_as_xyz
  1  'x, y, z'
loop_
 _atom_site_type_symbol
 _atom_site_label
 _atom_site_symmetry_multiplicity
 _atom_site_fract_x
 _atom_site_fract_y
 _atom_site_fract_z
 _atom_site_occupancy
  U  U0  1  0.04212000  0.56392000  0.70208000  1
  U  U1  1  0.22304000  0.49493000  0.02365000  1
  U  U2  1  0.31680000  0.06250000  0.71860000  1
  U  U3  1  0.39180000  0.15150000  0.00960000  1
  U  U4  1  0.60820000  0.84850000  0.99040000  1
  U  U5  1  0.68320000  0.93750000  0.28140000  1
  U  U6  1  0.77696000  0.50507000  0.97635000  1
  U  U7  1  0.95788000  0.43608000  0.29792000  1
  H  H8  1  0.33300000  0.27250000  0.39978000  1
  H  H9  1  0.36121000  0.58285000  0.32165000  1
  H  H10  1  0.48007000  0.50259000  0.40012000  1
  H  H11  1  0.48367000  0.71651000  0.60203000  1
  H  H12  1  0.51633000  0.28349000  0.39797000  1
  H  H13  1  0.51993000  0.49741000  0.59988000  1
  H  H14  1  0.63879000  0.41715000  0.67835000  1
  H  H15  1  0.66700000  0.72750000  0.60022000  1
  C  C16  1  0.23700000  0.49660000  0.45670000  1
  C  C17  1  0.37500000  0.50650000  0.36550000  1
  C  C18  1  0.38940000  0.41810000  0.28540000  1
  C  C19  1  0.42600000  0.29050000  0.34780000  1
  C  C20  1  0.46300000  0.20040000  0.27090000  1
  C  C21  1  0.46310000  0.55550000  0.79450000  1
  C  C22  1  0.53690000  0.44450000  0.20550000  1
  C  C23  1  0.53700000  0.79960000  0.72910000  1
  C  C24  1  0.57400000  0.70950000  0.65220000  1
  C  C25  1  0.61060000  0.58190000  0.71460000  1
  C  C26  1  0.62500000  0.49350000  0.63450000  1
  C  C27  1  0.76300000  0.50340000  0.54330000  1
  O  O28  1  0.02690000  0.53980000  0.89340000  1
  O  O29  1  0.13240000  0.42520000  0.45340000  1
  O  O30  1  0.21400000  0.18800000  0.84880000  1
  O  O31  1  0.22920000  0.56060000  0.53040000  1
  O  O32  1  0.24250000  0.43370000  0.22360000  1
  O  O33  1  0.26370000  0.34770000  0.99460000  1
  O  O34  1  0.31920000  0.57180000  0.75780000  1
  O  O35  1  0.40600000  0.99300000  0.90800000  1
  O  O36  1  0.47600000  0.09810000  0.31690000  1
  O  O37  1  0.47980000  0.23390000  0.16480000  1
  O  O38  1  0.48750000  0.52030000  0.89960000  1
  O  O39  1  0.51250000  0.47970000  0.10040000  1
  O  O40  1  0.52020000  0.76610000  0.83520000  1
  O  O41  1  0.52400000  0.90190000  0.68310000  1
  O  O42  1  0.59400000  0.00700000  0.09200000  1
  O  O43  1  0.68080000  0.42820000  0.24220000  1
  O  O44  1  0.73630000  0.65230000  0.00540000  1
  O  O45  1  0.75750000  0.56630000  0.77640000  1
  O  O46  1  0.77080000  0.43940000  0.46960000  1
  O  O47  1  0.78600000  0.81200000  0.15120000  1
  O  O48  1  0.86760000  0.57480000  0.54660000  1
  O  O49  1  0.97310000  0.46020000  0.10660000  1
