# generated using pymatgen
data_EuH6(C2O)6
_symmetry_space_group_name_H-M   'P 1'
_cell_length_a   11.05520000
_cell_length_b   11.07130000
_cell_length_c   17.64880000
_cell_angle_alpha   93.08400000
_cell_angle_beta   104.42900000
_cell_angle_gamma   119.03200000
_symmetry_Int_Tables_number   1
_chemical_formula_structural   EuH6(C2O)6
_chemical_formula_sum   'Eu4 H24 C48 O24'
_cell_volume   1789.76984919
_cell_formula_units_Z   4
loop_
 _symmetry_equiv_pos_site_id
 _symmetry_equiv_pos_as_xyz
  1  'x, y, z'
loop_
 _atom_site_type_symbol
 _atom_site_label
 _atom_site_symmetry_multiplicity
 _atom_site_fract_x
 _atom_site_fract_y
 _atom_site_fract_z
 _atom_site_occupancy
  Eu  Eu0  1  0.00114000  0.10577000  0.09493000  1
  Eu  Eu1  1  0.32056000  0.39764000  0.37876000  1
  Eu  Eu2  1  0.67944000  0.60236000  0.62124000  1
  Eu  Eu3  1  0.99886000  0.89423000  0.90507000  1
  H  H4  1  0.00940000  0.46840000  0.07500000  1
  H  H5  1  0.01920000  0.34240000  0.95810000  1
  H  H6  1  0.02790000  0.15680000  0.51690000  1
  H  H7  1  0.09350000  0.02020000  0.41640000  1
  H  H8  1  0.28160000  0.14540000  0.76910000  1
  H  H9  1  0.33200000  0.92450000  0.23360000  1
  H  H10  1  0.34240000  0.02610000  0.39700000  1
  H  H11  1  0.34590000  0.81920000  0.38720000  1
  H  H12  1  0.35110000  0.32900000  0.88360000  1
  H  H13  1  0.36580000  0.73660000  0.26380000  1
  H  H14  1  0.40260000  0.32490000  0.70540000  1
  H  H15  1  0.45430000  0.45680000  0.12230000  1
  H  H16  1  0.54570000  0.54320000  0.87770000  1
  H  H17  1  0.59740000  0.67510000  0.29460000  1
  H  H18  1  0.63420000  0.26340000  0.73620000  1
  H  H19  1  0.64890000  0.67100000  0.11640000  1
  H  H20  1  0.65410000  0.18080000  0.61280000  1
  H  H21  1  0.65760000  0.97390000  0.60300000  1
  H  H22  1  0.66800000  0.07550000  0.76640000  1
  H  H23  1  0.71840000  0.85460000  0.23090000  1
  H  H24  1  0.90650000  0.97980000  0.58360000  1
  H  H25  1  0.97210000  0.84320000  0.48310000  1
  H  H26  1  0.98080000  0.65760000  0.04190000  1
  H  H27  1  0.99060000  0.53160000  0.92500000  1
  C  C28  1  0.00680000  0.04910000  0.60780000  1
  C  C29  1  0.00750000  0.92540000  0.72190000  1
  C  C30  1  0.05750000  0.67300000  0.08770000  1
  C  C31  1  0.07600000  0.56090000  0.10650000  1
  C  C32  1  0.07820000  0.15510000  0.56870000  1
  C  C33  1  0.08290000  0.04500000  0.68260000  1
  C  C34  1  0.11710000  0.92010000  0.11860000  1
  C  C35  1  0.15120000  0.80750000  0.13600000  1
  C  C36  1  0.19150000  0.58470000  0.17090000  1
  C  C37  1  0.20460000  0.46290000  0.19680000  1
  C  C38  1  0.22690000  0.26090000  0.60680000  1
  C  C39  1  0.23020000  0.14880000  0.71810000  1
  C  C40  1  0.26300000  0.22980000  0.00500000  1
  C  C41  1  0.26710000  0.83240000  0.20130000  1
  C  C42  1  0.28730000  0.72070000  0.21910000  1
  C  C43  1  0.30120000  0.37420000  0.56080000  1
  C  C44  1  0.30250000  0.25580000  0.68070000  1
  C  C45  1  0.38500000  0.37140000  0.00210000  1
  C  C46  1  0.40780000  0.01620000  0.43900000  1
  C  C47  1  0.40810000  0.89200000  0.43350000  1
  C  C48  1  0.41260000  0.39910000  0.93110000  1
  C  C49  1  0.47290000  0.47400000  0.07300000  1
  C  C50  1  0.49660000  0.73400000  0.48940000  1
  C  C51  1  0.49910000  0.87210000  0.49560000  1
  C  C52  1  0.50090000  0.12790000  0.50440000  1
  C  C53  1  0.50340000  0.26600000  0.51060000  1
  C  C54  1  0.52710000  0.52600000  0.92700000  1
  C  C55  1  0.58740000  0.60090000  0.06890000  1
  C  C56  1  0.59190000  0.10800000  0.56650000  1
  C  C57  1  0.59220000  0.98380000  0.56100000  1
  C  C58  1  0.61500000  0.62860000  0.99790000  1
  C  C59  1  0.69750000  0.74420000  0.31930000  1
  C  C60  1  0.69880000  0.62580000  0.43920000  1
  C  C61  1  0.71270000  0.27930000  0.78090000  1
  C  C62  1  0.73290000  0.16760000  0.79870000  1
  C  C63  1  0.73700000  0.77020000  0.99500000  1
  C  C64  1  0.76980000  0.85120000  0.28190000  1
  C  C65  1  0.77310000  0.73910000  0.39320000  1
  C  C66  1  0.79540000  0.53710000  0.80320000  1
  C  C67  1  0.80850000  0.41530000  0.82910000  1
  C  C68  1  0.84880000  0.19250000  0.86400000  1
  C  C69  1  0.88290000  0.07990000  0.88140000  1
  C  C70  1  0.91710000  0.95500000  0.31740000  1
  C  C71  1  0.92180000  0.84490000  0.43130000  1
  C  C72  1  0.92400000  0.43910000  0.89350000  1
  C  C73  1  0.94250000  0.32700000  0.91230000  1
  C  C74  1  0.99250000  0.07460000  0.27810000  1
  C  C75  1  0.99320000  0.95090000  0.39220000  1
  O  O76  1  0.05570000  0.91700000  0.04660000  1
  O  O77  1  0.07830000  0.93030000  0.79280000  1
  O  O78  1  0.10980000  0.34040000  0.15340000  1
  O  O79  1  0.12100000  0.17270000  0.31760000  1
  O  O80  1  0.14430000  0.01180000  0.17480000  1
  O  O81  1  0.20910000  0.12690000  0.94600000  1
  O  O82  1  0.22140000  0.22260000  0.06560000  1
  O  O83  1  0.22830000  0.36440000  0.49030000  1
  O  O84  1  0.30560000  0.48800000  0.25820000  1
  O  O85  1  0.39560000  0.63410000  0.43420000  1
  O  O86  1  0.40510000  0.26820000  0.45530000  1
  O  O87  1  0.42950000  0.47090000  0.59830000  1
  O  O88  1  0.57050000  0.52910000  0.40170000  1
  O  O89  1  0.59490000  0.73180000  0.54470000  1
  O  O90  1  0.60440000  0.36590000  0.56580000  1
  O  O91  1  0.69440000  0.51200000  0.74180000  1
  O  O92  1  0.77170000  0.63560000  0.50970000  1
  O  O93  1  0.77860000  0.77740000  0.93440000  1
  O  O94  1  0.79090000  0.87310000  0.05400000  1
  O  O95  1  0.85570000  0.98820000  0.82520000  1
  O  O96  1  0.87900000  0.82730000  0.68240000  1
  O  O97  1  0.89020000  0.65960000  0.84660000  1
  O  O98  1  0.92170000  0.06970000  0.20720000  1
  O  O99  1  0.94430000  0.08300000  0.95340000  1
