# generated using pymatgen
data_Cd2H11C15N7O5
_symmetry_space_group_name_H-M   'P 1'
_cell_length_a   16.64600000
_cell_length_b   17.05957506
_cell_length_c   17.27400000
_cell_angle_alpha   90.00000000
_cell_angle_beta   90.00000000
_cell_angle_gamma   119.20123708
_symmetry_Int_Tables_number   1
_chemical_formula_structural   Cd2H11C15N7O5
_chemical_formula_sum   'Cd16 H88 C120 N56 O40'
_cell_volume   4281.94664407
_cell_formula_units_Z   8
loop_
 _symmetry_equiv_pos_site_id
 _symmetry_equiv_pos_as_xyz
  1  'x, y, z'
loop_
 _atom_site_type_symbol
 _atom_site_label
 _atom_site_symmetry_multiplicity
 _atom_site_fract_x
 _atom_site_fract_y
 _atom_site_fract_z
 _atom_site_occupancy
  C  C0  1  0.47990000  0.95540000  0.70320000  1
  C  C1  1  0.52450000  0.04460000  0.29680000  1
  C  C2  1  0.02400000  0.03760000  0.79270000  1
  C  C3  1  0.98640000  0.96240000  0.20730000  1
  C  C4  1  0.15970000  0.30280000  0.19210000  1
  C  C5  1  0.85690000  0.69720000  0.80790000  1
  C  C6  1  0.35980000  0.69920000  0.30550000  1
  C  C7  1  0.66060000  0.30080000  0.69450000  1
  C  C8  1  0.15970000  0.27660000  0.11020000  1
  C  C9  1  0.88310000  0.72340000  0.88980000  1
  C  C10  1  0.11680000  0.18680000  0.08900000  1
  C  C11  1  0.93000000  0.81320000  0.91100000  1
  C  C12  1  0.26950000  0.49160000  0.71170000  1
  C  C13  1  0.77790000  0.50840000  0.28830000  1
  C  C14  1  0.38880000  0.72380000  0.38970000  1
  C  C15  1  0.66500000  0.27620000  0.61030000  1
  C  C16  1  0.43550000  0.81200000  0.41050000  1
  C  C17  1  0.62350000  0.18800000  0.58950000  1
  C  C18  1  0.20500000  0.31380000  0.98650000  1
  C  C19  1  0.89120000  0.68620000  0.01350000  1
  C  C20  1  0.16330000  0.22460000  0.96680000  1
  C  C21  1  0.93870000  0.77540000  0.03320000  1
  C  C22  1  0.40050000  0.68620000  0.51270000  1
  C  C23  1  0.71430000  0.31380000  0.48730000  1
  C  C24  1  0.44780000  0.77520000  0.53230000  1
  C  C25  1  0.67260000  0.22480000  0.46770000  1
  C  C26  1  0.57570000  0.96740000  0.67830000  1
  C  C27  1  0.60830000  0.03260000  0.32170000  1
  C  C28  1  0.10450000  0.02400000  0.82120000  1
  C  C29  1  0.08050000  0.97600000  0.17880000  1
  C  C30  1  0.35800000  0.49120000  0.72350000  1
  C  C31  1  0.86680000  0.50880000  0.27650000  1
  C  C32  1  0.41980000  0.53180000  0.05820000  1
  C  C33  1  0.88800000  0.46820000  0.94180000  1
  C  C34  1  0.40680000  0.47300000  0.41660000  1
  C  C35  1  0.93380000  0.52700000  0.58340000  1
  C  C36  1  0.56040000  0.73340000  0.20430000  1
  C  C37  1  0.82700000  0.26660000  0.79570000  1
  C  C38  1  0.60810000  0.82420000  0.22780000  1
  C  C39  1  0.78390000  0.17580000  0.77220000  1
  C  C40  1  0.33920000  0.28320000  0.27500000  1
  C  C41  1  0.05600000  0.71680000  0.72500000  1
  C  C42  1  0.29740000  0.19420000  0.25500000  1
  C  C43  1  0.10320000  0.80580000  0.74500000  1
  C  C44  1  0.38480000  0.32080000  0.14850000  1
  C  C45  1  0.06400000  0.67920000  0.85150000  1
  C  C46  1  0.34050000  0.23160000  0.12920000  1
  C  C47  1  0.10890000  0.76840000  0.87080000  1
  C  C48  1  0.61600000  0.77980000  0.35090000  1
  C  C49  1  0.83620000  0.22020000  0.64910000  1
  C  C50  1  0.57190000  0.69080000  0.32860000  1
  C  C51  1  0.88110000  0.30920000  0.67140000  1
  C  C52  1  0.51000000  0.54780000  0.02760000  1
  C  C53  1  0.96220000  0.45220000  0.97240000  1
  C  C54  1  0.33900000  0.19880000  0.05200000  1
  C  C55  1  0.14020000  0.80120000  0.94800000  1
  C  C56  1  0.64300000  0.80460000  0.43110000  1
  C  C57  1  0.83840000  0.19540000  0.56890000  1
  C  C58  1  0.51360000  0.53600000  0.94510000  1
  C  C59  1  0.97760000  0.46400000  0.05490000  1
  C  C60  1  0.48640000  0.46400000  0.44510000  1
  C  C61  1  0.02240000  0.53600000  0.55490000  1
  C  C62  1  0.35700000  0.19540000  0.93110000  1
  C  C63  1  0.16160000  0.80460000  0.06890000  1
  C  C64  1  0.66100000  0.80120000  0.55200000  1
  C  C65  1  0.85980000  0.19880000  0.44800000  1
  C  C66  1  0.49000000  0.45220000  0.52760000  1
  C  C67  1  0.03780000  0.54780000  0.47240000  1
  C  C68  1  0.42810000  0.30920000  0.82860000  1
  C  C69  1  0.11890000  0.69080000  0.17140000  1
  C  C70  1  0.38400000  0.22020000  0.85090000  1
  C  C71  1  0.16380000  0.77980000  0.14910000  1
  C  C72  1  0.65950000  0.76840000  0.62920000  1
  C  C73  1  0.89110000  0.23160000  0.37080000  1
  C  C74  1  0.61520000  0.67920000  0.64850000  1
  C  C75  1  0.93600000  0.32080000  0.35150000  1
  C  C76  1  0.70260000  0.80580000  0.75500000  1
  C  C77  1  0.89680000  0.19420000  0.24500000  1
  C  C78  1  0.66080000  0.71680000  0.77500000  1
  C  C79  1  0.94400000  0.28320000  0.22500000  1
  C  C80  1  0.39190000  0.17580000  0.72780000  1
  C  C81  1  0.21610000  0.82420000  0.27220000  1
  C  C82  1  0.43960000  0.26660000  0.70430000  1
  C  C83  1  0.17300000  0.73340000  0.29570000  1
  C  C84  1  0.59320000  0.52700000  0.91660000  1
  C  C85  1  0.06620000  0.47300000  0.08340000  1
  C  C86  1  0.58020000  0.46820000  0.55820000  1
  C  C87  1  0.11200000  0.53180000  0.44180000  1
  C  C88  1  0.64200000  0.50880000  0.22350000  1
  C  C89  1  0.13320000  0.49120000  0.77650000  1
  C  C90  1  0.89550000  0.97600000  0.32120000  1
  C  C91  1  0.91950000  0.02400000  0.67880000  1
  C  C92  1  0.42430000  0.03260000  0.17830000  1
  C  C93  1  0.39170000  0.96740000  0.82170000  1
  C  C94  1  0.55220000  0.22480000  0.03230000  1
  C  C95  1  0.32740000  0.77520000  0.96770000  1
  C  C96  1  0.59950000  0.31380000  0.01270000  1
  C  C97  1  0.28570000  0.68620000  0.98730000  1
  C  C98  1  0.83670000  0.77540000  0.46680000  1
  C  C99  1  0.06130000  0.22460000  0.53320000  1
  C  C100  1  0.79500000  0.68620000  0.48650000  1
  C  C101  1  0.10880000  0.31380000  0.51350000  1
  C  C102  1  0.56450000  0.18800000  0.91050000  1
  C  C103  1  0.37650000  0.81200000  0.08950000  1
  C  C104  1  0.61120000  0.27620000  0.88970000  1
  C  C105  1  0.33500000  0.72380000  0.11030000  1
  C  C106  1  0.73050000  0.50840000  0.21170000  1
  C  C107  1  0.22210000  0.49160000  0.78830000  1
  C  C108  1  0.88320000  0.81320000  0.58900000  1
  C  C109  1  0.07000000  0.18680000  0.41100000  1
  C  C110  1  0.84030000  0.72340000  0.61020000  1
  C  C111  1  0.11690000  0.27660000  0.38980000  1
  C  C112  1  0.64020000  0.30080000  0.80550000  1
  C  C113  1  0.33940000  0.69920000  0.19450000  1
  C  C114  1  0.84030000  0.69720000  0.69210000  1
  C  C115  1  0.14310000  0.30280000  0.30790000  1
  C  C116  1  0.97600000  0.96240000  0.29270000  1
  C  C117  1  0.01360000  0.03760000  0.70730000  1
  C  C118  1  0.52010000  0.04460000  0.20320000  1
  C  C119  1  0.47550000  0.95540000  0.79680000  1
  Cd  Cd120  1  0.25434000  0.50034000  0.38406000  1
  Cd  Cd121  1  0.75400000  0.49966000  0.61594000  1
  Cd  Cd122  1  0.02545000  1.00000000  0.00000000  1
  Cd  Cd123  1  0.52831000  0.00000000  0.50000000  1
  Cd  Cd124  1  0.47752000  0.50878000  0.23511000  1
  Cd  Cd125  1  0.96874000  0.49122000  0.76489000  1
  Cd  Cd126  1  0.25311000  0.00712000  0.13423000  1
  Cd  Cd127  1  0.24599000  0.99288000  0.86577000  1
  Cd  Cd128  1  0.74689000  0.99288000  0.63423000  1
  Cd  Cd129  1  0.75401000  0.00712000  0.36577000  1
  Cd  Cd130  1  0.52248000  0.49122000  0.73511000  1
  Cd  Cd131  1  0.03126000  0.50878000  0.26489000  1
  Cd  Cd132  1  0.47169000  0.00000000  1.00000000  1
  Cd  Cd133  1  0.97455000  0.00000000  0.50000000  1
  Cd  Cd134  1  0.74566000  0.49966000  0.88406000  1
  Cd  Cd135  1  0.24600000  0.50034000  0.11594000  1
  H  H136  1  0.22830000  0.43920000  0.68180000  1
  H  H137  1  0.78910000  0.56080000  0.31820000  1
  H  H138  1  0.28130000  0.54440000  0.68200000  1
  H  H139  1  0.73690000  0.45560000  0.31800000  1
  H  H140  1  0.08650000  0.14400000  0.12720000  1
  H  H141  1  0.94250000  0.85600000  0.87280000  1
  H  H142  1  0.06170000  0.09420000  0.68710000  1
  H  H143  1  0.96750000  0.90580000  0.31290000  1
  H  H144  1  0.46830000  0.89920000  0.81700000  1
  H  H145  1  0.56910000  0.10080000  0.18300000  1
  H  H146  1  0.44800000  0.85480000  0.37210000  1
  H  H147  1  0.59320000  0.14520000  0.62790000  1
  H  H148  1  0.03290000  0.00980000  0.31440000  1
  H  H149  1  0.02310000  0.99020000  0.68560000  1
  H  H150  1  0.52800000  0.99580000  0.18250000  1
  H  H151  1  0.53220000  0.00420000  0.81750000  1
  H  H152  1  0.23440000  0.35720000  0.94840000  1
  H  H153  1  0.87720000  0.64280000  0.05160000  1
  H  H154  1  0.16760000  0.20940000  0.91590000  1
  H  H155  1  0.95820000  0.79060000  0.08410000  1
  H  H156  1  0.38830000  0.64300000  0.55060000  1
  H  H157  1  0.74530000  0.35700000  0.44940000  1
  H  H158  1  0.46950000  0.79100000  0.58270000  1
  H  H159  1  0.67850000  0.20900000  0.41730000  1
  H  H160  1  0.54020000  0.71880000  0.15340000  1
  H  H161  1  0.82140000  0.28120000  0.84660000  1
  H  H162  1  0.62010000  0.86880000  0.19140000  1
  H  H163  1  0.75130000  0.13120000  0.80860000  1
  H  H164  1  0.33730000  0.29960000  0.32600000  1
  H  H165  1  0.03770000  0.70040000  0.67400000  1
  H  H166  1  0.26800000  0.15180000  0.29360000  1
  H  H167  1  0.11620000  0.84820000  0.70640000  1
  H  H168  1  0.45740000  0.48260000  0.92980000  1
  H  H169  1  0.97480000  0.51740000  0.07020000  1
  H  H170  1  0.51440000  0.58680000  0.91920000  1
  H  H171  1  0.92760000  0.41320000  0.08080000  1
  H  H172  1  0.47340000  0.49260000  0.55380000  1
  H  H173  1  0.98080000  0.50740000  0.44620000  1
  H  H174  1  0.41640000  0.36320000  0.11030000  1
  H  H175  1  0.05320000  0.63680000  0.88970000  1
  H  H176  1  0.56150000  0.64660000  0.36480000  1
  H  H177  1  0.91490000  0.35340000  0.63520000  1
  H  H178  1  0.44390000  0.39140000  0.54070000  1
  H  H179  1  0.05250000  0.60860000  0.45930000  1
  H  H180  1  0.55610000  0.60860000  0.04070000  1
  H  H181  1  0.94750000  0.39140000  0.95930000  1
  H  H182  1  0.43850000  0.35340000  0.86480000  1
  H  H183  1  0.08510000  0.64660000  0.13520000  1
  H  H184  1  0.58360000  0.63680000  0.61030000  1
  H  H185  1  0.94680000  0.36320000  0.38970000  1
  H  H186  1  0.52660000  0.50740000  0.05380000  1
  H  H187  1  0.01920000  0.49260000  0.94620000  1
  H  H188  1  0.48560000  0.41320000  0.41920000  1
  H  H189  1  0.07240000  0.58680000  0.58080000  1
  H  H190  1  0.54260000  0.51740000  0.42980000  1
  H  H191  1  0.02520000  0.48260000  0.57020000  1
  H  H192  1  0.73200000  0.84820000  0.79360000  1
  H  H193  1  0.88380000  0.15180000  0.20640000  1
  H  H194  1  0.66270000  0.70040000  0.82600000  1
  H  H195  1  0.96230000  0.29960000  0.17400000  1
  H  H196  1  0.37990000  0.13120000  0.69140000  1
  H  H197  1  0.24870000  0.86880000  0.30860000  1
  H  H198  1  0.45980000  0.28120000  0.65340000  1
  H  H199  1  0.17860000  0.71880000  0.34660000  1
  H  H200  1  0.53050000  0.20900000  0.08270000  1
  H  H201  1  0.32150000  0.79100000  0.91730000  1
  H  H202  1  0.61170000  0.35700000  0.05060000  1
  H  H203  1  0.25470000  0.64300000  0.94940000  1
  H  H204  1  0.83240000  0.79060000  0.41590000  1
  H  H205  1  0.04180000  0.20940000  0.58410000  1
  H  H206  1  0.76560000  0.64280000  0.44840000  1
  H  H207  1  0.12280000  0.35720000  0.55160000  1
  H  H208  1  0.47200000  0.00420000  0.68250000  1
  H  H209  1  0.46780000  0.99580000  0.31750000  1
  H  H210  1  0.96710000  0.99020000  0.81440000  1
  H  H211  1  0.97690000  0.00980000  0.18560000  1
  H  H212  1  0.55200000  0.14520000  0.87210000  1
  H  H213  1  0.40680000  0.85480000  0.12790000  1
  H  H214  1  0.53170000  0.10080000  0.31700000  1
  H  H215  1  0.43090000  0.89920000  0.68300000  1
  H  H216  1  0.93830000  0.90580000  0.18710000  1
  H  H217  1  0.03250000  0.09420000  0.81290000  1
  H  H218  1  0.91350000  0.85600000  0.62720000  1
  H  H219  1  0.05750000  0.14400000  0.37280000  1
  H  H220  1  0.71870000  0.45560000  0.18200000  1
  H  H221  1  0.26310000  0.54440000  0.81800000  1
  H  H222  1  0.77170000  0.56080000  0.18180000  1
  H  H223  1  0.21090000  0.43920000  0.81820000  1
  N  N224  1  0.12260000  0.24520000  0.25000000  1
  N  N225  1  0.37810000  0.75620000  0.25000000  1
  N  N226  1  0.62190000  0.24380000  0.75000000  1
  N  N227  1  0.87740000  0.75480000  0.75000000  1
  N  N228  1  0.20140000  0.38900000  0.21100000  1
  N  N229  1  0.81240000  0.61100000  0.78900000  1
  N  N230  1  0.31470000  0.61260000  0.28910000  1
  N  N231  1  0.70210000  0.38740000  0.71090000  1
  N  N232  1  0.20450000  0.34020000  0.05990000  1
  N  N233  1  0.86430000  0.65980000  0.94010000  1
  N  N234  1  0.11670000  0.15880000  0.01800000  1
  N  N235  1  0.95790000  0.84120000  0.98200000  1
  N  N236  1  0.37080000  0.65940000  0.43840000  1
  N  N237  1  0.71140000  0.34060000  0.56160000  1
  N  N238  1  0.46440000  0.84100000  0.48120000  1
  N  N239  1  0.62340000  0.15900000  0.51880000  1
  N  N240  1  0.38370000  0.34820000  0.22020000  1
  N  N241  1  0.03550000  0.65180000  0.77980000  1
  N  N242  1  0.54400000  0.66740000  0.25540000  1
  N  N243  1  0.87660000  0.33260000  0.74460000  1
  N  N244  1  0.63630000  0.84780000  0.30030000  1
  N  N245  1  0.78850000  0.15220000  0.69970000  1
  N  N246  1  0.29650000  0.16560000  0.18410000  1
  N  N247  1  0.13090000  0.83440000  0.81590000  1
  N  N248  1  0.69060000  0.89240000  0.45500000  1
  N  N249  1  0.79820000  0.10760000  0.54500000  1
  N  N250  1  0.30050000  0.11080000  0.03290000  1
  N  N251  1  0.18970000  0.88920000  0.96710000  1
  N  N252  1  0.37680000  0.25480000  0.98930000  1
  N  N253  1  0.12200000  0.74520000  0.01070000  1
  N  N254  1  0.62320000  0.74520000  0.48930000  1
  N  N255  1  0.87800000  0.25480000  0.51070000  1
  N  N256  1  0.69950000  0.88920000  0.53290000  1
  N  N257  1  0.81030000  0.11080000  0.46710000  1
  N  N258  1  0.30940000  0.10760000  0.95500000  1
  N  N259  1  0.20180000  0.89240000  0.04500000  1
  N  N260  1  0.70350000  0.83440000  0.68410000  1
  N  N261  1  0.86910000  0.16560000  0.31590000  1
  N  N262  1  0.36370000  0.15220000  0.80030000  1
  N  N263  1  0.21150000  0.84780000  0.19970000  1
  N  N264  1  0.45600000  0.33260000  0.75540000  1
  N  N265  1  0.12340000  0.66740000  0.24460000  1
  N  N266  1  0.61630000  0.65180000  0.72020000  1
  N  N267  1  0.96450000  0.34820000  0.27980000  1
  N  N268  1  0.53560000  0.15900000  0.98120000  1
  N  N269  1  0.37660000  0.84100000  0.01880000  1
  N  N270  1  0.62920000  0.34060000  0.93840000  1
  N  N271  1  0.28860000  0.65940000  0.06160000  1
  N  N272  1  0.88330000  0.84120000  0.51800000  1
  N  N273  1  0.04210000  0.15880000  0.48200000  1
  N  N274  1  0.79550000  0.65980000  0.55990000  1
  N  N275  1  0.13570000  0.34020000  0.44010000  1
  N  N276  1  0.68530000  0.38740000  0.78910000  1
  N  N277  1  0.29790000  0.61260000  0.21090000  1
  N  N278  1  0.79860000  0.61100000  0.71100000  1
  N  N279  1  0.18760000  0.38900000  0.28900000  1
  O  O280  1  0.35730000  0.53000000  0.01560000  1
  O  O281  1  0.82730000  0.47000000  0.98440000  1
  O  O282  1  0.10410000  0.00980000  0.89620000  1
  O  O283  1  0.09430000  0.99020000  0.10380000  1
  O  O284  1  0.59280000  0.98500000  0.60550000  1
  O  O285  1  0.60780000  0.01500000  0.39450000  1
  O  O286  1  0.34300000  0.46360000  0.46260000  1
  O  O287  1  0.87940000  0.53640000  0.53740000  1
  O  O288  1  0.40330000  0.52260000  0.13060000  1
  O  O289  1  0.88070000  0.47740000  0.86940000  1
  O  O290  1  0.37000000  0.44980000  0.78090000  1
  O  O291  1  0.92020000  0.55020000  0.21910000  1
  O  O292  1  0.15990000  0.02320000  0.77690000  1
  O  O293  1  0.62650000  0.95640000  0.72310000  1
  O  O294  1  0.67010000  0.04360000  0.27690000  1
  O  O295  1  0.13670000  0.97680000  0.22310000  1
  O  O296  1  0.41990000  0.53060000  0.67560000  1
  O  O297  1  0.88930000  0.46940000  0.32440000  1
  O  O298  1  0.40110000  0.49100000  0.34640000  1
  O  O299  1  0.91010000  0.50900000  0.65360000  1
  O  O300  1  0.59890000  0.50900000  0.84640000  1
  O  O301  1  0.08990000  0.49100000  0.15360000  1
  O  O302  1  0.58010000  0.46940000  0.17560000  1
  O  O303  1  0.11070000  0.53060000  0.82440000  1
  O  O304  1  0.37350000  0.04360000  0.22310000  1
  O  O305  1  0.84010000  0.97680000  0.27690000  1
  O  O306  1  0.86330000  0.02320000  0.72310000  1
  O  O307  1  0.32990000  0.95640000  0.77690000  1
  O  O308  1  0.63000000  0.55020000  0.28090000  1
  O  O309  1  0.07980000  0.44980000  0.71910000  1
  O  O310  1  0.59670000  0.47740000  0.63060000  1
  O  O311  1  0.11930000  0.52260000  0.36940000  1
  O  O312  1  0.65700000  0.53640000  0.96260000  1
  O  O313  1  0.12060000  0.46360000  0.03740000  1
  O  O314  1  0.40720000  0.01500000  0.10550000  1
  O  O315  1  0.39220000  0.98500000  0.89450000  1
  O  O316  1  0.89590000  0.99020000  0.39620000  1
  O  O317  1  0.90570000  0.00980000  0.60380000  1
  O  O318  1  0.64270000  0.47000000  0.51560000  1
  O  O319  1  0.17270000  0.53000000  0.48440000  1
