# generated using pymatgen
data_Zn2H8(C5O2)5
_symmetry_space_group_name_H-M   'P 1'
_cell_length_a   17.04159530
_cell_length_b   17.04159530
_cell_length_c   17.04159530
_cell_angle_alpha   108.36757410
_cell_angle_beta   108.36757410
_cell_angle_gamma   108.36757410
_symmetry_Int_Tables_number   1
_chemical_formula_structural   Zn2H8(C5O2)5
_chemical_formula_sum   'Zn12 H48 C150 O60'
_cell_volume   3957.88215936
_cell_formula_units_Z   6
loop_
 _symmetry_equiv_pos_site_id
 _symmetry_equiv_pos_as_xyz
  1  'x, y, z'
loop_
 _atom_site_type_symbol
 _atom_site_label
 _atom_site_symmetry_multiplicity
 _atom_site_fract_x
 _atom_site_fract_y
 _atom_site_fract_z
 _atom_site_occupancy
  C  C0  1  0.59320000  0.45030000  0.69410000  1
  C  C1  1  0.14128000  0.53975000  0.66817000  1
  C  C2  1  0.12871000  0.60865000  0.55814000  1
  C  C3  1  0.11825000  0.68191000  0.45184000  1
  C  C4  1  0.45184000  0.11825000  0.68191000  1
  C  C5  1  0.88213000  0.07205000  0.56732000  1
  C  C6  1  0.12174000  0.53180000  0.57326000  1
  C  C7  1  0.60840000  0.37260000  0.69990000  1
  C  C8  1  0.11029000  0.60005000  0.46966000  1
  C  C9  1  0.25450000  0.02030000  0.33310000  1
  C  C10  1  0.19370000  0.24480000  0.98520000  1
  C  C11  1  0.66531000  0.15145000  0.00534000  1
  C  C12  1  0.56732000  0.88213000  0.07205000  1
  C  C13  1  0.56310000  0.34160000  0.60310000  1
  C  C14  1  0.19330000  0.98280000  0.22180000  1
  C  C15  1  0.27300000  0.34070000  0.01880000  1
  C  C16  1  0.39700000  0.08500000  0.51620000  1
  C  C17  1  0.62106000  0.01330000  0.03504000  1
  C  C18  1  0.00534000  0.66531000  0.15145000  1
  C  C19  1  0.87608000  0.55727000  0.98885000  1
  C  C20  1  0.31809000  0.54816000  0.88175000  1
  C  C21  1  0.61425000  0.04828000  0.97057000  1
  C  C22  1  0.56679000  0.91947000  0.00404000  1
  C  C23  1  0.46966000  0.11029000  0.60005000  1
  C  C24  1  0.09580000  0.44730000  0.50070000  1
  C  C25  1  0.17640000  0.20450000  0.90450000  1
  C  C26  1  0.50722000  0.85986000  0.90932000  1
  C  C27  1  0.55727000  0.98885000  0.87608000  1
  C  C28  1  0.08500000  0.51620000  0.39700000  1
  C  C29  1  0.22180000  0.19330000  0.98280000  1
  C  C30  1  0.91947000  0.00404000  0.56679000  1
  C  C31  1  0.53975000  0.66817000  0.14128000  1
  C  C32  1  0.50592000  0.89437000  0.84551000  1
  C  C33  1  0.97057000  0.61425000  0.04828000  1
  C  C34  1  0.71330000  0.40310000  0.74210000  1
  C  C35  1  0.84551000  0.50592000  0.89437000  1
  C  C36  1  0.44730000  0.50070000  0.09580000  1
  C  C37  1  0.60310000  0.56310000  0.34160000  1
  C  C38  1  0.85986000  0.90932000  0.50722000  1
  C  C39  1  0.07810000  0.43970000  0.41290000  1
  C  C40  1  0.92795000  0.43268000  0.11787000  1
  C  C41  1  0.41290000  0.07810000  0.43970000  1
  C  C42  1  0.24480000  0.98520000  0.19370000  1
  C  C43  1  0.20450000  0.90450000  0.17640000  1
  C  C44  1  0.69410000  0.59320000  0.45030000  1
  C  C45  1  0.33183000  0.85872000  0.46025000  1
  C  C46  1  0.40310000  0.74210000  0.71330000  1
  C  C47  1  0.84855000  0.99466000  0.33469000  1
  C  C48  1  0.74210000  0.71330000  0.40310000  1
  C  C49  1  0.53180000  0.57326000  0.12174000  1
  C  C50  1  0.01330000  0.03504000  0.62106000  1
  C  C51  1  0.55814000  0.12871000  0.60865000  1
  C  C52  1  0.39995000  0.53034000  0.88971000  1
  C  C53  1  0.54970000  0.30590000  0.40680000  1
  C  C54  1  0.43970000  0.41290000  0.07810000  1
  C  C55  1  0.34070000  0.01880000  0.27300000  1
  C  C56  1  0.33310000  0.25450000  0.02030000  1
  C  C57  1  0.69990000  0.60840000  0.37260000  1
  C  C58  1  0.01880000  0.27300000  0.34070000  1
  C  C59  1  0.90450000  0.17640000  0.20450000  1
  C  C60  1  0.03504000  0.62106000  0.01330000  1
  C  C61  1  0.37260000  0.69990000  0.60840000  1
  C  C62  1  0.89437000  0.84551000  0.50592000  1
  C  C63  1  0.01720000  0.77820000  0.80670000  1
  C  C64  1  0.48380000  0.60300000  0.91500000  1
  C  C65  1  0.90932000  0.50722000  0.85986000  1
  C  C66  1  0.02030000  0.33310000  0.25450000  1
  C  C67  1  0.01115000  0.12392000  0.44273000  1
  C  C68  1  0.50070000  0.09580000  0.44730000  1
  C  C69  1  0.01480000  0.80630000  0.75520000  1
  C  C70  1  0.39135000  0.44186000  0.87129000  1
  C  C71  1  0.99596000  0.43321000  0.08053000  1
  C  C72  1  0.65840000  0.39690000  0.43690000  1
  C  C73  1  0.95172000  0.02943000  0.38575000  1
  C  C74  1  0.57326000  0.12174000  0.53180000  1
  C  C75  1  0.42674000  0.87826000  0.46820000  1
  C  C76  1  0.04828000  0.97057000  0.61425000  1
  C  C77  1  0.34160000  0.60310000  0.56310000  1
  C  C78  1  0.00404000  0.56679000  0.91947000  1
  C  C79  1  0.60865000  0.55814000  0.12871000  1
  C  C80  1  0.98520000  0.19370000  0.24480000  1
  C  C81  1  0.49930000  0.90420000  0.55270000  1
  C  C82  1  0.98885000  0.87608000  0.55727000  1
  C  C83  1  0.97970000  0.66690000  0.74550000  1
  C  C84  1  0.09068000  0.49278000  0.14014000  1
  C  C85  1  0.51620000  0.39700000  0.08500000  1
  C  C86  1  0.98280000  0.22180000  0.19330000  1
  C  C87  1  0.10563000  0.15449000  0.49408000  1
  C  C88  1  0.62740000  0.30010000  0.39160000  1
  C  C89  1  0.96496000  0.37894000  0.98670000  1
  C  C90  1  0.09550000  0.82360000  0.79550000  1
  C  C91  1  0.98120000  0.72700000  0.65930000  1
  C  C92  1  0.30010000  0.39160000  0.62740000  1
  C  C93  1  0.66690000  0.74550000  0.97970000  1
  C  C94  1  0.65930000  0.98120000  0.72700000  1
  C  C95  1  0.56030000  0.58710000  0.92190000  1
  C  C96  1  0.45030000  0.69410000  0.59320000  1
  C  C97  1  0.60005000  0.46966000  0.11029000  1
  C  C98  1  0.44186000  0.87129000  0.39135000  1
  C  C99  1  0.98670000  0.96496000  0.37894000  1
  C  C100  1  0.46820000  0.42674000  0.87826000  1
  C  C101  1  0.25790000  0.28670000  0.59690000  1
  C  C102  1  0.15145000  0.00534000  0.66531000  1
  C  C103  1  0.59690000  0.25790000  0.28670000  1
  C  C104  1  0.30590000  0.40680000  0.54970000  1
  C  C105  1  0.66817000  0.14128000  0.53975000  1
  C  C106  1  0.79550000  0.09550000  0.82360000  1
  C  C107  1  0.75520000  0.01480000  0.80630000  1
  C  C108  1  0.58710000  0.92190000  0.56030000  1
  C  C109  1  0.07205000  0.56732000  0.88213000  1
  C  C110  1  0.92190000  0.56030000  0.58710000  1
  C  C111  1  0.14014000  0.09068000  0.49278000  1
  C  C112  1  0.39690000  0.43690000  0.65840000  1
  C  C113  1  0.55270000  0.49930000  0.90420000  1
  C  C114  1  0.15449000  0.49408000  0.10563000  1
  C  C115  1  0.28670000  0.59690000  0.25790000  1
  C  C116  1  0.02943000  0.38575000  0.95172000  1
  C  C117  1  0.49408000  0.10563000  0.15449000  1
  C  C118  1  0.46025000  0.33183000  0.85872000  1
  C  C119  1  0.08053000  0.99596000  0.43321000  1
  C  C120  1  0.77820000  0.80670000  0.01720000  1
  C  C121  1  0.91500000  0.48380000  0.60300000  1
  C  C122  1  0.44273000  0.01115000  0.12392000  1
  C  C123  1  0.49278000  0.14014000  0.09068000  1
  C  C124  1  0.82360000  0.79550000  0.09550000  1
  C  C125  1  0.90420000  0.55270000  0.49930000  1
  C  C126  1  0.53034000  0.88971000  0.39995000  1
  C  C127  1  0.43321000  0.08053000  0.99596000  1
  C  C128  1  0.38575000  0.95172000  0.02943000  1
  C  C129  1  0.68191000  0.45184000  0.11825000  1
  C  C130  1  0.12392000  0.44273000  0.01115000  1
  C  C131  1  0.99466000  0.33469000  0.84855000  1
  C  C132  1  0.37894000  0.98670000  0.96496000  1
  C  C133  1  0.60300000  0.91500000  0.48380000  1
  C  C134  1  0.72700000  0.65930000  0.98120000  1
  C  C135  1  0.80670000  0.01720000  0.77820000  1
  C  C136  1  0.43690000  0.65840000  0.39690000  1
  C  C137  1  0.43268000  0.11787000  0.92795000  1
  C  C138  1  0.33469000  0.84855000  0.99466000  1
  C  C139  1  0.80630000  0.75520000  0.01480000  1
  C  C140  1  0.74550000  0.97970000  0.66690000  1
  C  C141  1  0.88971000  0.39995000  0.53034000  1
  C  C142  1  0.39160000  0.62740000  0.30010000  1
  C  C143  1  0.87826000  0.46820000  0.42674000  1
  C  C144  1  0.11787000  0.92795000  0.43268000  1
  C  C145  1  0.54816000  0.88175000  0.31809000  1
  C  C146  1  0.88175000  0.31809000  0.54816000  1
  C  C147  1  0.87129000  0.39135000  0.44186000  1
  C  C148  1  0.85872000  0.46025000  0.33183000  1
  C  C149  1  0.40680000  0.54970000  0.30590000  1
  H  H150  1  0.14580000  0.66630000  0.60760000  1
  H  H151  1  0.33670000  0.07250000  0.51100000  1
  H  H152  1  0.83250000  0.55350000  0.01280000  1
  H  H153  1  0.66240000  0.05340000  0.09940000  1
  H  H154  1  0.39480000  0.51130000  0.09030000  1
  H  H155  1  0.79620000  0.88870000  0.46790000  1
  H  H156  1  0.34800000  0.72530000  0.72460000  1
  H  H157  1  0.71840000  0.74310000  0.44350000  1
  H  H158  1  0.46790000  0.79620000  0.88870000  1
  H  H159  1  0.55350000  0.01280000  0.83250000  1
  H  H160  1  0.09030000  0.39480000  0.51130000  1
  H  H161  1  0.07250000  0.51100000  0.33670000  1
  H  H162  1  0.74310000  0.44350000  0.71840000  1
  H  H163  1  0.05340000  0.09940000  0.66240000  1
  H  H164  1  0.98720000  0.16750000  0.44650000  1
  H  H165  1  0.72460000  0.34800000  0.72530000  1
  H  H166  1  0.72530000  0.72460000  0.34800000  1
  H  H167  1  0.48900000  0.66330000  0.92750000  1
  H  H168  1  0.60760000  0.14580000  0.66630000  1
  H  H169  1  0.33370000  0.39240000  0.85420000  1
  H  H170  1  0.44350000  0.71840000  0.74310000  1
  H  H171  1  0.48870000  0.90970000  0.60520000  1
  H  H172  1  0.09940000  0.66240000  0.05340000  1
  H  H173  1  0.11130000  0.53210000  0.20380000  1
  H  H174  1  0.88870000  0.46790000  0.79620000  1
  H  H175  1  0.90060000  0.33760000  0.94660000  1
  H  H176  1  0.51130000  0.09030000  0.39480000  1
  H  H177  1  0.55650000  0.28160000  0.25690000  1
  H  H178  1  0.66630000  0.60760000  0.14580000  1
  H  H179  1  0.39240000  0.85420000  0.33370000  1
  H  H180  1  0.51100000  0.33670000  0.07250000  1
  H  H181  1  0.27470000  0.27540000  0.65200000  1
  H  H182  1  0.27540000  0.65200000  0.27470000  1
  H  H183  1  0.01280000  0.83250000  0.55350000  1
  H  H184  1  0.94660000  0.90060000  0.33760000  1
  H  H185  1  0.25690000  0.55650000  0.28160000  1
  H  H186  1  0.92750000  0.48900000  0.66330000  1
  H  H187  1  0.90970000  0.60520000  0.48870000  1
  H  H188  1  0.44650000  0.98720000  0.16750000  1
  H  H189  1  0.53210000  0.20380000  0.11130000  1
  H  H190  1  0.28160000  0.25690000  0.55650000  1
  H  H191  1  0.65200000  0.27470000  0.27540000  1
  H  H192  1  0.20380000  0.11130000  0.53210000  1
  H  H193  1  0.60520000  0.48870000  0.90970000  1
  H  H194  1  0.33760000  0.94660000  0.90060000  1
  H  H195  1  0.16750000  0.44650000  0.98720000  1
  H  H196  1  0.66330000  0.92750000  0.48900000  1
  H  H197  1  0.85420000  0.33370000  0.39240000  1
  O  O198  1  0.86623000  0.24435000  0.48310000  1
  O  O199  1  0.83220000  0.38130000  0.26765000  1
  O  O200  1  0.62763000  0.89185000  0.32770000  1
  O  O201  1  0.94664000  0.65826000  0.18213000  1
  O  O202  1  0.80658000  0.04691000  0.49953000  1
  O  O203  1  0.92899000  0.15273000  0.63727000  1
  O  O204  1  0.13101000  0.46705000  0.67734000  1
  O  O205  1  0.46705000  0.67734000  0.13101000  1
  O  O206  1  0.71237000  0.20124000  0.09170000  1
  O  O207  1  0.32770000  0.62763000  0.89185000  1
  O  O208  1  0.24435000  0.48310000  0.86623000  1
  O  O209  1  0.51690000  0.13377000  0.75565000  1
  O  O210  1  0.49953000  0.80658000  0.04691000  1
  O  O211  1  0.10815000  0.67230000  0.37237000  1
  O  O212  1  0.65826000  0.18213000  0.94664000  1
  O  O213  1  0.63727000  0.92899000  0.15273000  1
  O  O214  1  0.75067000  0.45342000  0.84158000  1
  O  O215  1  0.95309000  0.50047000  0.19342000  1
  O  O216  1  0.81787000  0.05336000  0.34174000  1
  O  O217  1  0.32266000  0.86899000  0.53295000  1
  O  O218  1  0.84727000  0.36273000  0.07101000  1
  O  O219  1  0.09170000  0.71237000  0.20124000  1
  O  O220  1  0.34210000  0.05280000  0.35700000  1
  O  O221  1  0.45342000  0.84158000  0.75067000  1
  O  O222  1  0.35700000  0.34210000  0.05280000  1
  O  O223  1  0.26765000  0.83220000  0.38130000  1
  O  O224  1  0.61870000  0.73235000  0.16780000  1
  O  O225  1  0.79876000  0.90830000  0.28763000  1
  O  O226  1  0.05280000  0.35700000  0.34210000  1
  O  O227  1  0.84158000  0.75067000  0.45342000  1
  O  O228  1  0.15842000  0.24933000  0.54658000  1
  O  O229  1  0.94720000  0.64300000  0.65790000  1
  O  O230  1  0.20124000  0.09170000  0.71237000  1
  O  O231  1  0.38130000  0.26765000  0.83220000  1
  O  O232  1  0.73235000  0.16780000  0.61870000  1
  O  O233  1  0.64300000  0.65790000  0.94720000  1
  O  O234  1  0.54658000  0.15842000  0.24933000  1
  O  O235  1  0.65790000  0.94720000  0.64300000  1
  O  O236  1  0.90830000  0.28763000  0.79876000  1
  O  O237  1  0.15273000  0.63727000  0.92899000  1
  O  O238  1  0.67734000  0.13101000  0.46705000  1
  O  O239  1  0.18213000  0.94664000  0.65826000  1
  O  O240  1  0.04691000  0.49953000  0.80658000  1
  O  O241  1  0.24933000  0.54658000  0.15842000  1
  O  O242  1  0.36273000  0.07101000  0.84727000  1
  O  O243  1  0.34174000  0.81787000  0.05336000  1
  O  O244  1  0.89185000  0.32770000  0.62763000  1
  O  O245  1  0.50047000  0.19342000  0.95309000  1
  O  O246  1  0.48310000  0.86623000  0.24435000  1
  O  O247  1  0.75565000  0.51690000  0.13377000  1
  O  O248  1  0.67230000  0.37237000  0.10815000  1
  O  O249  1  0.28763000  0.79876000  0.90830000  1
  O  O250  1  0.53295000  0.32266000  0.86899000  1
  O  O251  1  0.86899000  0.53295000  0.32266000  1
  O  O252  1  0.07101000  0.84727000  0.36273000  1
  O  O253  1  0.19342000  0.95309000  0.50047000  1
  O  O254  1  0.05336000  0.34174000  0.81787000  1
  O  O255  1  0.37237000  0.10815000  0.67230000  1
  O  O256  1  0.16780000  0.61870000  0.73235000  1
  O  O257  1  0.13377000  0.75565000  0.51690000  1
  Zn  Zn258  1  0.76987000  0.11374000  0.42525000  1
  Zn  Zn259  1  0.11374000  0.42525000  0.76987000  1
  Zn  Zn260  1  0.57475000  0.23013000  0.88626000  1
  Zn  Zn261  1  0.77097000  0.33590000  0.13367000  1
  Zn  Zn262  1  0.13367000  0.77097000  0.33590000  1
  Zn  Zn263  1  0.66410000  0.86633000  0.22903000  1
  Zn  Zn264  1  0.33590000  0.13367000  0.77097000  1
  Zn  Zn265  1  0.86633000  0.22903000  0.66410000  1
  Zn  Zn266  1  0.22903000  0.66410000  0.86633000  1
  Zn  Zn267  1  0.42525000  0.76987000  0.11374000  1
  Zn  Zn268  1  0.88626000  0.57475000  0.23013000  1
  Zn  Zn269  1  0.23013000  0.88626000  0.57475000  1
