# generated using pymatgen
data_PrH5C9NO6
_symmetry_space_group_name_H-M   'P 1'
_cell_length_a   6.66300000
_cell_length_b   13.58800000
_cell_length_c   15.93000000
_cell_angle_alpha   90.00000000
_cell_angle_beta   97.39200000
_cell_angle_gamma   90.00000000
_symmetry_Int_Tables_number   1
_chemical_formula_structural   PrH5C9NO6
_chemical_formula_sum   'Pr4 H20 C36 N4 O24'
_cell_volume   1430.26556528
_cell_formula_units_Z   4
loop_
 _symmetry_equiv_pos_site_id
 _symmetry_equiv_pos_as_xyz
  1  'x, y, z'
loop_
 _atom_site_type_symbol
 _atom_site_label
 _atom_site_symmetry_multiplicity
 _atom_site_fract_x
 _atom_site_fract_y
 _atom_site_fract_z
 _atom_site_occupancy
  Pr  Pr0  1  0.02861000  0.94004000  0.74945000  1
  Pr  Pr1  1  0.52861000  0.55996000  0.74945000  1
  Pr  Pr2  1  0.47139000  0.44004000  0.25055000  1
  Pr  Pr3  1  0.97139000  0.05996000  0.25055000  1
  H  H4  1  0.05240000  0.40730000  0.97810000  1
  H  H5  1  0.55240000  0.09270000  0.97810000  1
  H  H6  1  0.61880000  0.93250000  0.96650000  1
  H  H7  1  0.11880000  0.56750000  0.96650000  1
  H  H8  1  0.96910000  0.30220000  0.68190000  1
  H  H9  1  0.46910000  0.19780000  0.68190000  1
  H  H10  1  0.64530000  0.93120000  0.53700000  1
  H  H11  1  0.14530000  0.56880000  0.53700000  1
  H  H12  1  0.09680000  0.86390000  0.52710000  1
  H  H13  1  0.59680000  0.63610000  0.52710000  1
  H  H14  1  0.40320000  0.36390000  0.47290000  1
  H  H15  1  0.90320000  0.13610000  0.47290000  1
  H  H16  1  0.85470000  0.43120000  0.46300000  1
  H  H17  1  0.35470000  0.06880000  0.46300000  1
  H  H18  1  0.53090000  0.80220000  0.31810000  1
  H  H19  1  0.03090000  0.69780000  0.31810000  1
  H  H20  1  0.88120000  0.43250000  0.03350000  1
  H  H21  1  0.38120000  0.06750000  0.03350000  1
  H  H22  1  0.44760000  0.90730000  0.02190000  1
  H  H23  1  0.94760000  0.59270000  0.02190000  1
  C  C24  1  0.48900000  0.95390000  0.98130000  1
  C  C25  1  0.98900000  0.54610000  0.98130000  1
  C  C26  1  0.32900000  0.95240000  0.89930000  1
  C  C27  1  0.82900000  0.54760000  0.89930000  1
  C  C28  1  0.65750000  0.78390000  0.64330000  1
  C  C29  1  0.15750000  0.71610000  0.64330000  1
  C  C30  1  0.47820000  0.38560000  0.64230000  1
  C  C31  1  0.97820000  0.11440000  0.64230000  1
  C  C32  1  0.94480000  0.29750000  0.62320000  1
  C  C33  1  0.44480000  0.20250000  0.62320000  1
  C  C34  1  0.44220000  0.29580000  0.58640000  1
  C  C35  1  0.94220000  0.20420000  0.58640000  1
  C  C36  1  0.62300000  0.78340000  0.54850000  1
  C  C37  1  0.12300000  0.71660000  0.54850000  1
  C  C38  1  0.62110000  0.87380000  0.50560000  1
  C  C39  1  0.12110000  0.62620000  0.50560000  1
  C  C40  1  0.09300000  0.80280000  0.50070000  1
  C  C41  1  0.59300000  0.69720000  0.50070000  1
  C  C42  1  0.40700000  0.30280000  0.49930000  1
  C  C43  1  0.90700000  0.19720000  0.49930000  1
  C  C44  1  0.87890000  0.37380000  0.49440000  1
  C  C45  1  0.37890000  0.12620000  0.49440000  1
  C  C46  1  0.87700000  0.28340000  0.45150000  1
  C  C47  1  0.37700000  0.21660000  0.45150000  1
  C  C48  1  0.05780000  0.79580000  0.41360000  1
  C  C49  1  0.55780000  0.70420000  0.41360000  1
  C  C50  1  0.55520000  0.79750000  0.37680000  1
  C  C51  1  0.05520000  0.70250000  0.37680000  1
  C  C52  1  0.02180000  0.88560000  0.35770000  1
  C  C53  1  0.52180000  0.61440000  0.35770000  1
  C  C54  1  0.84250000  0.28390000  0.35670000  1
  C  C55  1  0.34250000  0.21610000  0.35670000  1
  C  C56  1  0.17100000  0.45240000  0.10070000  1
  C  C57  1  0.67100000  0.04760000  0.10070000  1
  C  C58  1  0.01100000  0.45390000  0.01870000  1
  C  C59  1  0.51100000  0.04610000  0.01870000  1
  N  N60  1  0.91400000  0.38050000  0.57840000  1
  N  N61  1  0.41400000  0.11950000  0.57840000  1
  N  N62  1  0.58600000  0.88050000  0.42160000  1
  N  N63  1  0.08600000  0.61950000  0.42160000  1
  O  O64  1  0.68500000  0.48670000  0.88860000  1
  O  O65  1  0.18500000  0.01330000  0.88860000  1
  O  O66  1  0.33940000  0.88300000  0.84900000  1
  O  O67  1  0.83940000  0.61700000  0.84900000  1
  O  O68  1  0.54950000  0.37550000  0.71870000  1
  O  O69  1  0.04950000  0.12450000  0.71870000  1
  O  O70  1  0.70990000  0.86200000  0.68060000  1
  O  O71  1  0.20990000  0.63800000  0.68060000  1
  O  O72  1  0.13330000  0.79560000  0.67960000  1
  O  O73  1  0.63330000  0.70440000  0.67960000  1
  O  O74  1  0.43700000  0.46910000  0.61020000  1
  O  O75  1  0.93700000  0.03090000  0.61020000  1
  O  O76  1  0.06300000  0.96910000  0.38980000  1
  O  O77  1  0.56300000  0.53090000  0.38980000  1
  O  O78  1  0.36670000  0.29560000  0.32040000  1
  O  O79  1  0.86670000  0.20440000  0.32040000  1
  O  O80  1  0.79010000  0.36200000  0.31940000  1
  O  O81  1  0.29010000  0.13800000  0.31940000  1
  O  O82  1  0.95050000  0.87550000  0.28130000  1
  O  O83  1  0.45050000  0.62450000  0.28130000  1
  O  O84  1  0.16060000  0.38300000  0.15100000  1
  O  O85  1  0.66060000  0.11700000  0.15100000  1
  O  O86  1  0.81500000  0.98670000  0.11140000  1
  O  O87  1  0.31500000  0.51330000  0.11140000  1
