# generated using pymatgen
data_MnH2C4N4Cl
_symmetry_space_group_name_H-M   'P 1'
_cell_length_a   8.60300000
_cell_length_b   19.27740000
_cell_length_c   19.27738827
_cell_angle_alpha   117.82720649
_cell_angle_beta   98.55487113
_cell_angle_gamma   98.55500000
_symmetry_Int_Tables_number   1
_chemical_formula_structural   MnH2C4N4Cl
_chemical_formula_sum   'Mn6 H12 C24 N24 Cl6'
_cell_volume   2707.44030643
_cell_formula_units_Z   6
loop_
 _symmetry_equiv_pos_site_id
 _symmetry_equiv_pos_as_xyz
  1  'x, y, z'
loop_
 _atom_site_type_symbol
 _atom_site_label
 _atom_site_symmetry_multiplicity
 _atom_site_fract_x
 _atom_site_fract_y
 _atom_site_fract_z
 _atom_site_occupancy
  Mn  Mn0  1  0.77890000  0.27957000  0.69677000  1
  Mn  Mn1  1  0.50067000  0.58280000  0.27957000  1
  Mn  Mn2  1  0.08213000  0.30323000  0.58280000  1
  Mn  Mn3  1  0.91787000  0.69677000  0.41720000  1
  Mn  Mn4  1  0.49933000  0.41720000  0.72043000  1
  Mn  Mn5  1  0.22110000  0.72043000  0.30323000  1
  H  H6  1  0.38850000  0.90500000  0.36370000  1
  H  H7  1  0.66530000  0.97070000  0.58360000  1
  H  H8  1  0.91830000  0.58360000  0.61290000  1
  H  H9  1  0.30540000  0.38710000  0.97070000  1
  H  H10  1  0.48350000  0.45870000  0.09500000  1
  H  H11  1  0.02480000  0.63630000  0.54130000  1
  H  H12  1  0.97520000  0.36370000  0.45870000  1
  H  H13  1  0.51650000  0.54130000  0.90500000  1
  H  H14  1  0.69460000  0.61290000  0.02930000  1
  H  H15  1  0.08170000  0.41640000  0.38710000  1
  H  H16  1  0.33470000  0.02930000  0.41640000  1
  H  H17  1  0.61150000  0.09500000  0.63630000  1
  C  C18  1  0.43350000  0.94280000  0.41800000  1
  C  C19  1  0.59910000  0.98220000  0.54960000  1
  C  C20  1  0.53780000  0.92220000  0.46830000  1
  C  C21  1  0.57990000  0.84650000  0.43660000  1
  C  C22  1  0.85670000  0.43660000  0.59010000  1
  C  C23  1  0.95050000  0.54960000  0.56740000  1
  C  C24  1  0.93050000  0.46830000  0.54610000  1
  C  C25  1  0.38310000  0.43260000  0.98220000  1
  C  C26  1  0.26660000  0.40990000  0.84650000  1
  C  C27  1  0.49070000  0.47520000  0.05720000  1
  C  C28  1  0.38440000  0.45390000  0.92220000  1
  C  C29  1  0.01550000  0.58200000  0.52480000  1
  C  C30  1  0.98450000  0.41800000  0.47520000  1
  C  C31  1  0.61560000  0.54610000  0.07780000  1
  C  C32  1  0.50930000  0.52480000  0.94280000  1
  C  C33  1  0.73340000  0.59010000  0.15350000  1
  C  C34  1  0.61690000  0.56740000  0.01780000  1
  C  C35  1  0.06950000  0.53170000  0.45390000  1
  C  C36  1  0.04950000  0.45040000  0.43260000  1
  C  C37  1  0.14330000  0.56340000  0.40990000  1
  C  C38  1  0.42010000  0.15350000  0.56340000  1
  C  C39  1  0.46220000  0.07780000  0.53170000  1
  C  C40  1  0.40090000  0.01780000  0.45040000  1
  C  C41  1  0.56650000  0.05720000  0.58200000  1
  N  N42  1  0.70500000  0.41970000  0.65890000  1
  N  N43  1  0.48700000  0.77620000  0.37460000  1
  N  N44  1  0.74280000  0.46530000  0.62740000  1
  N  N45  1  0.78940000  0.36580000  0.64410000  1
  N  N46  1  0.57640000  0.72170000  0.36580000  1
  N  N47  1  0.72250000  0.83790000  0.46530000  1
  N  N48  1  0.11540000  0.37260000  0.83790000  1
  N  N49  1  0.04610000  0.34110000  0.76080000  1
  N  N50  1  0.88760000  0.37460000  0.59840000  1
  N  N51  1  0.71470000  0.76080000  0.41970000  1
  N  N52  1  0.14530000  0.35590000  0.72170000  1
  N  N53  1  0.71080000  0.59840000  0.22380000  1
  N  N54  1  0.28920000  0.40160000  0.77620000  1
  N  N55  1  0.85470000  0.64410000  0.27830000  1
  N  N56  1  0.28530000  0.23920000  0.58030000  1
  N  N57  1  0.11240000  0.62540000  0.40160000  1
  N  N58  1  0.95390000  0.65890000  0.23920000  1
  N  N59  1  0.88460000  0.62740000  0.16210000  1
  N  N60  1  0.27750000  0.16210000  0.53470000  1
  N  N61  1  0.42360000  0.27830000  0.63420000  1
  N  N62  1  0.21060000  0.63420000  0.35590000  1
  N  N63  1  0.25720000  0.53470000  0.37260000  1
  N  N64  1  0.51300000  0.22380000  0.62540000  1
  N  N65  1  0.29500000  0.58030000  0.34110000  1
  Cl  Cl66  1  0.31104000  0.61262000  0.19110000  1
  Cl  Cl67  1  0.88006000  0.19110000  0.57848000  1
  Cl  Cl68  1  0.69842000  0.57848000  0.38738000  1
  Cl  Cl69  1  0.30158000  0.42152000  0.61262000  1
  Cl  Cl70  1  0.11994000  0.80890000  0.42152000  1
  Cl  Cl71  1  0.68896000  0.38738000  0.80890000  1
