# generated using pymatgen
data_CdH8C15(NO2)2
_symmetry_space_group_name_H-M   'P 1'
_cell_length_a   14.76600000
_cell_length_b   17.64090000
_cell_length_c   17.64090835
_cell_angle_alpha   79.91221782
_cell_angle_beta   65.25904113
_cell_angle_gamma   65.25900000
_symmetry_Int_Tables_number   1
_chemical_formula_structural   CdH8C15(NO2)2
_chemical_formula_sum   'Cd8 H64 C120 N16 O32'
_cell_volume   3790.32300105
_cell_formula_units_Z   8
loop_
 _symmetry_equiv_pos_site_id
 _symmetry_equiv_pos_as_xyz
  1  'x, y, z'
loop_
 _atom_site_type_symbol
 _atom_site_label
 _atom_site_symmetry_multiplicity
 _atom_site_fract_x
 _atom_site_fract_y
 _atom_site_fract_z
 _atom_site_occupancy
  Cd  Cd0  1  0.04731000  0.57322000  0.91720000  1
  Cd  Cd1  1  0.87947000  0.08280000  0.07322000  1
  Cd  Cd2  1  0.46227000  0.07322000  0.41720000  1
  Cd  Cd3  1  0.96451000  0.58280000  0.57322000  1
  Cd  Cd4  1  0.03549000  0.41720000  0.42678000  1
  Cd  Cd5  1  0.53773000  0.92678000  0.58280000  1
  Cd  Cd6  1  0.12053000  0.91720000  0.92678000  1
  Cd  Cd7  1  0.95269000  0.42678000  0.08280000  1
  H  H8  1  0.21580000  0.78060000  0.75160000  1
  H  H9  1  0.60900000  0.27990000  0.35130000  1
  H  H10  1  0.32620000  0.33140000  0.56920000  1
  H  H11  1  0.77320000  0.83140000  0.06920000  1
  H  H12  1  0.44060000  0.39140000  0.39560000  1
  H  H13  1  0.40010000  0.73310000  0.42410000  1
  H  H14  1  0.72250000  0.41150000  0.08790000  1
  H  H15  1  0.31880000  0.63420000  0.46980000  1
  H  H16  1  0.50360000  0.24840000  0.28060000  1
  H  H17  1  0.30670000  0.86930000  0.47410000  1
  H  H18  1  0.18960000  0.58790000  0.58850000  1
  H  H19  1  0.10460000  0.06920000  0.66860000  1
  H  H20  1  0.16380000  0.89560000  0.60860000  1
  H  H21  1  0.03970000  0.85130000  0.72010000  1
  H  H22  1  0.96740000  0.74840000  0.78060000  1
  H  H23  1  0.63400000  0.08790000  0.08850000  1
  H  H24  1  0.32400000  0.52590000  0.36930000  1
  H  H25  1  0.54700000  0.53020000  0.13420000  1
  H  H26  1  0.65010000  0.63070000  0.02590000  1
  H  H27  1  0.84240000  0.43080000  0.83140000  1
  H  H28  1  0.77240000  0.89140000  0.89560000  1
  H  H29  1  0.78080000  0.02590000  0.86930000  1
  H  H30  1  0.22190000  0.08850000  0.41210000  1
  H  H31  1  0.55730000  0.76690000  0.07590000  1
  H  H32  1  0.75980000  0.77990000  0.85130000  1
  H  H33  1  0.38890000  0.35130000  0.22010000  1
  H  H34  1  0.36680000  0.57590000  0.23310000  1
  H  H35  1  0.21140000  0.96980000  0.36580000  1
  H  H36  1  0.66800000  0.60440000  0.89140000  1
  H  H37  1  0.82420000  0.07590000  0.73310000  1
  H  H38  1  0.57720000  0.13420000  0.96980000  1
  H  H39  1  0.25200000  0.28060000  0.25160000  1
  H  H40  1  0.74800000  0.71940000  0.74840000  1
  H  H41  1  0.42280000  0.86580000  0.03020000  1
  H  H42  1  0.17580000  0.92410000  0.26690000  1
  H  H43  1  0.33200000  0.39560000  0.10860000  1
  H  H44  1  0.78860000  0.03020000  0.63420000  1
  H  H45  1  0.63320000  0.42410000  0.76690000  1
  H  H46  1  0.61110000  0.64870000  0.77990000  1
  H  H47  1  0.24020000  0.22010000  0.14870000  1
  H  H48  1  0.44270000  0.23310000  0.92410000  1
  H  H49  1  0.77810000  0.91150000  0.58790000  1
  H  H50  1  0.21920000  0.97410000  0.13070000  1
  H  H51  1  0.22760000  0.10860000  0.10440000  1
  H  H52  1  0.15760000  0.56920000  0.16860000  1
  H  H53  1  0.34990000  0.36930000  0.97410000  1
  H  H54  1  0.45300000  0.46980000  0.86580000  1
  H  H55  1  0.67600000  0.47410000  0.63070000  1
  H  H56  1  0.36600000  0.91210000  0.91150000  1
  H  H57  1  0.03260000  0.25160000  0.21940000  1
  H  H58  1  0.96030000  0.14870000  0.27990000  1
  H  H59  1  0.83620000  0.10440000  0.39140000  1
  H  H60  1  0.89540000  0.93080000  0.33140000  1
  H  H61  1  0.81040000  0.41210000  0.41150000  1
  H  H62  1  0.69330000  0.13070000  0.52590000  1
  H  H63  1  0.49640000  0.75160000  0.71940000  1
  H  H64  1  0.68120000  0.36580000  0.53020000  1
  H  H65  1  0.27750000  0.58850000  0.91210000  1
  H  H66  1  0.59990000  0.26690000  0.57590000  1
  H  H67  1  0.55940000  0.60860000  0.60440000  1
  H  H68  1  0.22680000  0.16860000  0.93080000  1
  H  H69  1  0.67380000  0.66860000  0.43080000  1
  H  H70  1  0.39100000  0.72010000  0.64870000  1
  H  H71  1  0.78420000  0.21940000  0.24840000  1
  C  C72  1  0.88220000  0.26690000  0.09910000  1
  C  C73  1  0.73620000  0.27020000  0.23740000  1
  C  C74  1  0.29300000  0.97830000  0.67430000  1
  C  C75  1  0.20310000  0.98130000  0.74730000  1
  C  C76  1  0.96730000  0.82570000  0.97830000  1
  C  C77  1  0.63210000  0.30650000  0.30070000  1
  C  C78  1  0.95040000  0.75270000  0.98130000  1
  C  C79  1  0.77040000  0.30780000  0.15840000  1
  C  C80  1  0.89310000  0.90550000  0.02230000  1
  C  C81  1  0.38970000  0.23140000  0.52340000  1
  C  C82  1  0.29860000  0.02230000  0.59450000  1
  C  C83  1  0.64910000  0.09910000  0.23310000  1
  C  C84  1  0.85550000  0.73140000  0.02340000  1
  C  C85  1  0.08690000  0.02340000  0.76860000  1
  C  C86  1  0.56560000  0.38620000  0.28160000  1
  C  C87  1  0.70050000  0.38560000  0.13920000  1
  C  C88  1  0.91540000  0.47770000  0.90550000  1
  C  C89  1  0.46120000  0.41910000  0.34530000  1
  C  C90  1  0.33390000  0.74610000  0.46910000  1
  C  C91  1  0.31560000  0.25270000  0.48130000  1
  C  C92  1  0.59550000  0.42250000  0.20130000  1
  C  C93  1  0.29130000  0.68310000  0.49910000  1
  C  C94  1  0.28230000  0.82770000  0.50290000  1
  C  C95  1  0.20320000  0.70130000  0.57750000  1
  C  C96  1  0.16030000  0.63920000  0.61440000  1
  C  C97  1  0.19350000  0.84530000  0.58090000  1
  C  C98  1  0.94560000  0.52170000  0.82570000  1
  C  C99  1  0.57820000  0.15840000  0.19220000  1
  C  C100  1  0.15280000  0.78160000  0.61380000  1
  C  C101  1  0.07120000  0.65840000  0.69220000  1
  C  C102  1  0.06720000  0.80070000  0.69350000  1
  C  C103  1  0.02640000  0.73740000  0.72980000  1
  C  C104  1  0.01870000  0.59910000  0.73310000  1
  C  C105  1  0.50640000  0.23740000  0.22980000  1
  C  C106  1  0.39000000  0.49710000  0.32770000  1
  C  C107  1  0.52560000  0.50090000  0.18310000  1
  C  C108  1  0.22870000  0.32570000  0.47830000  1
  C  C109  1  0.17910000  0.40550000  0.52230000  1
  C  C110  1  0.58610000  0.13920000  0.11440000  1
  C  C111  1  0.93170000  0.51870000  0.75270000  1
  C  C112  1  0.42000000  0.53090000  0.24610000  1
  C  C113  1  0.24820000  0.23310000  0.40090000  1
  C  C114  1  0.43860000  0.30070000  0.19350000  1
  C  C115  1  0.77440000  0.91910000  0.84530000  1
  C  C116  1  0.78520000  0.99710000  0.82770000  1
  C  C117  1  0.87890000  0.47660000  0.73140000  1
  C  C118  1  0.61290000  0.67230000  0.99710000  1
  C  C119  1  0.51800000  0.20130000  0.07750000  1
  C  C120  1  0.22530000  0.11440000  0.36080000  1
  C  C121  1  0.54910000  0.75390000  0.03090000  1
  C  C122  1  0.23660000  0.19220000  0.34160000  1
  C  C123  1  0.45180000  0.28160000  0.11380000  1
  C  C124  1  0.76070000  0.80650000  0.80070000  1
  C  C125  1  0.80300000  0.03090000  0.74610000  1
  C  C126  1  0.76660000  0.88620000  0.78160000  1
  C  C127  1  0.61970000  0.65470000  0.91910000  1
  C  C128  1  0.20960000  0.99910000  0.31690000  1
  C  C129  1  0.52650000  0.18310000  0.99910000  1
  C  C130  1  0.21930000  0.07750000  0.29870000  1
  C  C131  1  0.24380000  0.22980000  0.26260000  1
  C  C132  1  0.75620000  0.77020000  0.73740000  1
  C  C133  1  0.78070000  0.92250000  0.70130000  1
  C  C134  1  0.47350000  0.81690000  0.00090000  1
  C  C135  1  0.79040000  0.00090000  0.68310000  1
  C  C136  1  0.38030000  0.34530000  0.08090000  1
  C  C137  1  0.23340000  0.11380000  0.21840000  1
  C  C138  1  0.19700000  0.96910000  0.25390000  1
  C  C139  1  0.23930000  0.19350000  0.19930000  1
  C  C140  1  0.54820000  0.71840000  0.88620000  1
  C  C141  1  0.76340000  0.80780000  0.65840000  1
  C  C142  1  0.45090000  0.24610000  0.96910000  1
  C  C143  1  0.77470000  0.88560000  0.63920000  1
  C  C144  1  0.48200000  0.79870000  0.92250000  1
  C  C145  1  0.38710000  0.32770000  0.00290000  1
  C  C146  1  0.12110000  0.52340000  0.26860000  1
  C  C147  1  0.21480000  0.00290000  0.17230000  1
  C  C148  1  0.22560000  0.08090000  0.15470000  1
  C  C149  1  0.56140000  0.69930000  0.80650000  1
  C  C150  1  0.75180000  0.76690000  0.59910000  1
  C  C151  1  0.58000000  0.46910000  0.75390000  1
  C  C152  1  0.06830000  0.48130000  0.24730000  1
  C  C153  1  0.41390000  0.86080000  0.88560000  1
  C  C154  1  0.82090000  0.59450000  0.47770000  1
  C  C155  1  0.77130000  0.67430000  0.52170000  1
  C  C156  1  0.47440000  0.49910000  0.81690000  1
  C  C157  1  0.61000000  0.50290000  0.67230000  1
  C  C158  1  0.49360000  0.76260000  0.77020000  1
  C  C159  1  0.98130000  0.40090000  0.26690000  1
  C  C160  1  0.97360000  0.26260000  0.27020000  1
  C  C161  1  0.93280000  0.19930000  0.30650000  1
  C  C162  1  0.92880000  0.34160000  0.30780000  1
  C  C163  1  0.84720000  0.21840000  0.38620000  1
  C  C164  1  0.42180000  0.84160000  0.80780000  1
  C  C165  1  0.05440000  0.47830000  0.17430000  1
  C  C166  1  0.80650000  0.15470000  0.41910000  1
  C  C167  1  0.83970000  0.36080000  0.38560000  1
  C  C168  1  0.79680000  0.29870000  0.42250000  1
  C  C169  1  0.71770000  0.17230000  0.49710000  1
  C  C170  1  0.70870000  0.31690000  0.50090000  1
  C  C171  1  0.40450000  0.57750000  0.79870000  1
  C  C172  1  0.68440000  0.74730000  0.51870000  1
  C  C173  1  0.66610000  0.25390000  0.53090000  1
  C  C174  1  0.53880000  0.58090000  0.65470000  1
  C  C175  1  0.08460000  0.52230000  0.09450000  1
  C  C176  1  0.29950000  0.61440000  0.86080000  1
  C  C177  1  0.43440000  0.61380000  0.71840000  1
  C  C178  1  0.91310000  0.97660000  0.23140000  1
  C  C179  1  0.14450000  0.26860000  0.97660000  1
  C  C180  1  0.35090000  0.90090000  0.76690000  1
  C  C181  1  0.70140000  0.97770000  0.40550000  1
  C  C182  1  0.61030000  0.76860000  0.47660000  1
  C  C183  1  0.10690000  0.09450000  0.97770000  1
  C  C184  1  0.22960000  0.69220000  0.84160000  1
  C  C185  1  0.04960000  0.24730000  0.01870000  1
  C  C186  1  0.36790000  0.69350000  0.69930000  1
  C  C187  1  0.03270000  0.17430000  0.02170000  1
  C  C188  1  0.79690000  0.01870000  0.25270000  1
  C  C189  1  0.70700000  0.02170000  0.32570000  1
  C  C190  1  0.26380000  0.72980000  0.76260000  1
  C  C191  1  0.11780000  0.73310000  0.90090000  1
  N  N192  1  0.07240000  0.81160000  0.92760000  1
  N  N193  1  0.04680000  0.69410000  0.93050000  1
  N  N194  1  0.75910000  0.06950000  0.19410000  1
  N  N195  1  0.61600000  0.07240000  0.31160000  1
  N  N196  1  0.00000000  0.57240000  0.81160000  1
  N  N197  1  0.32860000  0.19410000  0.43050000  1
  N  N198  1  0.97730000  0.56950000  0.69410000  1
  N  N199  1  0.18840000  0.31160000  0.42760000  1
  N  N200  1  0.81160000  0.68840000  0.57240000  1
  N  N201  1  0.02270000  0.43050000  0.30590000  1
  N  N202  1  0.67140000  0.80590000  0.56950000  1
  N  N203  1  0.00000000  0.42760000  0.18840000  1
  N  N204  1  0.38400000  0.92760000  0.68840000  1
  N  N205  1  0.24090000  0.93050000  0.80590000  1
  N  N206  1  0.95320000  0.30590000  0.06950000  1
  N  N207  1  0.92760000  0.18840000  0.07240000  1
  O  O208  1  0.46300000  0.16170000  0.51510000  1
  O  O209  1  0.37620000  0.28800000  0.57120000  1
  O  O210  1  0.93170000  0.95880000  0.01220000  1
  O  O211  1  0.39050000  0.01220000  0.54120000  1
  O  O212  1  0.94390000  0.48780000  0.95880000  1
  O  O213  1  0.86020000  0.66170000  0.01510000  1
  O  O214  1  0.79590000  0.91640000  0.06900000  1
  O  O215  1  0.02190000  0.01510000  0.83830000  1
  O  O216  1  0.76460000  0.78800000  0.07120000  1
  O  O217  1  0.21230000  0.06900000  0.58360000  1
  O  O218  1  0.21870000  0.41640000  0.56900000  1
  O  O219  1  0.86490000  0.43100000  0.91640000  1
  O  O220  1  0.05260000  0.07120000  0.71200000  1
  O  O221  1  0.83580000  0.42880000  0.78800000  1
  O  O222  1  0.09730000  0.45880000  0.51220000  1
  O  O223  1  0.87530000  0.48490000  0.66170000  1
  O  O224  1  0.12470000  0.51510000  0.33830000  1
  O  O225  1  0.90270000  0.54120000  0.48780000  1
  O  O226  1  0.16420000  0.57120000  0.21200000  1
  O  O227  1  0.94740000  0.92880000  0.28800000  1
  O  O228  1  0.13510000  0.56900000  0.08360000  1
  O  O229  1  0.78130000  0.58360000  0.43100000  1
  O  O230  1  0.78770000  0.93100000  0.41640000  1
  O  O231  1  0.23540000  0.21200000  0.92880000  1
  O  O232  1  0.97810000  0.98490000  0.16170000  1
  O  O233  1  0.20410000  0.08360000  0.93100000  1
  O  O234  1  0.13980000  0.33830000  0.98490000  1
  O  O235  1  0.05610000  0.51220000  0.04120000  1
  O  O236  1  0.60950000  0.98780000  0.45880000  1
  O  O237  1  0.06830000  0.04120000  0.98780000  1
  O  O238  1  0.62380000  0.71200000  0.42880000  1
  O  O239  1  0.53700000  0.83830000  0.48490000  1
