# generated using pymatgen
data_Cu9H32C60Se2(N9O17)2
_symmetry_space_group_name_H-M   'P 1'
_cell_length_a   22.33284324
_cell_length_b   22.33260000
_cell_length_c   22.33260000
_cell_angle_alpha   109.47100000
_cell_angle_beta   109.47144127
_cell_angle_gamma   109.47144127
_symmetry_Int_Tables_number   1
_chemical_formula_structural   Cu9H32C60Se2(N9O17)2
_chemical_formula_sum   'Cu18 H64 C120 Se4 N36 O68'
_cell_volume   8574.31666689
_cell_formula_units_Z   2
loop_
 _symmetry_equiv_pos_site_id
 _symmetry_equiv_pos_as_xyz
  1  'x, y, z'
loop_
 _atom_site_type_symbol
 _atom_site_label
 _atom_site_symmetry_multiplicity
 _atom_site_fract_x
 _atom_site_fract_y
 _atom_site_fract_z
 _atom_site_occupancy
  Cu  Cu0  1  0.55157000  0.00000000  0.55157000  1
  Cu  Cu1  1  0.44843000  0.00000000  0.44843000  1
  Cu  Cu2  1  0.48681000  0.39444000  0.48681000  1
  Cu  Cu3  1  0.39444000  0.48681000  0.48681000  1
  Cu  Cu4  1  0.90763000  0.51319000  1.00000000  1
  Cu  Cu5  1  0.51319000  0.00000000  0.90763000  1
  Cu  Cu6  1  1.00000000  0.44843000  0.44843000  1
  Cu  Cu7  1  0.55157000  0.55157000  0.00000000  1
  Cu  Cu8  1  0.51319000  0.90763000  0.00000000  1
  Cu  Cu9  1  0.60556000  0.09237000  0.09237000  1
  Cu  Cu10  1  0.00000000  0.90763000  0.51319000  1
  Cu  Cu11  1  0.09237000  0.09237000  0.60556000  1
  Cu  Cu12  1  0.44843000  0.44843000  0.00000000  1
  Cu  Cu13  1  0.00000000  0.55157000  0.55157000  1
  Cu  Cu14  1  0.90763000  0.00000000  0.51319000  1
  Cu  Cu15  1  0.48681000  0.48681000  0.39444000  1
  Cu  Cu16  1  0.00000000  0.51319000  0.90763000  1
  Cu  Cu17  1  0.09237000  0.60556000  0.09237000  1
  H  H18  1  0.51640000  0.51640000  0.51640000  1
  H  H19  1  0.27300000  0.57220000  0.27300000  1
  H  H20  1  0.45240000  0.75860000  0.45240000  1
  H  H21  1  0.30020000  0.77160000  0.30020000  1
  H  H22  1  0.00000000  0.48360000  1.00000000  1
  H  H23  1  0.69380000  0.24140000  0.69380000  1
  H  H24  1  0.52860000  0.22840000  0.52860000  1
  H  H25  1  0.70080000  0.42780000  0.70080000  1
  H  H26  1  0.33810000  0.59330000  0.44800000  1
  H  H27  1  0.74480000  0.40670000  0.85470000  1
  H  H28  1  0.10990000  0.66190000  0.25520000  1
  H  H29  1  0.44800000  0.33810000  0.59330000  1
  H  H30  1  0.47140000  0.00000000  0.69980000  1
  H  H31  1  0.30620000  0.00000000  0.54760000  1
  H  H32  1  0.33810000  0.44800000  0.59330000  1
  H  H33  1  0.89010000  0.55200000  0.14530000  1
  H  H34  1  0.42780000  0.70080000  0.70080000  1
  H  H35  1  0.72700000  0.29920000  1.00000000  1
  H  H36  1  0.27300000  0.27300000  0.57220000  1
  H  H37  1  0.00000000  0.72700000  0.29920000  1
  H  H38  1  0.22840000  0.52860000  0.52860000  1
  H  H39  1  0.69980000  0.47140000  1.00000000  1
  H  H40  1  0.45240000  0.45240000  0.75860000  1
  H  H41  1  0.00000000  0.54760000  0.30620000  1
  H  H42  1  0.40670000  0.85470000  0.74480000  1
  H  H43  1  0.55200000  0.14530000  0.89010000  1
  H  H44  1  0.14530000  0.89010000  0.55200000  1
  H  H45  1  0.25520000  0.10990000  0.66190000  1
  H  H46  1  0.29920000  0.00000000  0.72700000  1
  H  H47  1  0.40670000  0.74480000  0.85470000  1
  H  H48  1  0.66190000  0.25520000  0.10990000  1
  H  H49  1  0.24140000  0.69380000  0.69380000  1
  H  H50  1  0.54760000  0.30620000  1.00000000  1
  H  H51  1  0.30020000  0.30020000  0.77160000  1
  H  H52  1  0.00000000  0.69980000  0.47140000  1
  H  H53  1  0.00000000  0.00000000  0.48360000  1
  H  H54  1  0.48360000  0.00000000  0.00000000  1
  H  H55  1  0.47140000  0.69980000  0.00000000  1
  H  H56  1  0.77160000  0.30020000  0.30020000  1
  H  H57  1  0.69380000  0.69380000  0.24140000  1
  H  H58  1  0.00000000  0.30620000  0.54760000  1
  H  H59  1  0.10990000  0.25520000  0.66190000  1
  H  H60  1  0.85470000  0.74480000  0.40670000  1
  H  H61  1  0.72700000  0.00000000  0.29920000  1
  H  H62  1  0.55200000  0.89010000  0.14530000  1
  H  H63  1  0.66190000  0.10990000  0.25520000  1
  H  H64  1  0.74480000  0.85470000  0.40670000  1
  H  H65  1  0.89010000  0.14530000  0.55200000  1
  H  H66  1  0.30620000  0.54760000  1.00000000  1
  H  H67  1  0.75860000  0.45240000  0.45240000  1
  H  H68  1  0.52860000  0.52860000  0.22840000  1
  H  H69  1  0.00000000  0.47140000  0.69980000  1
  H  H70  1  0.29920000  0.72700000  0.00000000  1
  H  H71  1  0.57220000  0.27300000  0.27300000  1
  H  H72  1  0.70080000  0.70080000  0.42780000  1
  H  H73  1  0.00000000  0.29920000  0.72700000  1
  H  H74  1  0.14530000  0.55200000  0.89010000  1
  H  H75  1  0.59330000  0.44800000  0.33810000  1
  H  H76  1  0.54760000  0.00000000  0.30620000  1
  H  H77  1  0.69980000  0.00000000  0.47140000  1
  H  H78  1  0.25520000  0.66190000  0.10990000  1
  H  H79  1  0.59330000  0.33810000  0.44800000  1
  H  H80  1  0.44800000  0.59330000  0.33810000  1
  H  H81  1  0.85470000  0.40670000  0.74480000  1
  C  C82  1  0.36493000  0.66066000  0.36493000  1
  C  C83  1  0.30051000  0.62422000  0.30051000  1
  C  C84  1  0.40794000  0.73608000  0.40794000  1
  C  C85  1  0.27670000  0.66704000  0.27670000  1
  C  C86  1  0.38405000  0.77710000  0.38405000  1
  C  C87  1  0.20580000  0.62900000  0.20580000  1
  C  C88  1  0.31668000  0.74296000  0.31668000  1
  C  C89  1  0.42664000  0.86088000  0.42664000  1
  C  C90  1  0.56576000  0.13912000  0.56576000  1
  C  C91  1  0.67186000  0.26392000  0.67186000  1
  C  C92  1  0.60695000  0.22290000  0.60695000  1
  C  C93  1  0.70427000  0.33934000  0.70427000  1
  C  C94  1  0.57372000  0.25704000  0.57372000  1
  C  C95  1  0.67629000  0.37578000  0.67629000  1
  C  C96  1  0.60966000  0.33296000  0.60966000  1
  C  C97  1  0.57680000  0.37100000  0.57680000  1
  C  C98  1  0.36934000  0.58613000  0.42967000  1
  C  C99  1  0.78321000  0.41387000  0.84354000  1
  C  C100  1  0.43424000  1.00000000  0.57336000  1
  C  C101  1  0.06033000  0.63066000  0.21679000  1
  C  C102  1  0.42967000  0.36934000  0.58613000  1
  C  C103  1  0.37100000  0.57680000  0.57680000  1
  C  C104  1  0.79420000  0.42320000  1.00000000  1
  C  C105  1  0.36934000  0.42967000  0.58613000  1
  C  C106  1  0.93967000  0.57033000  0.15646000  1
  C  C107  1  0.39305000  1.00000000  0.61595000  1
  C  C108  1  0.42628000  0.00000000  0.68332000  1
  C  C109  1  0.32814000  1.00000000  0.59206000  1
  C  C110  1  0.33296000  0.60966000  0.60966000  1
  C  C111  1  0.72330000  0.39034000  1.00000000  1
  C  C112  1  0.36493000  0.36493000  0.66066000  1
  C  C113  1  1.00000000  0.63507000  0.29573000  1
  C  C114  1  0.37578000  0.67629000  0.67629000  1
  C  C115  1  0.69949000  0.32371000  1.00000000  1
  C  C116  1  0.25704000  0.57372000  0.57372000  1
  C  C117  1  0.68332000  0.42628000  1.00000000  1
  C  C118  1  0.30051000  0.30051000  0.62422000  1
  C  C119  1  0.00000000  0.69949000  0.32371000  1
  C  C120  1  0.40794000  0.40794000  0.73608000  1
  C  C121  1  0.00000000  0.59206000  0.32814000  1
  C  C122  1  0.39034000  0.00000000  0.72330000  1
  C  C123  1  0.29573000  0.00000000  0.63507000  1
  C  C124  1  0.33934000  0.70427000  0.70427000  1
  C  C125  1  0.63507000  0.29573000  0.00000000  1
  C  C126  1  0.41387000  0.84354000  0.78321000  1
  C  C127  1  0.57033000  0.15646000  0.93967000  1
  C  C128  1  0.42320000  0.00000000  0.79420000  1
  C  C129  1  0.32371000  1.00000000  0.69949000  1
  C  C130  1  0.22290000  0.60695000  0.60695000  1
  C  C131  1  0.61595000  0.39305000  1.00000000  1
  C  C132  1  0.27670000  0.27670000  0.66704000  1
  C  C133  1  1.00000000  0.72330000  0.39034000  1
  C  C134  1  0.38405000  0.38405000  0.77710000  1
  C  C135  1  0.00000000  0.61595000  0.39305000  1
  C  C136  1  0.26392000  0.67186000  0.67186000  1
  C  C137  1  0.59206000  0.32814000  1.00000000  1
  C  C138  1  0.15646000  0.93967000  0.57033000  1
  C  C139  1  0.21679000  0.06033000  0.63066000  1
  C  C140  1  0.00000000  0.79420000  0.42320000  1
  C  C141  1  0.20580000  0.20580000  0.62900000  1
  C  C142  1  0.31668000  0.31668000  0.74296000  1
  C  C143  1  0.00000000  0.68332000  0.42628000  1
  C  C144  1  0.13912000  0.56576000  0.56576000  1
  C  C145  1  0.57336000  0.43424000  1.00000000  1
  C  C146  1  0.41387000  0.78321000  0.84354000  1
  C  C147  1  0.63066000  0.21679000  0.06033000  1
  C  C148  1  0.42664000  0.42664000  0.86088000  1
  C  C149  1  0.00000000  0.57336000  0.43424000  1
  C  C150  1  0.43424000  0.57336000  0.00000000  1
  C  C151  1  0.86088000  0.42664000  0.42664000  1
  C  C152  1  0.06033000  0.21679000  0.63066000  1
  C  C153  1  0.84354000  0.78321000  0.41387000  1
  C  C154  1  0.56576000  0.56576000  0.13912000  1
  C  C155  1  0.00000000  0.43424000  0.57336000  1
  C  C156  1  0.42628000  0.68332000  1.00000000  1
  C  C157  1  0.74296000  0.31668000  0.31668000  1
  C  C158  1  0.42320000  0.79420000  1.00000000  1
  C  C159  1  0.62900000  0.20580000  0.20580000  1
  C  C160  1  0.57033000  0.93967000  0.15646000  1
  C  C161  1  0.63066000  0.06033000  0.21679000  1
  C  C162  1  0.67186000  0.67186000  0.26392000  1
  C  C163  1  0.00000000  0.32814000  0.59206000  1
  C  C164  1  0.39305000  0.61595000  0.00000000  1
  C  C165  1  0.77710000  0.38405000  0.38405000  1
  C  C166  1  0.39034000  0.72330000  1.00000000  1
  C  C167  1  0.66704000  0.27670000  0.27670000  1
  C  C168  1  0.60695000  0.60695000  0.22290000  1
  C  C169  1  0.00000000  0.39305000  0.61595000  1
  C  C170  1  0.69949000  0.00000000  0.32371000  1
  C  C171  1  0.79420000  0.00000000  0.42320000  1
  C  C172  1  0.78321000  0.84354000  0.41387000  1
  C  C173  1  0.93967000  0.15646000  0.57033000  1
  C  C174  1  0.70427000  0.70427000  0.33934000  1
  C  C175  1  0.00000000  0.29573000  0.63507000  1
  C  C176  1  0.63507000  0.00000000  0.29573000  1
  C  C177  1  0.72330000  1.00000000  0.39034000  1
  C  C178  1  0.32814000  0.59206000  1.00000000  1
  C  C179  1  0.73608000  0.40794000  0.40794000  1
  C  C180  1  0.32371000  0.69949000  1.00000000  1
  C  C181  1  0.62422000  0.30051000  0.30051000  1
  C  C182  1  0.57372000  0.57372000  0.25704000  1
  C  C183  1  0.00000000  0.42628000  0.68332000  1
  C  C184  1  0.67629000  0.67629000  0.37578000  1
  C  C185  1  0.00000000  0.32371000  0.69949000  1
  C  C186  1  0.29573000  0.63507000  0.00000000  1
  C  C187  1  0.66066000  0.36493000  0.36493000  1
  C  C188  1  0.60966000  0.60966000  0.33296000  1
  C  C189  1  0.00000000  0.39034000  0.72330000  1
  C  C190  1  0.59206000  0.00000000  0.32814000  1
  C  C191  1  0.68332000  0.00000000  0.42628000  1
  C  C192  1  0.61595000  0.00000000  0.39305000  1
  C  C193  1  0.15646000  0.57033000  0.93967000  1
  C  C194  1  0.58613000  0.42967000  0.36934000  1
  C  C195  1  0.57680000  0.57680000  0.37100000  1
  C  C196  1  0.00000000  0.42320000  0.79420000  1
  C  C197  1  0.21679000  0.63066000  0.06033000  1
  C  C198  1  0.58613000  0.36934000  0.42967000  1
  C  C199  1  0.57336000  0.00000000  0.43424000  1
  C  C200  1  0.42967000  0.58613000  0.36934000  1
  C  C201  1  0.84354000  0.41387000  0.78321000  1
  Se  Se202  1  0.33120000  0.33120000  0.33120000  1
  Se  Se203  1  0.00000000  0.66880000  1.00000000  1
  Se  Se204  1  0.66880000  0.00000000  1.00000000  1
  Se  Se205  1  0.00000000  0.00000000  0.66880000  1
  N  N206  1  0.38918000  0.61386000  0.38918000  1
  N  N207  1  0.77532000  0.38614000  0.77532000  1
  N  N208  1  0.40145000  0.54765000  0.43856000  1
  N  N209  1  0.85380000  0.45235000  0.89091000  1
  N  N210  1  0.03711000  0.59855000  0.14620000  1
  N  N211  1  0.43856000  0.40145000  0.54765000  1
  N  N212  1  0.40145000  0.43856000  0.54765000  1
  N  N213  1  0.96289000  0.56144000  0.10909000  1
  N  N214  1  0.38918000  0.38918000  0.61386000  1
  N  N215  1  0.00000000  0.61082000  0.22468000  1
  N  N216  1  0.22468000  0.00000000  0.61082000  1
  N  N217  1  0.38614000  0.77532000  0.77532000  1
  N  N218  1  0.61082000  0.22468000  1.00000000  1
  N  N219  1  0.45235000  0.89091000  0.85380000  1
  N  N220  1  0.56144000  0.10909000  0.96289000  1
  N  N221  1  0.45235000  0.85380000  0.89091000  1
  N  N222  1  0.59855000  0.14620000  0.03711000  1
  N  N223  1  0.10909000  0.96289000  0.56144000  1
  N  N224  1  0.14620000  0.03711000  0.59855000  1
  N  N225  1  0.56144000  0.96289000  0.10909000  1
  N  N226  1  0.59855000  0.03711000  0.14620000  1
  N  N227  1  0.03711000  0.14620000  0.59855000  1
  N  N228  1  0.89091000  0.85380000  0.45235000  1
  N  N229  1  0.85380000  0.89091000  0.45235000  1
  N  N230  1  0.96289000  0.10909000  0.56144000  1
  N  N231  1  0.77532000  0.77532000  0.38614000  1
  N  N232  1  0.00000000  0.22468000  0.61082000  1
  N  N233  1  0.61082000  0.00000000  0.22468000  1
  N  N234  1  0.22468000  0.61082000  1.00000000  1
  N  N235  1  0.61386000  0.38918000  0.38918000  1
  N  N236  1  0.10909000  0.56144000  0.96289000  1
  N  N237  1  0.54765000  0.43856000  0.40145000  1
  N  N238  1  0.14620000  0.59855000  0.03711000  1
  N  N239  1  0.54765000  0.40145000  0.43856000  1
  N  N240  1  0.43856000  0.54765000  0.40145000  1
  N  N241  1  0.89091000  0.45235000  0.85380000  1
  O  O242  1  0.25762000  0.25762000  0.25762000  1
  O  O243  1  0.16727000  0.55894000  0.16727000  1
  O  O244  1  0.48685000  0.89082000  0.48685000  1
  O  O245  1  0.18517000  0.66962000  0.18517000  1
  O  O246  1  0.40004000  0.89274000  0.40004000  1
  O  O247  1  0.59603000  0.10918000  0.59603000  1
  O  O248  1  0.00000000  0.52074000  1.00000000  1
  O  O249  1  0.50730000  0.10726000  0.50730000  1
  O  O250  1  0.00000000  0.74238000  1.00000000  1
  O  O251  1  0.51555000  0.33038000  0.51555000  1
  O  O252  1  0.60833000  0.44106000  0.60833000  1
  O  O253  1  0.38016000  0.30740000  0.38016000  1
  O  O254  1  0.47926000  0.47926000  0.47926000  1
  O  O255  1  0.30740000  0.38016000  0.38016000  1
  O  O256  1  0.92724000  0.61984000  1.00000000  1
  O  O257  1  0.49270000  1.00000000  0.59996000  1
  O  O258  1  0.40397000  1.00000000  0.51315000  1
  O  O259  1  0.44106000  0.60833000  0.60833000  1
  O  O260  1  0.83273000  0.39167000  0.00000000  1
  O  O261  1  0.33038000  0.51555000  0.51555000  1
  O  O262  1  0.81483000  0.48445000  1.00000000  1
  O  O263  1  0.74238000  0.00000000  0.00000000  1
  O  O264  1  0.61984000  1.00000000  0.92724000  1
  O  O265  1  0.48445000  1.00000000  0.81483000  1
  O  O266  1  0.61984000  0.92724000  1.00000000  1
  O  O267  1  0.69260000  0.07276000  0.07276000  1
  O  O268  1  0.16727000  0.16727000  0.55894000  1
  O  O269  1  0.00000000  0.83273000  0.39167000  1
  O  O270  1  0.10726000  0.50730000  0.50730000  1
  O  O271  1  0.59996000  0.49270000  1.00000000  1
  O  O272  1  0.48685000  0.48685000  0.89082000  1
  O  O273  1  0.00000000  0.51315000  0.40397000  1
  O  O274  1  0.39167000  0.00000000  0.83273000  1
  O  O275  1  0.52074000  0.00000000  0.00000000  1
  O  O276  1  0.00000000  0.81483000  0.48445000  1
  O  O277  1  0.18517000  0.18517000  0.66962000  1
  O  O278  1  0.10918000  0.59603000  0.59603000  1
  O  O279  1  0.51315000  0.40397000  0.00000000  1
  O  O280  1  0.40004000  0.40004000  0.89274000  1
  O  O281  1  0.00000000  0.59996000  0.49270000  1
  O  O282  1  0.49270000  0.59996000  1.00000000  1
  O  O283  1  0.89274000  0.40004000  0.40004000  1
  O  O284  1  0.59603000  0.59603000  0.10918000  1
  O  O285  1  0.00000000  0.40397000  0.51315000  1
  O  O286  1  0.48445000  0.81483000  1.00000000  1
  O  O287  1  0.66962000  0.18517000  0.18517000  1
  O  O288  1  0.00000000  0.00000000  0.52074000  1
  O  O289  1  0.83273000  0.00000000  0.39167000  1
  O  O290  1  0.40397000  0.51315000  1.00000000  1
  O  O291  1  0.89082000  0.48685000  0.48685000  1
  O  O292  1  0.50730000  0.50730000  0.10726000  1
  O  O293  1  0.00000000  0.49270000  0.59996000  1
  O  O294  1  0.39167000  0.83273000  1.00000000  1
  O  O295  1  0.55894000  0.16727000  0.16727000  1
  O  O296  1  0.00000000  0.92724000  0.61984000  1
  O  O297  1  0.07276000  0.07276000  0.69260000  1
  O  O298  1  0.81483000  0.00000000  0.48445000  1
  O  O299  1  0.92724000  0.00000000  0.61984000  1
  O  O300  1  0.00000000  0.00000000  0.74238000  1
  O  O301  1  0.51555000  0.51555000  0.33038000  1
  O  O302  1  0.00000000  0.48445000  0.81483000  1
  O  O303  1  0.00000000  0.39167000  0.83273000  1
  O  O304  1  0.60833000  0.60833000  0.44106000  1
  O  O305  1  0.51315000  0.00000000  0.40397000  1
  O  O306  1  0.59996000  0.00000000  0.49270000  1
  O  O307  1  0.38016000  0.38016000  0.30740000  1
  O  O308  1  0.00000000  0.61984000  0.92724000  1
  O  O309  1  0.07276000  0.69260000  0.07276000  1
