# generated using pymatgen
data_VH4C8O5
_symmetry_space_group_name_H-M   'P 1'
_cell_length_a   6.80180000
_cell_length_b   13.53440000
_cell_length_c   16.41560000
_cell_angle_alpha   90.00000000
_cell_angle_beta   90.00000000
_cell_angle_gamma   90.00000000
_symmetry_Int_Tables_number   1
_chemical_formula_structural   VH4C8O5
_chemical_formula_sum   'V4 H16 C32 O20'
_cell_volume   1511.19193269
_cell_formula_units_Z   4
loop_
 _symmetry_equiv_pos_site_id
 _symmetry_equiv_pos_as_xyz
  1  'x, y, z'
loop_
 _atom_site_type_symbol
 _atom_site_label
 _atom_site_symmetry_multiplicity
 _atom_site_fract_x
 _atom_site_fract_y
 _atom_site_fract_z
 _atom_site_occupancy
  V  V0  1  0.06289000  0.26440000  0.49928000  1
  V  V1  1  0.43711000  0.73560000  0.99928000  1
  V  V2  1  0.56289000  0.23560000  0.50072000  1
  V  V3  1  0.93711000  0.76440000  0.00072000  1
  H  H4  1  0.03090000  0.58490000  0.79140000  1
  H  H5  1  0.03380000  0.55540000  0.18860000  1
  H  H6  1  0.05000000  0.47970000  0.68240000  1
  H  H7  1  0.05470000  0.45170000  0.29630000  1
  H  H8  1  0.44530000  0.54830000  0.79630000  1
  H  H9  1  0.45000000  0.52030000  0.18240000  1
  H  H10  1  0.46620000  0.44460000  0.68860000  1
  H  H11  1  0.46910000  0.41510000  0.29140000  1
  H  H12  1  0.53090000  0.91510000  0.20860000  1
  H  H13  1  0.53380000  0.94460000  0.81140000  1
  H  H14  1  0.55000000  0.02030000  0.31760000  1
  H  H15  1  0.55470000  0.04830000  0.70370000  1
  H  H16  1  0.94530000  0.95170000  0.20370000  1
  H  H17  1  0.95000000  0.97970000  0.81760000  1
  H  H18  1  0.96620000  0.05540000  0.31140000  1
  H  H19  1  0.96910000  0.08490000  0.70860000  1
  C  C20  1  0.06770000  0.96590000  0.22610000  1
  C  C21  1  0.07170000  0.99300000  0.79424000  1
  C  C22  1  0.08040000  0.02760000  0.29030000  1
  C  C23  1  0.08310000  0.05610000  0.72890000  1
  C  C24  1  0.22550000  0.85840000  0.12047000  1
  C  C25  1  0.22590000  0.87890000  0.89403000  1
  C  C26  1  0.23780000  0.92280000  0.19264000  1
  C  C27  1  0.23860000  0.94910000  0.82584000  1
  C  C28  1  0.26140000  0.05090000  0.32584000  1
  C  C29  1  0.26220000  0.07720000  0.69264000  1
  C  C30  1  0.27410000  0.12110000  0.39403000  1
  C  C31  1  0.27450000  0.14160000  0.62047000  1
  C  C32  1  0.41690000  0.94390000  0.22890000  1
  C  C33  1  0.41960000  0.97240000  0.79030000  1
  C  C34  1  0.42830000  0.00700000  0.29424000  1
  C  C35  1  0.43230000  0.03410000  0.72610000  1
  C  C36  1  0.56770000  0.53410000  0.77390000  1
  C  C37  1  0.57170000  0.50700000  0.20576000  1
  C  C38  1  0.58040000  0.47240000  0.70970000  1
  C  C39  1  0.58310000  0.44390000  0.27110000  1
  C  C40  1  0.72550000  0.64160000  0.87953000  1
  C  C41  1  0.72590000  0.62110000  0.10597000  1
  C  C42  1  0.73780000  0.57720000  0.80736000  1
  C  C43  1  0.73860000  0.55090000  0.17416000  1
  C  C44  1  0.76140000  0.44910000  0.67416000  1
  C  C45  1  0.76220000  0.42280000  0.30736000  1
  C  C46  1  0.77410000  0.37890000  0.60597000  1
  C  C47  1  0.77450000  0.35840000  0.37953000  1
  C  C48  1  0.91690000  0.55610000  0.77110000  1
  C  C49  1  0.91960000  0.52760000  0.20970000  1
  C  C50  1  0.92830000  0.49300000  0.70576000  1
  C  C51  1  0.93230000  0.46590000  0.27390000  1
  O  O52  1  0.05700000  0.85743000  0.92133000  1
  O  O53  1  0.05850000  0.83983000  0.09164000  1
  O  O54  1  0.11400000  0.15673000  0.42055000  1
  O  O55  1  0.11410000  0.17534000  0.59234000  1
  O  O56  1  0.21889000  0.68868000  0.99578000  1
  O  O57  1  0.28111000  0.31132000  0.49578000  1
  O  O58  1  0.38590000  0.82466000  0.09234000  1
  O  O59  1  0.38600000  0.84327000  0.92055000  1
  O  O60  1  0.44150000  0.16017000  0.59164000  1
  O  O61  1  0.44300000  0.14257000  0.42133000  1
  O  O62  1  0.55700000  0.64257000  0.07867000  1
  O  O63  1  0.55850000  0.66017000  0.90836000  1
  O  O64  1  0.61400000  0.34327000  0.57945000  1
  O  O65  1  0.61410000  0.32466000  0.40766000  1
  O  O66  1  0.71889000  0.81132000  0.00422000  1
  O  O67  1  0.78111000  0.18868000  0.50422000  1
  O  O68  1  0.88590000  0.67534000  0.90766000  1
  O  O69  1  0.88600000  0.65673000  0.07945000  1
  O  O70  1  0.94150000  0.33983000  0.40836000  1
  O  O71  1  0.94300000  0.35743000  0.57867000  1
