# generated using pymatgen
data_Mn3H36C66O13
_symmetry_space_group_name_H-M   'P 1'
_cell_length_a   20.09620000
_cell_length_b   20.09620000
_cell_length_c   26.91450000
_cell_angle_alpha   90.00000000
_cell_angle_beta   90.00000000
_cell_angle_gamma   120.00000000
_symmetry_Int_Tables_number   1
_chemical_formula_structural   Mn3H36C66O13
_chemical_formula_sum   'Mn6 H72 C132 O26'
_cell_volume   9413.36365001
_cell_formula_units_Z   2
loop_
 _symmetry_equiv_pos_site_id
 _symmetry_equiv_pos_as_xyz
  1  'x, y, z'
loop_
 _atom_site_type_symbol
 _atom_site_label
 _atom_site_symmetry_multiplicity
 _atom_site_fract_x
 _atom_site_fract_y
 _atom_site_fract_z
 _atom_site_occupancy
  Mn  Mn0  1  0.78336000  0.36722000  0.75000000  1
  Mn  Mn1  1  0.63278000  0.41613000  0.75000000  1
  Mn  Mn2  1  0.58387000  0.21664000  0.75000000  1
  Mn  Mn3  1  0.41613000  0.63278000  0.25000000  1
  Mn  Mn4  1  0.36722000  0.78336000  0.25000000  1
  Mn  Mn5  1  0.21664000  0.58387000  0.25000000  1
  H  H6  1  0.00000000  0.11530000  1.00000000  1
  H  H7  1  0.00000000  0.11530000  0.50000000  1
  H  H8  1  0.00000000  0.67240000  1.00000000  1
  H  H9  1  0.00000000  0.67240000  0.50000000  1
  H  H10  1  0.98390000  0.63090000  0.92000000  1
  H  H11  1  0.98390000  0.63090000  0.58000000  1
  H  H12  1  0.92270000  0.80590000  0.94460000  1
  H  H13  1  0.92270000  0.80590000  0.55540000  1
  H  H14  1  0.91420000  0.53720000  0.86070000  1
  H  H15  1  0.91420000  0.53720000  0.63930000  1
  H  H16  1  0.88470000  0.88470000  0.00000000  1
  H  H17  1  0.88470000  0.88470000  0.50000000  1
  H  H18  1  0.88320000  0.07730000  0.94460000  1
  H  H19  1  0.88320000  0.07730000  0.55540000  1
  H  H20  1  0.86830000  0.18100000  0.92320000  1
  H  H21  1  0.86830000  0.18100000  0.57680000  1
  H  H22  1  0.84280000  0.25090000  0.86700000  1
  H  H23  1  0.84280000  0.25090000  0.63300000  1
  H  H24  1  0.81900000  0.68730000  0.92320000  1
  H  H25  1  0.81900000  0.68730000  0.57680000  1
  H  H26  1  0.80590000  0.92270000  0.44460000  1
  H  H27  1  0.80590000  0.92270000  0.05540000  1
  H  H28  1  0.74910000  0.59190000  0.86700000  1
  H  H29  1  0.74910000  0.59190000  0.63300000  1
  H  H30  1  0.68730000  0.81900000  0.42320000  1
  H  H31  1  0.68730000  0.81900000  0.07680000  1
  H  H32  1  0.67240000  0.00000000  1.00000000  1
  H  H33  1  0.67240000  0.00000000  0.50000000  1
  H  H34  1  0.64700000  0.01610000  0.92000000  1
  H  H35  1  0.64700000  0.01610000  0.58000000  1
  H  H36  1  0.63090000  0.98390000  0.42000000  1
  H  H37  1  0.63090000  0.98390000  0.08000000  1
  H  H38  1  0.62300000  0.08580000  0.86070000  1
  H  H39  1  0.62300000  0.08580000  0.63930000  1
  H  H40  1  0.59190000  0.74910000  0.36700000  1
  H  H41  1  0.59190000  0.74910000  0.13300000  1
  H  H42  1  0.53720000  0.91420000  0.36070000  1
  H  H43  1  0.53720000  0.91420000  0.13930000  1
  H  H44  1  0.46280000  0.37700000  0.86070000  1
  H  H45  1  0.46280000  0.37700000  0.63930000  1
  H  H46  1  0.40810000  0.15720000  0.86700000  1
  H  H47  1  0.40810000  0.15720000  0.63300000  1
  H  H48  1  0.37700000  0.46280000  0.36070000  1
  H  H49  1  0.37700000  0.46280000  0.13930000  1
  H  H50  1  0.36910000  0.35300000  0.92000000  1
  H  H51  1  0.36910000  0.35300000  0.58000000  1
  H  H52  1  0.35300000  0.36910000  0.42000000  1
  H  H53  1  0.35300000  0.36910000  0.08000000  1
  H  H54  1  0.32760000  0.32760000  0.00000000  1
  H  H55  1  0.32760000  0.32760000  0.50000000  1
  H  H56  1  0.31270000  0.13170000  0.92320000  1
  H  H57  1  0.31270000  0.13170000  0.57680000  1
  H  H58  1  0.25090000  0.84280000  0.36700000  1
  H  H59  1  0.25090000  0.84280000  0.13300000  1
  H  H60  1  0.19410000  0.11680000  0.94460000  1
  H  H61  1  0.19410000  0.11680000  0.55540000  1
  H  H62  1  0.18100000  0.86830000  0.42320000  1
  H  H63  1  0.18100000  0.86830000  0.07680000  1
  H  H64  1  0.15720000  0.40810000  0.36700000  1
  H  H65  1  0.15720000  0.40810000  0.13300000  1
  H  H66  1  0.13170000  0.31270000  0.42320000  1
  H  H67  1  0.13170000  0.31270000  0.07680000  1
  H  H68  1  0.11680000  0.19410000  0.44460000  1
  H  H69  1  0.11680000  0.19410000  0.05540000  1
  H  H70  1  0.11530000  1.00000000  0.00000000  1
  H  H71  1  0.11530000  1.00000000  0.50000000  1
  H  H72  1  0.08580000  0.62300000  0.36070000  1
  H  H73  1  0.08580000  0.62300000  0.13930000  1
  H  H74  1  0.07730000  0.88320000  0.44460000  1
  H  H75  1  0.07730000  0.88320000  0.05540000  1
  H  H76  1  0.01610000  0.64700000  0.42000000  1
  H  H77  1  0.01610000  0.64700000  0.08000000  1
  C  C78  1  0.00000000  0.06898000  1.00000000  1
  C  C79  1  0.00000000  0.06898000  0.50000000  1
  C  C80  1  0.00000000  0.71868000  1.00000000  1
  C  C81  1  0.00000000  0.71868000  0.50000000  1
  C  C82  1  0.00000000  0.85655000  1.00000000  1
  C  C83  1  0.00000000  0.85655000  0.50000000  1
  C  C84  1  0.00000000  0.92988000  1.00000000  1
  C  C85  1  0.00000000  0.92988000  0.50000000  1
  C  C86  1  0.95499000  0.72951000  0.96567000  1
  C  C87  1  0.95499000  0.72951000  0.53433000  1
  C  C88  1  0.95415000  0.79852000  0.96657000  1
  C  C89  1  0.95415000  0.79852000  0.53343000  1
  C  C90  1  0.93659000  0.62325000  0.90930000  1
  C  C91  1  0.93659000  0.62325000  0.59070000  1
  C  C92  1  0.93102000  0.93102000  0.00000000  1
  C  C93  1  0.93102000  0.93102000  0.50000000  1
  C  C94  1  0.92988000  1.00000000  1.00000000  1
  C  C95  1  0.92988000  1.00000000  0.50000000  1
  C  C96  1  0.90802000  0.66874000  0.92874000  1
  C  C97  1  0.90802000  0.66874000  0.57126000  1
  C  C98  1  0.89439000  0.56644000  0.87395000  1
  C  C99  1  0.89439000  0.56644000  0.62605000  1
  C  C100  1  0.85655000  1.00000000  1.00000000  1
  C  C101  1  0.85655000  1.00000000  0.50000000  1
  C  C102  1  0.84437000  0.04585000  0.96657000  1
  C  C103  1  0.84437000  0.04585000  0.53343000  1
  C  C104  1  0.83822000  0.65662000  0.91164000  1
  C  C105  1  0.83822000  0.65662000  0.58836000  1
  C  C106  1  0.82245000  0.55355000  0.85844000  1
  C  C107  1  0.82245000  0.55355000  0.64156000  1
  C  C108  1  0.81840000  0.16178000  0.91164000  1
  C  C109  1  0.81840000  0.16178000  0.58836000  1
  C  C110  1  0.80288000  0.20345000  0.87747000  1
  C  C111  1  0.80288000  0.20345000  0.62253000  1
  C  C112  1  0.79852000  0.95415000  0.46657000  1
  C  C113  1  0.79852000  0.95415000  0.03343000  1
  C  C114  1  0.79655000  0.59943000  0.87747000  1
  C  C115  1  0.79655000  0.59943000  0.62253000  1
  C  C116  1  0.77785000  0.49157000  0.82012000  1
  C  C117  1  0.77785000  0.49157000  0.67988000  1
  C  C118  1  0.77452000  0.04501000  0.96567000  1
  C  C119  1  0.77452000  0.04501000  0.53433000  1
  C  C120  1  0.76072000  0.09198000  0.92874000  1
  C  C121  1  0.76072000  0.09198000  0.57126000  1
  C  C122  1  0.73110000  0.17755000  0.85844000  1
  C  C123  1  0.73110000  0.17755000  0.64156000  1
  C  C124  1  0.72951000  0.95499000  0.46567000  1
  C  C125  1  0.72951000  0.95499000  0.03433000  1
  C  C126  1  0.71868000  1.00000000  1.00000000  1
  C  C127  1  0.71868000  1.00000000  0.50000000  1
  C  C128  1  0.71372000  0.22215000  0.82012000  1
  C  C129  1  0.71372000  0.22215000  0.67988000  1
  C  C130  1  0.68666000  0.06341000  0.90930000  1
  C  C131  1  0.68666000  0.06341000  0.59070000  1
  C  C132  1  0.67205000  0.10561000  0.87395000  1
  C  C133  1  0.67205000  0.10561000  0.62605000  1
  C  C134  1  0.66874000  0.90802000  0.42874000  1
  C  C135  1  0.66874000  0.90802000  0.07126000  1
  C  C136  1  0.65662000  0.83822000  0.41164000  1
  C  C137  1  0.65662000  0.83822000  0.08836000  1
  C  C138  1  0.62325000  0.93659000  0.40930000  1
  C  C139  1  0.62325000  0.93659000  0.09070000  1
  C  C140  1  0.59943000  0.79655000  0.37747000  1
  C  C141  1  0.59943000  0.79655000  0.12253000  1
  C  C142  1  0.56644000  0.89439000  0.37395000  1
  C  C143  1  0.56644000  0.89439000  0.12605000  1
  C  C144  1  0.55355000  0.82245000  0.35844000  1
  C  C145  1  0.55355000  0.82245000  0.14156000  1
  C  C146  1  0.50843000  0.28628000  0.82012000  1
  C  C147  1  0.50843000  0.28628000  0.67988000  1
  C  C148  1  0.49157000  0.77785000  0.32012000  1
  C  C149  1  0.49157000  0.77785000  0.17988000  1
  C  C150  1  0.44645000  0.26890000  0.85844000  1
  C  C151  1  0.44645000  0.26890000  0.64156000  1
  C  C152  1  0.43356000  0.32795000  0.87395000  1
  C  C153  1  0.43356000  0.32795000  0.62605000  1
  C  C154  1  0.40057000  0.19712000  0.87747000  1
  C  C155  1  0.40057000  0.19712000  0.62253000  1
  C  C156  1  0.37675000  0.31334000  0.90930000  1
  C  C157  1  0.37675000  0.31334000  0.59070000  1
  C  C158  1  0.34338000  0.18160000  0.91164000  1
  C  C159  1  0.34338000  0.18160000  0.58836000  1
  C  C160  1  0.33126000  0.23928000  0.92874000  1
  C  C161  1  0.33126000  0.23928000  0.57126000  1
  C  C162  1  0.32795000  0.43356000  0.37395000  1
  C  C163  1  0.32795000  0.43356000  0.12605000  1
  C  C164  1  0.31334000  0.37675000  0.40930000  1
  C  C165  1  0.31334000  0.37675000  0.09070000  1
  C  C166  1  0.28628000  0.50843000  0.32012000  1
  C  C167  1  0.28628000  0.50843000  0.17988000  1
  C  C168  1  0.28132000  0.28132000  0.00000000  1
  C  C169  1  0.28132000  0.28132000  0.50000000  1
  C  C170  1  0.27049000  0.22548000  0.96567000  1
  C  C171  1  0.27049000  0.22548000  0.53433000  1
  C  C172  1  0.26890000  0.44645000  0.35844000  1
  C  C173  1  0.26890000  0.44645000  0.14156000  1
  C  C174  1  0.23928000  0.33126000  0.42874000  1
  C  C175  1  0.23928000  0.33126000  0.07126000  1
  C  C176  1  0.22548000  0.27049000  0.46567000  1
  C  C177  1  0.22548000  0.27049000  0.03433000  1
  C  C178  1  0.22215000  0.71372000  0.32012000  1
  C  C179  1  0.22215000  0.71372000  0.17988000  1
  C  C180  1  0.20345000  0.80288000  0.37747000  1
  C  C181  1  0.20345000  0.80288000  0.12253000  1
  C  C182  1  0.20148000  0.15563000  0.96657000  1
  C  C183  1  0.20148000  0.15563000  0.53343000  1
  C  C184  1  0.19712000  0.40057000  0.37747000  1
  C  C185  1  0.19712000  0.40057000  0.12253000  1
  C  C186  1  0.18160000  0.34338000  0.41164000  1
  C  C187  1  0.18160000  0.34338000  0.08836000  1
  C  C188  1  0.17755000  0.73110000  0.35844000  1
  C  C189  1  0.17755000  0.73110000  0.14156000  1
  C  C190  1  0.16178000  0.81840000  0.41164000  1
  C  C191  1  0.16178000  0.81840000  0.08836000  1
  C  C192  1  0.15563000  0.20148000  0.46657000  1
  C  C193  1  0.15563000  0.20148000  0.03343000  1
  C  C194  1  0.14345000  0.14345000  0.00000000  1
  C  C195  1  0.14345000  0.14345000  0.50000000  1
  C  C196  1  0.10561000  0.67205000  0.37395000  1
  C  C197  1  0.10561000  0.67205000  0.12605000  1
  C  C198  1  0.09198000  0.76072000  0.42874000  1
  C  C199  1  0.09198000  0.76072000  0.07126000  1
  C  C200  1  0.07012000  0.07012000  0.00000000  1
  C  C201  1  0.07012000  0.07012000  0.50000000  1
  C  C202  1  0.06898000  1.00000000  0.00000000  1
  C  C203  1  0.06898000  1.00000000  0.50000000  1
  C  C204  1  0.06341000  0.68666000  0.40930000  1
  C  C205  1  0.06341000  0.68666000  0.09070000  1
  C  C206  1  0.04585000  0.84437000  0.46657000  1
  C  C207  1  0.04585000  0.84437000  0.03343000  1
  C  C208  1  0.04501000  0.77452000  0.46567000  1
  C  C209  1  0.04501000  0.77452000  0.03433000  1
  O  O210  1  0.80679000  0.45252000  0.80645000  1
  O  O211  1  0.80679000  0.45252000  0.69355000  1
  O  O212  1  0.76914000  0.28417000  0.80650000  1
  O  O213  1  0.76914000  0.28417000  0.69350000  1
  O  O214  1  0.71583000  0.48497000  0.80650000  1
  O  O215  1  0.71583000  0.48497000  0.69350000  1
  O  O216  1  0.66666667  0.33333333  0.75000000  1
  O  O217  1  0.64573000  0.19321000  0.80645000  1
  O  O218  1  0.64573000  0.19321000  0.69355000  1
  O  O219  1  0.54748000  0.35427000  0.80645000  1
  O  O220  1  0.54748000  0.35427000  0.69355000  1
  O  O221  1  0.51503000  0.23086000  0.80650000  1
  O  O222  1  0.51503000  0.23086000  0.69350000  1
  O  O223  1  0.48497000  0.71583000  0.30650000  1
  O  O224  1  0.48497000  0.71583000  0.19350000  1
  O  O225  1  0.45252000  0.80679000  0.30645000  1
  O  O226  1  0.45252000  0.80679000  0.19355000  1
  O  O227  1  0.35427000  0.54748000  0.30645000  1
  O  O228  1  0.35427000  0.54748000  0.19355000  1
  O  O229  1  0.33333333  0.66666667  0.25000000  1
  O  O230  1  0.28417000  0.76914000  0.30650000  1
  O  O231  1  0.28417000  0.76914000  0.19350000  1
  O  O232  1  0.23086000  0.51503000  0.30650000  1
  O  O233  1  0.23086000  0.51503000  0.19350000  1
  O  O234  1  0.19321000  0.64573000  0.30645000  1
  O  O235  1  0.19321000  0.64573000  0.19355000  1
