# generated using pymatgen
data_Cd3H40C64(N5O6)2
_symmetry_space_group_name_H-M   'P 1'
_cell_length_a   7.90400000
_cell_length_b   13.97062289
_cell_length_c   31.98000000
_cell_angle_alpha   90.00000000
_cell_angle_beta   90.00000000
_cell_angle_gamma   106.43212565
_symmetry_Int_Tables_number   1
_chemical_formula_structural   Cd3H40C64(N5O6)2
_chemical_formula_sum   'Cd6 H80 C128 N20 O24'
_cell_volume   3387.11692800
_cell_formula_units_Z   2
loop_
 _symmetry_equiv_pos_site_id
 _symmetry_equiv_pos_as_xyz
  1  'x, y, z'
loop_
 _atom_site_type_symbol
 _atom_site_label
 _atom_site_symmetry_multiplicity
 _atom_site_fract_x
 _atom_site_fract_y
 _atom_site_fract_z
 _atom_site_occupancy
  C  C0  1  0.30300000  0.03300000  0.03770000  1
  C  C1  1  0.48810000  0.08340000  0.05290000  1
  C  C2  1  0.55400000  0.18720000  0.05390000  1
  C  C3  1  0.69880000  0.41120000  0.06080000  1
  C  C4  1  0.59830000  0.02720000  0.06450000  1
  C  C5  1  0.72210000  0.23600000  0.06700000  1
  C  C6  1  0.79280000  0.34880000  0.06990000  1
  C  C7  1  0.76570000  0.07300000  0.07800000  1
  C  C8  1  0.82300000  0.16880000  0.08100000  1
  C  C9  1  0.93890000  0.55160000  0.08240000  1
  C  C10  1  0.96040000  0.39080000  0.08600000  1
  C  C11  1  0.88880000  0.00980000  0.09040000  1
  C  C12  1  0.01080000  0.66380000  0.09200000  1
  C  C13  1  0.02170000  0.48400000  0.09360000  1
  C  C14  1  0.45210000  0.90200000  0.15570000  1
  C  C15  1  0.36230000  0.03420000  0.15670000  1
  C  C16  1  0.60250000  0.24100000  0.16850000  1
  C  C17  1  0.90070000  0.82260000  0.16970000  1
  C  C18  1  0.52050000  0.06140000  0.17500000  1
  C  C19  1  0.69390000  0.33760000  0.18360000  1
  C  C20  1  0.61280000  0.15700000  0.19040000  1
  C  C21  1  0.50430000  0.56080000  0.20440000  1
  C  C22  1  0.97820000  0.52620000  0.21050000  1
  C  C23  1  0.72000000  0.72280000  0.21510000  1
  C  C24  1  0.40210000  0.46980000  0.22010000  1
  C  C25  1  0.79130000  0.34760000  0.22080000  1
  C  C26  1  0.08860000  0.61760000  0.22490000  1
  C  C27  1  0.70780000  0.16740000  0.22720000  1
  C  C28  1  0.59950000  0.63320000  0.23170000  1
  C  C29  1  0.81650000  0.80660000  0.23610000  1
  C  C30  1  0.88830000  0.44980000  0.23650000  1
  C  C31  1  0.79630000  0.26400000  0.24170000  1
  C  C32  1  0.29630000  0.26400000  0.25830000  1
  C  C33  1  0.38830000  0.44980000  0.26350000  1
  C  C34  1  0.31650000  0.80660000  0.26390000  1
  C  C35  1  0.09950000  0.63320000  0.26830000  1
  C  C36  1  0.20780000  0.16740000  0.27280000  1
  C  C37  1  0.58860000  0.61760000  0.27510000  1
  C  C38  1  0.29130000  0.34760000  0.27920000  1
  C  C39  1  0.90210000  0.46980000  0.27990000  1
  C  C40  1  0.22000000  0.72280000  0.28490000  1
  C  C41  1  0.47820000  0.52620000  0.28950000  1
  C  C42  1  0.00430000  0.56080000  0.29560000  1
  C  C43  1  0.11280000  0.15700000  0.30960000  1
  C  C44  1  0.19390000  0.33760000  0.31640000  1
  C  C45  1  0.02050000  0.06140000  0.32500000  1
  C  C46  1  0.40070000  0.82260000  0.33030000  1
  C  C47  1  0.10250000  0.24100000  0.33150000  1
  C  C48  1  0.86230000  0.03420000  0.34330000  1
  C  C49  1  0.95210000  0.90200000  0.34430000  1
  C  C50  1  0.52170000  0.48400000  0.40640000  1
  C  C51  1  0.51080000  0.66380000  0.40800000  1
  C  C52  1  0.38880000  0.00980000  0.40960000  1
  C  C53  1  0.46040000  0.39080000  0.41400000  1
  C  C54  1  0.43890000  0.55160000  0.41760000  1
  C  C55  1  0.32300000  0.16880000  0.41900000  1
  C  C56  1  0.26570000  0.07300000  0.42200000  1
  C  C57  1  0.29280000  0.34880000  0.43010000  1
  C  C58  1  0.22210000  0.23600000  0.43300000  1
  C  C59  1  0.09830000  0.02720000  0.43550000  1
  C  C60  1  0.19880000  0.41120000  0.43920000  1
  C  C61  1  0.05400000  0.18720000  0.44610000  1
  C  C62  1  0.98810000  0.08340000  0.44710000  1
  C  C63  1  0.80300000  0.03300000  0.46230000  1
  C  C64  1  0.23000000  0.03300000  0.53770000  1
  C  C65  1  0.09530000  0.08340000  0.55290000  1
  C  C66  1  0.13320000  0.18720000  0.55390000  1
  C  C67  1  0.21240000  0.41120000  0.56080000  1
  C  C68  1  0.92890000  0.02720000  0.56450000  1
  C  C69  1  0.01390000  0.23600000  0.56700000  1
  C  C70  1  0.05600000  0.34880000  0.56990000  1
  C  C71  1  0.80730000  0.07300000  0.57800000  1
  C  C72  1  0.84580000  0.16880000  0.58100000  1
  C  C73  1  0.11270000  0.55160000  0.58240000  1
  C  C74  1  0.93040000  0.39080000  0.58600000  1
  C  C75  1  0.62100000  0.00980000  0.59040000  1
  C  C76  1  0.15300000  0.66380000  0.59200000  1
  C  C77  1  0.96230000  0.48400000  0.59360000  1
  C  C78  1  0.94990000  0.90200000  0.65570000  1
  C  C79  1  0.17190000  0.03420000  0.65670000  1
  C  C80  1  0.13850000  0.24100000  0.66850000  1
  C  C81  1  0.42190000  0.82260000  0.66970000  1
  C  C82  1  0.04090000  0.06140000  0.67500000  1
  C  C83  1  0.14370000  0.33760000  0.68360000  1
  C  C84  1  0.04420000  0.15700000  0.69040000  1
  C  C85  1  0.55650000  0.56080000  0.70440000  1
  C  C86  1  0.04800000  0.52620000  0.71050000  1
  C  C87  1  0.50280000  0.72280000  0.71510000  1
  C  C88  1  0.56770000  0.46980000  0.72010000  1
  C  C89  1  0.05630000  0.34760000  0.72080000  1
  C  C90  1  0.02900000  0.61760000  0.72490000  1
  C  C91  1  0.95960000  0.16740000  0.72720000  1
  C  C92  1  0.53370000  0.63320000  0.73170000  1
  C  C93  1  0.49010000  0.80660000  0.73610000  1
  C  C94  1  0.06150000  0.44980000  0.73650000  1
  C  C95  1  0.96770000  0.26400000  0.74170000  1
  C  C96  1  0.46770000  0.26400000  0.75830000  1
  C  C97  1  0.56150000  0.44980000  0.76350000  1
  C  C98  1  0.99010000  0.80660000  0.76390000  1
  C  C99  1  0.03370000  0.63320000  0.76830000  1
  C  C100  1  0.45960000  0.16740000  0.77280000  1
  C  C101  1  0.52900000  0.61760000  0.77510000  1
  C  C102  1  0.55630000  0.34760000  0.77920000  1
  C  C103  1  0.06770000  0.46980000  0.77990000  1
  C  C104  1  0.00280000  0.72280000  0.78490000  1
  C  C105  1  0.54800000  0.52620000  0.78950000  1
  C  C106  1  0.05650000  0.56080000  0.79560000  1
  C  C107  1  0.54420000  0.15700000  0.80960000  1
  C  C108  1  0.64370000  0.33760000  0.81640000  1
  C  C109  1  0.54090000  0.06140000  0.82500000  1
  C  C110  1  0.92190000  0.82260000  0.83030000  1
  C  C111  1  0.63850000  0.24100000  0.83150000  1
  C  C112  1  0.67190000  0.03420000  0.84330000  1
  C  C113  1  0.44990000  0.90200000  0.84430000  1
  C  C114  1  0.46230000  0.48400000  0.90640000  1
  C  C115  1  0.65300000  0.66380000  0.90800000  1
  C  C116  1  0.12100000  0.00980000  0.90960000  1
  C  C117  1  0.43040000  0.39080000  0.91400000  1
  C  C118  1  0.61270000  0.55160000  0.91760000  1
  C  C119  1  0.34580000  0.16880000  0.91900000  1
  C  C120  1  0.30730000  0.07300000  0.92200000  1
  C  C121  1  0.55600000  0.34880000  0.93010000  1
  C  C122  1  0.51390000  0.23600000  0.93300000  1
  C  C123  1  0.42890000  0.02720000  0.93550000  1
  C  C124  1  0.71240000  0.41120000  0.93920000  1
  C  C125  1  0.63320000  0.18720000  0.94610000  1
  C  C126  1  0.59530000  0.08340000  0.94710000  1
  C  C127  1  0.73000000  0.03300000  0.96230000  1
  Cd  Cd128  1  0.97714000  0.95428000  0.00000000  1
  Cd  Cd129  1  0.06849000  0.86886000  0.10837000  1
  Cd  Cd130  1  0.56849000  0.86886000  0.39163000  1
  Cd  Cd131  1  0.47714000  0.95428000  0.50000000  1
  Cd  Cd132  1  0.30037000  0.86886000  0.60837000  1
  Cd  Cd133  1  0.80037000  0.86886000  0.89163000  1
  H  H134  1  0.48080000  0.22520000  0.04540000  1
  H  H135  1  0.58510000  0.38620000  0.05030000  1
  H  H136  1  0.70720000  0.55400000  0.06110000  1
  H  H137  1  0.55870000  0.95800000  0.06300000  1
  H  H138  1  0.03130000  0.34940000  0.09150000  1
  H  H139  1  0.93390000  0.19660000  0.09270000  1
  H  H140  1  0.12890000  0.50600000  0.10760000  1
  H  H141  1  0.53620000  0.23420000  0.14410000  1
  H  H142  1  0.45870000  0.83740000  0.15140000  1
  H  H143  1  0.29290000  0.07720000  0.15290000  1
  H  H144  1  0.68920000  0.39400000  0.16870000  1
  H  H145  1  0.50860000  0.57300000  0.17580000  1
  H  H146  1  0.96490000  0.51660000  0.18180000  1
  H  H147  1  0.67570000  0.97180000  0.18340000  1
  H  H148  1  0.34140000  0.42080000  0.20150000  1
  H  H149  1  0.15200000  0.66600000  0.20640000  1
  H  H150  1  0.00400000  0.92040000  0.21380000  1
  H  H151  1  0.36030000  0.27060000  0.23360000  1
  H  H152  1  0.30710000  0.82060000  0.23580000  1
  H  H153  1  0.71340000  0.11140000  0.24230000  1
  H  H154  1  0.21340000  0.11140000  0.25770000  1
  H  H155  1  0.80710000  0.82060000  0.26420000  1
  H  H156  1  0.86030000  0.27060000  0.26640000  1
  H  H157  1  0.50400000  0.92040000  0.28620000  1
  H  H158  1  0.65200000  0.66600000  0.29360000  1
  H  H159  1  0.84140000  0.42080000  0.29850000  1
  H  H160  1  0.17570000  0.97180000  0.31660000  1
  H  H161  1  0.46490000  0.51660000  0.31820000  1
  H  H162  1  0.00860000  0.57300000  0.32420000  1
  H  H163  1  0.18920000  0.39400000  0.33130000  1
  H  H164  1  0.79290000  0.07720000  0.34710000  1
  H  H165  1  0.95870000  0.83740000  0.34860000  1
  H  H166  1  0.03620000  0.23420000  0.35590000  1
  H  H167  1  0.62890000  0.50600000  0.39240000  1
  H  H168  1  0.43390000  0.19660000  0.40730000  1
  H  H169  1  0.53130000  0.34940000  0.40850000  1
  H  H170  1  0.05870000  0.95800000  0.43700000  1
  H  H171  1  0.20720000  0.55400000  0.43890000  1
  H  H172  1  0.08510000  0.38620000  0.44970000  1
  H  H173  1  0.98080000  0.22520000  0.45460000  1
  H  H174  1  0.24440000  0.22520000  0.54540000  1
  H  H175  1  0.30110000  0.38620000  0.55030000  1
  H  H176  1  0.34680000  0.55400000  0.56110000  1
  H  H177  1  0.89930000  0.95800000  0.56300000  1
  H  H178  1  0.81810000  0.34940000  0.59150000  1
  H  H179  1  0.76270000  0.19660000  0.59270000  1
  H  H180  1  0.87710000  0.50600000  0.60760000  1
  H  H181  1  0.19800000  0.23420000  0.64410000  1
  H  H182  1  0.87870000  0.83740000  0.65140000  1
  H  H183  1  0.28430000  0.07720000  0.65290000  1
  H  H184  1  0.20480000  0.39400000  0.66870000  1
  H  H185  1  0.56440000  0.57300000  0.67580000  1
  H  H186  1  0.05170000  0.51660000  0.68180000  1
  H  H187  1  0.79610000  0.97180000  0.68340000  1
  H  H188  1  0.57940000  0.42080000  0.70150000  1
  H  H189  1  0.01400000  0.66600000  0.70640000  1
  H  H190  1  0.41640000  0.92040000  0.71380000  1
  H  H191  1  0.41030000  0.27060000  0.73360000  1
  H  H192  1  0.01350000  0.82060000  0.73580000  1
  H  H193  1  0.89800000  0.11140000  0.74230000  1
  H  H194  1  0.39800000  0.11140000  0.75770000  1
  H  H195  1  0.51350000  0.82060000  0.76420000  1
  H  H196  1  0.91030000  0.27060000  0.76640000  1
  H  H197  1  0.91640000  0.92040000  0.78620000  1
  H  H198  1  0.51400000  0.66600000  0.79360000  1
  H  H199  1  0.07940000  0.42080000  0.79850000  1
  H  H200  1  0.29610000  0.97180000  0.81660000  1
  H  H201  1  0.55170000  0.51660000  0.81820000  1
  H  H202  1  0.06440000  0.57300000  0.82420000  1
  H  H203  1  0.70480000  0.39400000  0.83130000  1
  H  H204  1  0.78430000  0.07720000  0.84710000  1
  H  H205  1  0.37870000  0.83740000  0.84860000  1
  H  H206  1  0.69800000  0.23420000  0.85590000  1
  H  H207  1  0.37710000  0.50600000  0.89240000  1
  H  H208  1  0.26270000  0.19660000  0.90730000  1
  H  H209  1  0.31810000  0.34940000  0.90850000  1
  H  H210  1  0.39930000  0.95800000  0.93700000  1
  H  H211  1  0.84680000  0.55400000  0.93890000  1
  H  H212  1  0.80110000  0.38620000  0.94970000  1
  H  H213  1  0.74440000  0.22520000  0.95460000  1
  N  N214  1  0.76910000  0.51420000  0.06690000  1
  N  N215  1  0.31280000  0.93800000  0.14430000  1
  N  N216  1  0.57650000  0.97640000  0.17390000  1
  N  N217  1  0.77860000  0.73500000  0.17520000  1
  N  N218  1  0.92740000  0.86460000  0.20800000  1
  N  N219  1  0.42740000  0.86460000  0.29200000  1
  N  N220  1  0.27860000  0.73500000  0.32480000  1
  N  N221  1  0.07650000  0.97640000  0.32610000  1
  N  N222  1  0.81280000  0.93800000  0.35570000  1
  N  N223  1  0.26910000  0.51420000  0.43310000  1
  N  N224  1  0.24510000  0.51420000  0.56690000  1
  N  N225  1  0.12520000  0.93800000  0.64430000  1
  N  N226  1  0.89990000  0.97640000  0.67390000  1
  N  N227  1  0.45640000  0.73500000  0.67520000  1
  N  N228  1  0.43720000  0.86460000  0.70800000  1
  N  N229  1  0.93720000  0.86460000  0.79200000  1
  N  N230  1  0.95640000  0.73500000  0.82480000  1
  N  N231  1  0.39990000  0.97640000  0.82610000  1
  N  N232  1  0.62520000  0.93800000  0.85570000  1
  N  N233  1  0.74510000  0.51420000  0.93310000  1
  O  O234  1  0.21320000  0.08340000  0.02120000  1
  O  O235  1  0.24230000  0.93700000  0.04260000  1
  O  O236  1  0.87310000  0.92940000  0.06990000  1
  O  O237  1  0.93100000  0.72080000  0.07910000  1
  O  O238  1  0.14890000  0.69160000  0.11270000  1
  O  O239  1  0.99570000  0.03700000  0.11970000  1
  O  O240  1  0.49570000  0.03700000  0.38030000  1
  O  O241  1  0.64890000  0.69160000  0.38730000  1
  O  O242  1  0.43100000  0.72080000  0.42090000  1
  O  O243  1  0.37310000  0.92940000  0.43010000  1
  O  O244  1  0.74230000  0.93700000  0.45740000  1
  O  O245  1  0.71320000  0.08340000  0.47880000  1
  O  O246  1  0.37020000  0.08340000  0.52120000  1
  O  O247  1  0.19470000  0.93700000  0.54260000  1
  O  O248  1  0.55630000  0.92940000  0.56990000  1
  O  O249  1  0.28980000  0.72080000  0.57910000  1
  O  O250  1  0.04270000  0.69160000  0.61270000  1
  O  O251  1  0.54130000  0.03700000  0.61970000  1
  O  O252  1  0.04130000  0.03700000  0.88030000  1
  O  O253  1  0.54270000  0.69160000  0.88730000  1
  O  O254  1  0.78980000  0.72080000  0.92090000  1
  O  O255  1  0.05630000  0.92940000  0.93010000  1
  O  O256  1  0.69470000  0.93700000  0.95740000  1
  O  O257  1  0.87020000  0.08340000  0.97880000  1
