# generated using pymatgen
data_CdH20C22(N3O2)2
_symmetry_space_group_name_H-M   'P 1'
_cell_length_a   8.05420000
_cell_length_b   18.78000000
_cell_length_c   19.28900000
_cell_angle_alpha   90.00000000
_cell_angle_beta   95.64100000
_cell_angle_gamma   90.00000000
_symmetry_Int_Tables_number   1
_chemical_formula_structural   CdH20C22(N3O2)2
_chemical_formula_sum   'Cd4 H80 C88 N24 O16'
_cell_volume   2903.48409248
_cell_formula_units_Z   4
loop_
 _symmetry_equiv_pos_site_id
 _symmetry_equiv_pos_as_xyz
  1  'x, y, z'
loop_
 _atom_site_type_symbol
 _atom_site_label
 _atom_site_symmetry_multiplicity
 _atom_site_fract_x
 _atom_site_fract_y
 _atom_site_fract_z
 _atom_site_occupancy
  Cd  Cd0  1  0.48326000  0.33853000  0.01528000  1
  Cd  Cd1  1  0.49037000  0.36127000  0.47449000  1
  Cd  Cd2  1  0.50963000  0.86127000  0.52551000  1
  Cd  Cd3  1  0.51674000  0.83853000  0.98472000  1
  H  H4  1  0.01660000  0.33530000  0.59360000  1
  H  H5  1  0.02340000  0.72200000  0.99460000  1
  H  H6  1  0.02450000  0.92560000  0.02410000  1
  H  H7  1  0.03860000  0.30190000  0.86450000  1
  H  H8  1  0.04530000  0.06650000  0.57960000  1
  H  H9  1  0.05670000  0.89470000  0.61400000  1
  H  H10  1  0.06020000  0.83650000  0.91070000  1
  H  H11  1  0.06380000  0.92590000  0.18940000  1
  H  H12  1  0.07630000  0.77290000  0.54260000  1
  H  H13  1  0.08280000  0.28380000  0.32290000  1
  H  H14  1  0.08970000  0.45840000  0.51640000  1
  H  H15  1  0.14770000  0.08850000  0.81920000  1
  H  H16  1  0.15640000  0.49620000  0.07710000  1
  H  H17  1  0.15790000  0.28440000  0.93260000  1
  H  H18  1  0.15940000  0.93910000  0.67350000  1
  H  H19  1  0.16330000  0.96300000  0.07550000  1
  H  H20  1  0.16490000  0.51660000  0.57010000  1
  H  H21  1  0.18680000  0.24690000  0.86120000  1
  H  H22  1  0.18840000  0.14390000  0.98740000  1
  H  H23  1  0.19060000  0.88410000  0.04970000  1
  H  H24  1  0.21890000  0.93670000  0.59770000  1
  H  H25  1  0.23870000  0.33970000  0.68060000  1
  H  H26  1  0.25510000  0.44200000  0.56530000  1
  H  H27  1  0.25610000  0.14170000  0.55980000  1
  H  H28  1  0.26520000  0.82980000  0.83630000  1
  H  H29  1  0.28380000  0.92100000  0.27600000  1
  H  H30  1  0.28690000  0.65560000  0.74110000  1
  H  H31  1  0.28930000  0.29250000  0.24550000  1
  H  H32  1  0.28980000  0.69430000  0.52200000  1
  H  H33  1  0.29950000  0.65710000  0.34390000  1
  H  H34  1  0.30000000  0.51340000  0.74290000  1
  H  H35  1  0.30560000  0.12650000  0.85840000  1
  H  H36  1  0.32850000  0.07110000  0.79810000  1
  H  H37  1  0.36590000  0.57430000  0.05280000  1
  H  H38  1  0.36610000  0.70700000  0.80060000  1
  H  H39  1  0.42520000  0.46010000  0.71140000  1
  H  H40  1  0.44980000  0.68320000  0.39700000  1
  H  H41  1  0.48280000  0.66640000  0.75210000  1
  H  H42  1  0.48470000  0.63470000  0.33280000  1
  H  H43  1  0.49330000  0.51730000  0.76750000  1
  H  H44  1  0.50670000  0.01730000  0.23250000  1
  H  H45  1  0.51530000  0.13470000  0.66720000  1
  H  H46  1  0.51720000  0.16640000  0.24790000  1
  H  H47  1  0.55020000  0.18320000  0.60300000  1
  H  H48  1  0.57480000  0.96010000  0.28860000  1
  H  H49  1  0.63390000  0.20700000  0.19940000  1
  H  H50  1  0.63410000  0.07430000  0.94720000  1
  H  H51  1  0.67150000  0.57110000  0.20190000  1
  H  H52  1  0.69440000  0.62650000  0.14160000  1
  H  H53  1  0.70000000  0.01340000  0.25710000  1
  H  H54  1  0.70050000  0.15710000  0.65610000  1
  H  H55  1  0.71020000  0.19430000  0.47800000  1
  H  H56  1  0.71070000  0.79250000  0.75450000  1
  H  H57  1  0.71310000  0.15560000  0.25890000  1
  H  H58  1  0.71620000  0.42100000  0.72400000  1
  H  H59  1  0.73480000  0.32980000  0.16370000  1
  H  H60  1  0.74390000  0.64170000  0.44020000  1
  H  H61  1  0.74490000  0.94200000  0.43470000  1
  H  H62  1  0.76130000  0.83970000  0.31940000  1
  H  H63  1  0.78110000  0.43670000  0.40230000  1
  H  H64  1  0.80940000  0.38410000  0.95030000  1
  H  H65  1  0.81160000  0.64390000  0.01260000  1
  H  H66  1  0.81320000  0.74690000  0.13880000  1
  H  H67  1  0.83510000  0.01660000  0.42990000  1
  H  H68  1  0.83670000  0.46300000  0.92450000  1
  H  H69  1  0.84060000  0.43910000  0.32650000  1
  H  H70  1  0.84210000  0.78440000  0.06740000  1
  H  H71  1  0.84360000  0.99620000  0.92290000  1
  H  H72  1  0.85230000  0.58850000  0.18080000  1
  H  H73  1  0.91030000  0.95840000  0.48360000  1
  H  H74  1  0.91720000  0.78380000  0.67710000  1
  H  H75  1  0.92370000  0.27290000  0.45740000  1
  H  H76  1  0.93620000  0.42590000  0.81060000  1
  H  H77  1  0.93980000  0.33650000  0.08930000  1
  H  H78  1  0.94330000  0.39470000  0.38600000  1
  H  H79  1  0.95470000  0.56650000  0.42040000  1
  H  H80  1  0.96140000  0.80190000  0.13550000  1
  H  H81  1  0.97550000  0.42560000  0.97590000  1
  H  H82  1  0.97660000  0.22200000  0.00540000  1
  H  H83  1  0.98340000  0.83530000  0.40640000  1
  C  C84  1  0.00040000  0.85410000  0.36250000  1
  C  C85  1  0.02120000  0.10870000  0.55440000  1
  C  C86  1  0.03170000  0.82590000  0.86340000  1
  C  C87  1  0.03300000  0.06300000  0.95150000  1
  C  C88  1  0.04770000  0.90770000  0.23360000  1
  C  C89  1  0.04980000  0.67600000  0.01120000  1
  C  C90  1  0.05100000  0.73060000  0.51790000  1
  C  C91  1  0.05380000  0.29470000  0.27570000  1
  C  C92  1  0.07620000  0.13040000  0.97770000  1
  C  C93  1  0.10730000  0.38340000  0.75220000  1
  C  C94  1  0.11060000  0.80610000  0.74920000  1
  C  C95  1  0.11250000  0.21560000  0.50560000  1
  C  C96  1  0.12950000  0.54210000  0.06000000  1
  C  C97  1  0.13280000  0.35650000  0.68930000  1
  C  C98  1  0.13290000  0.31470000  0.16060000  1
  C  C99  1  0.13880000  0.62340000  0.46950000  1
  C  C100  1  0.14360000  0.93030000  0.03660000  1
  C  C101  1  0.14590000  0.15300000  0.54270000  1
  C  C102  1  0.15220000  0.29060000  0.88250000  1
  C  C103  1  0.15320000  0.82200000  0.81950000  1
  C  C104  1  0.15440000  0.87810000  0.35090000  1
  C  C105  1  0.16750000  0.90970000  0.63270000  1
  C  C106  1  0.17660000  0.29960000  0.22940000  1
  C  C107  1  0.17770000  0.90480000  0.28510000  1
  C  C108  1  0.17860000  0.68410000  0.50570000  1
  C  C109  1  0.19190000  0.47870000  0.53890000  1
  C  C110  1  0.21510000  0.65660000  0.02380000  1
  C  C111  1  0.22470000  0.95870000  0.97550000  1
  C  C112  1  0.24950000  0.26450000  0.49120000  1
  C  C113  1  0.25380000  0.58880000  0.04650000  1
  C  C114  1  0.26390000  0.34920000  0.86600000  1
  C  C115  1  0.26410000  0.08260000  0.83660000  1
  C  C116  1  0.26590000  0.32080000  0.11080000  1
  C  C117  1  0.26910000  0.84700000  0.65200000  1
  C  C118  1  0.28020000  0.02370000  0.88880000  1
  C  C119  1  0.29270000  0.50790000  0.48540000  1
  C  C120  1  0.29300000  0.87730000  0.40750000  1
  C  C121  1  0.35080000  0.70970000  0.01040000  1
  C  C122  1  0.36150000  0.74990000  0.70440000  1
  C  C123  1  0.37550000  0.68960000  0.75380000  1
  C  C124  1  0.37770000  0.43320000  0.81040000  1
  C  C125  1  0.39060000  0.58070000  0.40960000  1
  C  C126  1  0.40120000  0.48570000  0.75290000  1
  C  C127  1  0.40750000  0.64430000  0.36730000  1
  C  C128  1  0.59250000  0.14430000  0.63270000  1
  C  C129  1  0.59880000  0.98570000  0.24710000  1
  C  C130  1  0.60940000  0.08070000  0.59040000  1
  C  C131  1  0.62230000  0.93320000  0.18960000  1
  C  C132  1  0.62450000  0.18960000  0.24620000  1
  C  C133  1  0.63850000  0.24990000  0.29560000  1
  C  C134  1  0.64920000  0.20970000  0.98960000  1
  C  C135  1  0.70700000  0.37730000  0.59250000  1
  C  C136  1  0.70730000  0.00790000  0.51460000  1
  C  C137  1  0.71980000  0.52370000  0.11120000  1
  C  C138  1  0.73090000  0.34700000  0.34800000  1
  C  C139  1  0.73410000  0.82080000  0.88920000  1
  C  C140  1  0.73590000  0.58260000  0.16340000  1
  C  C141  1  0.73610000  0.84920000  0.13400000  1
  C  C142  1  0.74620000  0.08880000  0.95350000  1
  C  C143  1  0.75050000  0.76450000  0.50880000  1
  C  C144  1  0.77530000  0.45870000  0.02450000  1
  C  C145  1  0.78490000  0.15660000  0.97620000  1
  C  C146  1  0.80810000  0.97870000  0.46110000  1
  C  C147  1  0.82140000  0.18410000  0.49430000  1
  C  C148  1  0.82230000  0.40480000  0.71490000  1
  C  C149  1  0.82340000  0.79960000  0.77060000  1
  C  C150  1  0.83250000  0.40970000  0.36730000  1
  C  C151  1  0.84560000  0.37810000  0.64910000  1
  C  C152  1  0.84680000  0.32200000  0.18050000  1
  C  C153  1  0.84780000  0.79060000  0.11750000  1
  C  C154  1  0.85410000  0.65300000  0.45730000  1
  C  C155  1  0.85640000  0.43030000  0.96340000  1
  C  C156  1  0.86120000  0.12340000  0.53050000  1
  C  C157  1  0.86710000  0.81470000  0.83940000  1
  C  C158  1  0.86720000  0.85650000  0.31070000  1
  C  C159  1  0.87050000  0.04210000  0.94000000  1
  C  C160  1  0.88750000  0.71560000  0.49440000  1
  C  C161  1  0.88940000  0.30610000  0.25080000  1
  C  C162  1  0.89270000  0.88340000  0.24780000  1
  C  C163  1  0.92380000  0.63040000  0.02230000  1
  C  C164  1  0.94620000  0.79470000  0.72430000  1
  C  C165  1  0.94900000  0.23060000  0.48210000  1
  C  C166  1  0.95020000  0.17600000  0.98880000  1
  C  C167  1  0.95230000  0.40770000  0.76640000  1
  C  C168  1  0.96700000  0.56300000  0.04850000  1
  C  C169  1  0.96830000  0.32590000  0.13660000  1
  C  C170  1  0.97880000  0.60870000  0.44560000  1
  C  C171  1  0.99960000  0.35410000  0.63750000  1
  N  N172  1  0.16730000  0.01540000  0.93720000  1
  N  N173  1  0.24130000  0.80060000  0.70290000  1
  N  N174  1  0.24570000  0.38780000  0.80660000  1
  N  N175  1  0.27080000  0.57370000  0.45590000  1
  N  N176  1  0.35750000  0.93360000  0.95110000  1
  N  N177  1  0.39260000  0.97460000  0.89560000  1
  N  N178  1  0.39690000  0.37100000  0.90390000  1
  N  N179  1  0.40180000  0.82460000  0.62360000  1
  N  N180  1  0.41580000  0.47690000  0.45850000  1
  N  N181  1  0.46070000  0.76320000  0.65650000  1
  N  N182  1  0.46920000  0.42500000  0.86740000  1
  N  N183  1  0.47840000  0.52290000  0.41050000  1
  N  N184  1  0.52160000  0.02290000  0.58950000  1
  N  N185  1  0.53080000  0.92500000  0.13260000  1
  N  N186  1  0.53930000  0.26320000  0.34350000  1
  N  N187  1  0.58420000  0.97690000  0.54150000  1
  N  N188  1  0.59820000  0.32460000  0.37640000  1
  N  N189  1  0.60310000  0.87100000  0.09610000  1
  N  N190  1  0.60740000  0.47460000  0.10440000  1
  N  N191  1  0.64250000  0.43360000  0.04890000  1
  N  N192  1  0.72920000  0.07370000  0.54410000  1
  N  N193  1  0.75430000  0.88780000  0.19340000  1
  N  N194  1  0.75870000  0.30060000  0.29710000  1
  N  N195  1  0.83270000  0.51540000  0.06280000  1
  O  O196  1  0.21220000  0.32440000  0.46280000  1
  O  O197  1  0.22160000  0.33660000  0.04850000  1
  O  O198  1  0.25540000  0.86460000  0.46780000  1
  O  O199  1  0.30060000  0.77250000  0.99980000  1
  O  O200  1  0.39580000  0.24740000  0.50830000  1
  O  O201  1  0.41640000  0.31150000  0.13150000  1
  O  O202  1  0.43920000  0.89030000  0.39540000  1
  O  O203  1  0.49840000  0.69150000  0.01230000  1
  O  O204  1  0.50160000  0.19150000  0.98770000  1
  O  O205  1  0.56080000  0.39030000  0.60460000  1
  O  O206  1  0.58360000  0.81150000  0.86850000  1
  O  O207  1  0.60420000  0.74740000  0.49170000  1
  O  O208  1  0.69940000  0.27250000  0.00020000  1
  O  O209  1  0.74460000  0.36460000  0.53220000  1
  O  O210  1  0.77840000  0.83660000  0.95150000  1
  O  O211  1  0.78780000  0.82440000  0.53720000  1
