# generated using pymatgen
data_ZnH10C16N3O4
_symmetry_space_group_name_H-M   'P 1'
_cell_length_a   7.92730000
_cell_length_b   10.55600000
_cell_length_c   13.15500000
_cell_angle_alpha   107.26000000
_cell_angle_beta   107.06000000
_cell_angle_gamma   90.65000000
_symmetry_Int_Tables_number   1
_chemical_formula_structural   ZnH10C16N3O4
_chemical_formula_sum   'Zn2 H20 C32 N6 O8'
_cell_volume   999.13582990
_cell_formula_units_Z   2
loop_
 _symmetry_equiv_pos_site_id
 _symmetry_equiv_pos_as_xyz
  1  'x, y, z'
loop_
 _atom_site_type_symbol
 _atom_site_label
 _atom_site_symmetry_multiplicity
 _atom_site_fract_x
 _atom_site_fract_y
 _atom_site_fract_z
 _atom_site_occupancy
  Zn  Zn0  1  0.27383000  0.95463000  0.70183000  1
  Zn  Zn1  1  0.61427000  0.12923000  0.82206000  1
  H  H2  1  0.01700000  0.11160000  0.89790000  1
  H  H3  1  0.12520000  0.62730000  0.81150000  1
  H  H4  1  0.17890000  0.70140000  0.49930000  1
  H  H5  1  0.21960000  0.84940000  0.00580000  1
  H  H6  1  0.23810000  0.84150000  0.17610000  1
  H  H7  1  0.24030000  0.45210000  0.80280000  1
  H  H8  1  0.26840000  0.24640000  0.02620000  1
  H  H9  1  0.30670000  0.93280000  0.38190000  1
  H  H10  1  0.50700000  0.57560000  0.69020000  1
  H  H11  1  0.55020000  0.15860000  0.14060000  1
  H  H12  1  0.56600000  0.15180000  0.32260000  1
  H  H13  1  0.57970000  0.14040000  0.46090000  1
  H  H14  1  0.62060000  0.82140000  0.50730000  1
  H  H15  1  0.66490000  0.39620000  0.69720000  1
  H  H16  1  0.71280000  0.39530000  0.99630000  1
  H  H17  1  0.87230000  0.94490000  0.64510000  1
  H  H18  1  0.91810000  0.28590000  0.72880000  1
  H  H19  1  0.92720000  0.57800000  0.36150000  1
  H  H20  1  0.95060000  0.80760000  0.81830000  1
  H  H21  1  0.96430000  0.53000000  0.12470000  1
  C  C22  1  0.00200000  0.61320000  0.78700000  1
  C  C23  1  0.00640000  0.19550000  0.94340000  1
  C  C24  1  0.06700000  0.72550000  0.50090000  1
  C  C25  1  0.14130000  0.40150000  0.08820000  1
  C  C26  1  0.15710000  0.27620000  0.02020000  1
  C  C27  1  0.17500000  0.36920000  0.78000000  1
  C  C28  1  0.27900000  0.24940000  0.77950000  1
  C  C29  1  0.29600000  0.91490000  0.06670000  1
  C  C30  1  0.30480000  0.48270000  0.17160000  1
  C  C31  1  0.30700000  0.91320000  0.17620000  1
  C  C32  1  0.38800000  0.99100000  0.37500000  1
  C  C33  1  0.39100000  0.00600000  0.04680000  1
  C  C34  1  0.39200000  0.98900000  0.27450000  1
  C  C35  1  0.39300000  0.01700000  0.94360000  1
  C  C36  1  0.48200000  0.08800000  0.14330000  1
  C  C37  1  0.49200000  0.08700000  0.26020000  1
  C  C38  1  0.50100000  0.07600000  0.58950000  1
  C  C39  1  0.50200000  0.07900000  0.46730000  1
  C  C40  1  0.61110000  0.63160000  0.33070000  1
  C  C41  1  0.62000000  0.83200000  0.74720000  1
  C  C42  1  0.63030000  0.58840000  0.71270000  1
  C  C43  1  0.71500000  0.71410000  0.74130000  1
  C  C44  1  0.72800000  0.47920000  0.71720000  1
  C  C45  1  0.73250000  0.79740000  0.50570000  1
  C  C46  1  0.74900000  0.68740000  0.42070000  1
  C  C47  1  0.82420000  0.36540000  0.00230000  1
  C  C48  1  0.88330000  0.87130000  0.58830000  1
  C  C49  1  0.89100000  0.72200000  0.78500000  1
  C  C50  1  0.90900000  0.48500000  0.74860000  1
  C  C51  1  0.91620000  0.65150000  0.41830000  1
  C  C52  1  0.97480000  0.44610000  0.07920000  1
  C  C53  1  0.98800000  0.36600000  0.74890000  1
  N  N54  1  0.05060000  0.83540000  0.58590000  1
  N  N55  1  0.29540000  0.60870000  0.24110000  1
  N  N56  1  0.44860000  0.68310000  0.32070000  1
  N  N57  1  0.46730000  0.43120000  0.18150000  1
  N  N58  1  0.62050000  0.50560000  0.26110000  1
  N  N59  1  0.84000000  0.24010000  0.93440000  1
  O  O60  1  0.17720000  0.13560000  0.73600000  1
  O  O61  1  0.26000000  0.95010000  0.85260000  1
  O  O62  1  0.37300000  0.99400000  0.58410000  1
  O  O63  1  0.44200000  0.27340000  0.81850000  1
  O  O64  1  0.44980000  0.81760000  0.70470000  1
  O  O65  1  0.52400000  0.08120000  0.94010000  1
  O  O66  1  0.61900000  0.13760000  0.66770000  1
  O  O67  1  0.70100000  0.94610000  0.79330000  1
