# generated using pymatgen
data_CsAg2(CN)3
_symmetry_space_group_name_H-M   'P 1'
_cell_length_a   9.15700000
_cell_length_b   9.15710000
_cell_length_c   33.37058046
_cell_angle_alpha   94.30700500
_cell_angle_beta   94.30675488
_cell_angle_gamma   116.91300000
_symmetry_Int_Tables_number   1
_chemical_formula_structural   CsAg2(CN)3
_chemical_formula_sum   'Cs12 Ag24 C36 N36'
_cell_volume   2469.27619173
_cell_formula_units_Z   12
loop_
 _symmetry_equiv_pos_site_id
 _symmetry_equiv_pos_as_xyz
  1  'x, y, z'
loop_
 _atom_site_type_symbol
 _atom_site_label
 _atom_site_symmetry_multiplicity
 _atom_site_fract_x
 _atom_site_fract_y
 _atom_site_fract_z
 _atom_site_occupancy
  Cs  Cs0  1  0.31612000  0.75596000  0.64098000  1
  Cs  Cs1  1  0.38502000  0.32486000  0.14098000  1
  Cs  Cs2  1  0.82486000  0.88502000  0.64098000  1
  Cs  Cs3  1  0.97066000  0.72066000  0.44132000  1
  Cs  Cs4  1  0.74404000  0.18388000  0.85902000  1
  Cs  Cs5  1  0.77934000  0.52934000  0.05868000  1
  Cs  Cs6  1  0.22066000  0.47066000  0.94132000  1
  Cs  Cs7  1  0.25596000  0.81612000  0.14098000  1
  Cs  Cs8  1  0.02934000  0.27934000  0.55868000  1
  Cs  Cs9  1  0.17514000  0.11498000  0.35902000  1
  Cs  Cs10  1  0.61498000  0.67514000  0.85902000  1
  Cs  Cs11  1  0.68388000  0.24404000  0.35902000  1
  Ag  Ag12  1  0.36723000  0.55811000  0.47706000  1
  Ag  Ag13  1  0.80649000  0.23469000  0.14894000  1
  Ag  Ag14  1  0.94189000  0.13277000  0.02294000  1
  Ag  Ag15  1  0.62500000  0.87500000  0.75000000  1
  Ag  Ag16  1  0.41895000  0.10983000  0.97706000  1
  Ag  Ag17  1  0.02931000  0.77931000  0.55862000  1
  Ag  Ag18  1  0.15755000  0.08575000  0.85106000  1
  Ag  Ag19  1  0.58575000  0.65755000  0.35106000  1
  Ag  Ag20  1  0.26531000  0.69351000  0.35106000  1
  Ag  Ag21  1  0.87500000  0.62500000  0.25000000  1
  Ag  Ag22  1  0.60983000  0.91895000  0.47706000  1
  Ag  Ag23  1  0.27931000  0.52931000  0.05862000  1
  Ag  Ag24  1  0.72069000  0.47069000  0.94138000  1
  Ag  Ag25  1  0.39017000  0.08105000  0.52294000  1
  Ag  Ag26  1  0.12500000  0.37500000  0.75000000  1
  Ag  Ag27  1  0.73469000  0.30649000  0.64894000  1
  Ag  Ag28  1  0.41425000  0.34245000  0.64894000  1
  Ag  Ag29  1  0.84245000  0.91425000  0.14894000  1
  Ag  Ag30  1  0.97069000  0.22069000  0.44138000  1
  Ag  Ag31  1  0.58105000  0.89017000  0.02294000  1
  Ag  Ag32  1  0.37500000  0.12500000  0.25000000  1
  Ag  Ag33  1  0.05811000  0.86723000  0.97706000  1
  Ag  Ag34  1  0.19351000  0.76531000  0.85106000  1
  Ag  Ag35  1  0.63277000  0.44189000  0.52294000  1
  C  C36  1  0.44310000  0.93790000  0.93560000  1
  C  C37  1  0.36050000  0.83690000  0.80880000  1
  C  C38  1  0.49770000  0.49250000  0.43560000  1
  C  C39  1  0.99250000  0.99770000  0.93560000  1
  C  C40  1  0.15490000  0.49490000  0.38460000  1
  C  C41  1  0.23110000  0.64370000  0.51120000  1
  C  C42  1  0.47190000  0.44830000  0.30880000  1
  C  C43  1  0.94830000  0.97190000  0.80880000  1
  C  C44  1  0.00510000  0.34510000  0.11540000  1
  C  C45  1  0.36750000  0.28010000  0.01120000  1
  C  C46  1  0.85630000  0.26890000  0.98880000  1
  C  C47  1  0.90880000  0.65880000  0.31760000  1
  C  C48  1  0.38970000  0.22970000  0.88460000  1
  C  C49  1  0.78010000  0.86750000  0.51120000  1
  C  C50  1  0.84120000  0.59120000  0.18240000  1
  C  C51  1  0.66310000  0.13950000  0.69120000  1
  C  C52  1  0.56210000  0.05690000  0.56440000  1
  C  C53  1  0.27030000  0.11030000  0.61540000  1
  C  C54  1  0.72970000  0.88970000  0.38460000  1
  C  C55  1  0.43790000  0.94310000  0.43560000  1
  C  C56  1  0.33690000  0.86050000  0.30880000  1
  C  C57  1  0.15880000  0.40880000  0.81760000  1
  C  C58  1  0.21990000  0.13250000  0.48880000  1
  C  C59  1  0.61030000  0.77030000  0.11540000  1
  C  C60  1  0.09120000  0.34120000  0.68240000  1
  C  C61  1  0.14370000  0.73110000  0.01120000  1
  C  C62  1  0.63250000  0.71990000  0.98880000  1
  C  C63  1  0.99490000  0.65490000  0.88460000  1
  C  C64  1  0.05170000  0.02810000  0.19120000  1
  C  C65  1  0.52810000  0.55170000  0.69120000  1
  C  C66  1  0.76890000  0.35630000  0.48880000  1
  C  C67  1  0.84510000  0.50510000  0.61540000  1
  C  C68  1  0.00750000  0.00230000  0.06440000  1
  C  C69  1  0.50230000  0.50750000  0.56440000  1
  C  C70  1  0.63950000  0.16310000  0.19120000  1
  C  C71  1  0.55690000  0.06210000  0.06440000  1
  N  N72  1  0.91940000  0.60840000  0.59700000  1
  N  N73  1  0.43160000  0.32960000  0.28660000  1
  N  N74  1  0.55370000  0.45670000  0.41200000  1
  N  N75  1  0.54470000  0.14170000  0.08800000  1
  N  N76  1  0.45700000  0.85500000  0.78660000  1
  N  N77  1  0.95670000  0.05370000  0.91200000  1
  N  N78  1  0.82960000  0.93160000  0.78660000  1
  N  N79  1  0.16170000  0.69990000  0.52960000  1
  N  N80  1  0.86790000  0.82970000  0.52960000  1
  N  N81  1  0.10840000  0.41940000  0.09700000  1
  N  N82  1  0.92310000  0.67310000  0.34620000  1
  N  N83  1  0.64500000  0.04300000  0.71340000  1
  N  N84  1  0.32970000  0.36790000  0.02960000  1
  N  N85  1  0.80010000  0.33830000  0.97040000  1
  N  N86  1  0.17760000  0.98860000  0.59700000  1
  N  N87  1  0.51140000  0.32240000  0.90300000  1
  N  N88  1  0.82690000  0.57690000  0.15380000  1
  N  N89  1  0.64170000  0.04470000  0.58800000  1
  N  N90  1  0.35830000  0.95530000  0.41200000  1
  N  N91  1  0.17310000  0.42310000  0.84620000  1
  N  N92  1  0.48860000  0.67760000  0.09700000  1
  N  N93  1  0.82240000  0.01140000  0.40300000  1
  N  N94  1  0.19990000  0.66170000  0.02960000  1
  N  N95  1  0.67030000  0.63210000  0.97040000  1
  N  N96  1  0.35500000  0.95700000  0.28660000  1
  N  N97  1  0.07690000  0.32690000  0.65380000  1
  N  N98  1  0.89160000  0.58060000  0.90300000  1
  N  N99  1  0.13210000  0.17030000  0.47040000  1
  N  N100  1  0.83830000  0.30010000  0.47040000  1
  N  N101  1  0.17040000  0.06840000  0.21340000  1
  N  N102  1  0.04330000  0.94630000  0.08800000  1
  N  N103  1  0.54300000  0.14500000  0.21340000  1
  N  N104  1  0.45530000  0.85830000  0.91200000  1
  N  N105  1  0.44630000  0.54330000  0.58800000  1
  N  N106  1  0.56840000  0.67040000  0.71340000  1
  N  N107  1  0.08060000  0.39160000  0.40300000  1
