# generated using pymatgen
data_CoH10W6C12N4O17
_symmetry_space_group_name_H-M   'P 1'
_cell_length_a   12.96400000
_cell_length_b   20.07600000
_cell_length_c   26.54800000
_cell_angle_alpha   90.00000000
_cell_angle_beta   90.00000000
_cell_angle_gamma   90.00000000
_symmetry_Int_Tables_number   1
_chemical_formula_structural   CoH10W6C12N4O17
_chemical_formula_sum   'Co8 H80 W48 C96 N32 O136'
_cell_volume   6909.52222867
_cell_formula_units_Z   8
loop_
 _symmetry_equiv_pos_site_id
 _symmetry_equiv_pos_as_xyz
  1  'x, y, z'
loop_
 _atom_site_type_symbol
 _atom_site_label
 _atom_site_symmetry_multiplicity
 _atom_site_fract_x
 _atom_site_fract_y
 _atom_site_fract_z
 _atom_site_occupancy
  Co  Co0  1  0.09660000  0.89306000  0.75925000  1
  Co  Co1  1  0.09660000  0.60694000  0.75925000  1
  Co  Co2  1  0.59660000  0.39306000  0.74075000  1
  Co  Co3  1  0.59660000  0.10694000  0.74075000  1
  Co  Co4  1  0.40340000  0.89306000  0.25925000  1
  Co  Co5  1  0.40340000  0.60694000  0.25925000  1
  Co  Co6  1  0.90340000  0.39306000  0.24075000  1
  Co  Co7  1  0.90340000  0.10694000  0.24075000  1
  H  H8  1  0.15300000  0.49250000  0.99620000  1
  H  H9  1  0.15300000  0.00750000  0.99620000  1
  H  H10  1  0.68480000  0.30710000  0.97410000  1
  H  H11  1  0.68480000  0.19290000  0.97410000  1
  H  H12  1  0.23180000  0.82580000  0.94780000  1
  H  H13  1  0.23180000  0.67420000  0.94780000  1
  H  H14  1  0.01450000  0.99740000  0.93350000  1
  H  H15  1  0.01450000  0.50260000  0.93350000  1
  H  H16  1  0.75970000  0.48810000  0.92790000  1
  H  H17  1  0.75970000  0.01190000  0.92790000  1
  H  H18  1  0.53190000  0.32140000  0.92450000  1
  H  H19  1  0.53190000  0.17860000  0.92450000  1
  H  H20  1  0.20860000  0.87170000  0.86870000  1
  H  H21  1  0.20860000  0.62830000  0.86870000  1
  H  H22  1  0.97070000  0.98800000  0.84540000  1
  H  H23  1  0.97070000  0.51200000  0.84540000  1
  H  H24  1  0.73330000  0.42660000  0.84390000  1
  H  H25  1  0.73330000  0.07340000  0.84390000  1
  H  H26  1  0.48010000  0.32140000  0.83550000  1
  H  H27  1  0.48010000  0.17860000  0.83550000  1
  H  H28  1  0.98010000  0.82140000  0.66450000  1
  H  H29  1  0.98010000  0.67860000  0.66450000  1
  H  H30  1  0.23330000  0.92660000  0.65610000  1
  H  H31  1  0.23330000  0.57340000  0.65610000  1
  H  H32  1  0.47070000  0.48800000  0.65460000  1
  H  H33  1  0.47070000  0.01200000  0.65460000  1
  H  H34  1  0.70860000  0.37170000  0.63130000  1
  H  H35  1  0.70860000  0.12830000  0.63130000  1
  H  H36  1  0.03190000  0.82140000  0.57550000  1
  H  H37  1  0.03190000  0.67860000  0.57550000  1
  H  H38  1  0.25970000  0.98810000  0.57210000  1
  H  H39  1  0.25970000  0.51190000  0.57210000  1
  H  H40  1  0.51450000  0.49740000  0.56650000  1
  H  H41  1  0.51450000  0.00260000  0.56650000  1
  H  H42  1  0.73180000  0.32580000  0.55220000  1
  H  H43  1  0.73180000  0.17420000  0.55220000  1
  H  H44  1  0.18480000  0.80710000  0.52590000  1
  H  H45  1  0.18480000  0.69290000  0.52590000  1
  H  H46  1  0.65300000  0.99250000  0.50380000  1
  H  H47  1  0.65300000  0.50750000  0.50380000  1
  H  H48  1  0.34700000  0.49250000  0.49620000  1
  H  H49  1  0.34700000  0.00750000  0.49620000  1
  H  H50  1  0.81520000  0.30710000  0.47410000  1
  H  H51  1  0.81520000  0.19290000  0.47410000  1
  H  H52  1  0.26820000  0.82580000  0.44780000  1
  H  H53  1  0.26820000  0.67420000  0.44780000  1
  H  H54  1  0.48550000  0.99740000  0.43350000  1
  H  H55  1  0.48550000  0.50260000  0.43350000  1
  H  H56  1  0.74030000  0.48810000  0.42790000  1
  H  H57  1  0.74030000  0.01190000  0.42790000  1
  H  H58  1  0.96810000  0.32140000  0.42450000  1
  H  H59  1  0.96810000  0.17860000  0.42450000  1
  H  H60  1  0.29140000  0.87170000  0.36870000  1
  H  H61  1  0.29140000  0.62830000  0.36870000  1
  H  H62  1  0.52930000  0.98800000  0.34540000  1
  H  H63  1  0.52930000  0.51200000  0.34540000  1
  H  H64  1  0.76670000  0.42660000  0.34390000  1
  H  H65  1  0.76670000  0.07340000  0.34390000  1
  H  H66  1  0.01990000  0.32140000  0.33550000  1
  H  H67  1  0.01990000  0.17860000  0.33550000  1
  H  H68  1  0.51990000  0.82140000  0.16450000  1
  H  H69  1  0.51990000  0.67860000  0.16450000  1
  H  H70  1  0.26670000  0.92660000  0.15610000  1
  H  H71  1  0.26670000  0.57340000  0.15610000  1
  H  H72  1  0.02930000  0.48800000  0.15460000  1
  H  H73  1  0.02930000  0.01200000  0.15460000  1
  H  H74  1  0.79140000  0.37170000  0.13130000  1
  H  H75  1  0.79140000  0.12830000  0.13130000  1
  H  H76  1  0.46810000  0.82140000  0.07550000  1
  H  H77  1  0.46810000  0.67860000  0.07550000  1
  H  H78  1  0.24030000  0.98810000  0.07210000  1
  H  H79  1  0.24030000  0.51190000  0.07210000  1
  H  H80  1  0.98550000  0.49740000  0.06650000  1
  H  H81  1  0.98550000  0.00260000  0.06650000  1
  H  H82  1  0.76820000  0.32580000  0.05220000  1
  H  H83  1  0.76820000  0.17420000  0.05220000  1
  H  H84  1  0.31520000  0.80710000  0.02590000  1
  H  H85  1  0.31520000  0.69290000  0.02590000  1
  H  H86  1  0.84700000  0.99250000  0.00380000  1
  H  H87  1  0.84700000  0.50750000  0.00380000  1
  W  W88  1  0.43449000  0.75000000  0.86896000  1
  W  W89  1  0.68144000  0.84218000  0.86818000  1
  W  W90  1  0.68144000  0.65782000  0.86818000  1
  W  W91  1  0.23956000  0.25000000  0.84766000  1
  W  W92  1  0.01567000  0.33282000  0.84708000  1
  W  W93  1  0.01567000  0.16718000  0.84708000  1
  W  W94  1  0.35936000  0.83055000  0.76893000  1
  W  W95  1  0.35936000  0.66945000  0.76893000  1
  W  W96  1  0.60493000  0.92296000  0.76695000  1
  W  W97  1  0.60493000  0.57704000  0.76695000  1
  W  W98  1  0.82371000  0.84186000  0.76620000  1
  W  W99  1  0.82371000  0.65814000  0.76620000  1
  W  W100  1  0.32371000  0.34186000  0.73380000  1
  W  W101  1  0.32371000  0.15814000  0.73380000  1
  W  W102  1  0.10493000  0.42296000  0.73305000  1
  W  W103  1  0.10493000  0.07704000  0.73305000  1
  W  W104  1  0.85936000  0.33055000  0.73107000  1
  W  W105  1  0.85936000  0.16945000  0.73107000  1
  W  W106  1  0.51567000  0.83282000  0.65292000  1
  W  W107  1  0.51567000  0.66718000  0.65292000  1
  W  W108  1  0.73956000  0.75000000  0.65234000  1
  W  W109  1  0.18144000  0.34218000  0.63182000  1
  W  W110  1  0.18144000  0.15782000  0.63182000  1
  W  W111  1  0.93449000  0.25000000  0.63104000  1
  W  W112  1  0.06551000  0.75000000  0.36896000  1
  W  W113  1  0.81856000  0.84218000  0.36818000  1
  W  W114  1  0.81856000  0.65782000  0.36818000  1
  W  W115  1  0.26044000  0.25000000  0.34766000  1
  W  W116  1  0.48433000  0.33282000  0.34708000  1
  W  W117  1  0.48433000  0.16718000  0.34708000  1
  W  W118  1  0.14064000  0.83055000  0.26893000  1
  W  W119  1  0.14064000  0.66945000  0.26893000  1
  W  W120  1  0.89507000  0.92296000  0.26695000  1
  W  W121  1  0.89507000  0.57704000  0.26695000  1
  W  W122  1  0.67629000  0.84186000  0.26620000  1
  W  W123  1  0.67629000  0.65814000  0.26620000  1
  W  W124  1  0.17629000  0.34186000  0.23380000  1
  W  W125  1  0.17629000  0.15814000  0.23380000  1
  W  W126  1  0.39507000  0.42296000  0.23305000  1
  W  W127  1  0.39507000  0.07704000  0.23305000  1
  W  W128  1  0.64064000  0.33055000  0.23107000  1
  W  W129  1  0.64064000  0.16945000  0.23107000  1
  W  W130  1  0.98433000  0.83282000  0.15292000  1
  W  W131  1  0.98433000  0.66718000  0.15292000  1
  W  W132  1  0.76044000  0.75000000  0.15234000  1
  W  W133  1  0.31856000  0.34218000  0.13182000  1
  W  W134  1  0.31856000  0.15782000  0.13182000  1
  W  W135  1  0.56551000  0.25000000  0.13104000  1
  C  C136  1  0.81460000  0.46690000  0.99800000  1
  C  C137  1  0.81460000  0.03310000  0.99800000  1
  C  C138  1  0.71600000  0.34780000  0.98050000  1
  C  C139  1  0.71600000  0.15220000  0.98050000  1
  C  C140  1  0.23100000  0.85830000  0.97270000  1
  C  C141  1  0.23100000  0.64170000  0.97270000  1
  C  C142  1  0.18190000  0.91660000  0.96580000  1
  C  C143  1  0.18190000  0.58340000  0.96580000  1
  C  C144  1  0.76170000  0.45560000  0.95280000  1
  C  C145  1  0.76170000  0.04440000  0.95280000  1
  C  C146  1  0.71290000  0.39590000  0.94590000  1
  C  C147  1  0.71290000  0.10410000  0.94590000  1
  C  C148  1  0.04700000  0.96990000  0.91010000  1
  C  C149  1  0.04700000  0.53010000  0.91010000  1
  C  C150  1  0.56560000  0.34280000  0.89820000  1
  C  C151  1  0.56560000  0.15720000  0.89820000  1
  C  C152  1  0.15300000  0.90010000  0.87410000  1
  C  C153  1  0.15300000  0.59990000  0.87410000  1
  C  C154  1  0.02310000  0.96450000  0.86150000  1
  C  C155  1  0.02310000  0.53550000  0.86150000  1
  C  C156  1  0.67640000  0.40110000  0.85300000  1
  C  C157  1  0.67640000  0.09890000  0.85300000  1
  C  C158  1  0.53780000  0.34320000  0.84820000  1
  C  C159  1  0.53780000  0.15680000  0.84820000  1
  C  C160  1  0.03780000  0.84320000  0.65180000  1
  C  C161  1  0.03780000  0.65680000  0.65180000  1
  C  C162  1  0.17640000  0.90110000  0.64700000  1
  C  C163  1  0.17640000  0.59890000  0.64700000  1
  C  C164  1  0.52310000  0.46450000  0.63850000  1
  C  C165  1  0.52310000  0.03550000  0.63850000  1
  C  C166  1  0.65300000  0.40010000  0.62590000  1
  C  C167  1  0.65300000  0.09990000  0.62590000  1
  C  C168  1  0.06560000  0.84280000  0.60180000  1
  C  C169  1  0.06560000  0.65720000  0.60180000  1
  C  C170  1  0.54700000  0.46990000  0.58990000  1
  C  C171  1  0.54700000  0.03010000  0.58990000  1
  C  C172  1  0.21290000  0.89590000  0.55410000  1
  C  C173  1  0.21290000  0.60410000  0.55410000  1
  C  C174  1  0.26170000  0.95560000  0.54720000  1
  C  C175  1  0.26170000  0.54440000  0.54720000  1
  C  C176  1  0.68190000  0.41660000  0.53420000  1
  C  C177  1  0.68190000  0.08340000  0.53420000  1
  C  C178  1  0.73100000  0.35830000  0.52730000  1
  C  C179  1  0.73100000  0.14170000  0.52730000  1
  C  C180  1  0.21600000  0.84780000  0.51950000  1
  C  C181  1  0.21600000  0.65220000  0.51950000  1
  C  C182  1  0.31460000  0.96690000  0.50200000  1
  C  C183  1  0.31460000  0.53310000  0.50200000  1
  C  C184  1  0.68540000  0.46690000  0.49800000  1
  C  C185  1  0.68540000  0.03310000  0.49800000  1
  C  C186  1  0.78400000  0.34780000  0.48050000  1
  C  C187  1  0.78400000  0.15220000  0.48050000  1
  C  C188  1  0.26900000  0.85830000  0.47270000  1
  C  C189  1  0.26900000  0.64170000  0.47270000  1
  C  C190  1  0.31810000  0.91660000  0.46580000  1
  C  C191  1  0.31810000  0.58340000  0.46580000  1
  C  C192  1  0.73830000  0.45560000  0.45280000  1
  C  C193  1  0.73830000  0.04440000  0.45280000  1
  C  C194  1  0.78710000  0.39590000  0.44590000  1
  C  C195  1  0.78710000  0.10410000  0.44590000  1
  C  C196  1  0.45300000  0.96990000  0.41010000  1
  C  C197  1  0.45300000  0.53010000  0.41010000  1
  C  C198  1  0.93440000  0.34280000  0.39820000  1
  C  C199  1  0.93440000  0.15720000  0.39820000  1
  C  C200  1  0.34700000  0.90010000  0.37410000  1
  C  C201  1  0.34700000  0.59990000  0.37410000  1
  C  C202  1  0.47690000  0.96450000  0.36150000  1
  C  C203  1  0.47690000  0.53550000  0.36150000  1
  C  C204  1  0.82360000  0.40110000  0.35300000  1
  C  C205  1  0.82360000  0.09890000  0.35300000  1
  C  C206  1  0.96220000  0.34320000  0.34820000  1
  C  C207  1  0.96220000  0.15680000  0.34820000  1
  C  C208  1  0.46220000  0.84320000  0.15180000  1
  C  C209  1  0.46220000  0.65680000  0.15180000  1
  C  C210  1  0.32360000  0.90110000  0.14700000  1
  C  C211  1  0.32360000  0.59890000  0.14700000  1
  C  C212  1  0.97690000  0.46450000  0.13850000  1
  C  C213  1  0.97690000  0.03550000  0.13850000  1
  C  C214  1  0.84700000  0.40010000  0.12590000  1
  C  C215  1  0.84700000  0.09990000  0.12590000  1
  C  C216  1  0.43440000  0.84280000  0.10180000  1
  C  C217  1  0.43440000  0.65720000  0.10180000  1
  C  C218  1  0.95300000  0.46990000  0.08990000  1
  C  C219  1  0.95300000  0.03010000  0.08990000  1
  C  C220  1  0.28710000  0.89590000  0.05410000  1
  C  C221  1  0.28710000  0.60410000  0.05410000  1
  C  C222  1  0.23830000  0.95560000  0.04720000  1
  C  C223  1  0.23830000  0.54440000  0.04720000  1
  C  C224  1  0.81810000  0.41660000  0.03420000  1
  C  C225  1  0.81810000  0.08340000  0.03420000  1
  C  C226  1  0.76900000  0.35830000  0.02730000  1
  C  C227  1  0.76900000  0.14170000  0.02730000  1
  C  C228  1  0.28400000  0.84780000  0.01950000  1
  C  C229  1  0.28400000  0.65220000  0.01950000  1
  C  C230  1  0.18540000  0.96690000  0.00200000  1
  C  C231  1  0.18540000  0.53310000  0.00200000  1
  N  N232  1  0.12860000  0.92760000  0.91970000  1
  N  N233  1  0.12860000  0.57240000  0.91970000  1
  N  N234  1  0.65550000  0.38140000  0.90110000  1
  N  N235  1  0.65550000  0.11860000  0.90110000  1
  N  N236  1  0.08760000  0.91890000  0.83840000  1
  N  N237  1  0.08760000  0.58110000  0.83840000  1
  N  N238  1  0.60430000  0.37920000  0.81980000  1
  N  N239  1  0.60430000  0.12080000  0.81980000  1
  N  N240  1  0.10430000  0.87920000  0.68020000  1
  N  N241  1  0.10430000  0.62080000  0.68020000  1
  N  N242  1  0.58760000  0.41890000  0.66160000  1
  N  N243  1  0.58760000  0.08110000  0.66160000  1
  N  N244  1  0.15550000  0.88140000  0.59890000  1
  N  N245  1  0.15550000  0.61860000  0.59890000  1
  N  N246  1  0.62860000  0.42760000  0.58030000  1
  N  N247  1  0.62860000  0.07240000  0.58030000  1
  N  N248  1  0.37140000  0.92760000  0.41970000  1
  N  N249  1  0.37140000  0.57240000  0.41970000  1
  N  N250  1  0.84450000  0.38140000  0.40110000  1
  N  N251  1  0.84450000  0.11860000  0.40110000  1
  N  N252  1  0.41240000  0.91890000  0.33840000  1
  N  N253  1  0.41240000  0.58110000  0.33840000  1
  N  N254  1  0.89570000  0.37920000  0.31980000  1
  N  N255  1  0.89570000  0.12080000  0.31980000  1
  N  N256  1  0.39570000  0.87920000  0.18020000  1
  N  N257  1  0.39570000  0.62080000  0.18020000  1
  N  N258  1  0.91240000  0.41890000  0.16160000  1
  N  N259  1  0.91240000  0.08110000  0.16160000  1
  N  N260  1  0.34450000  0.88140000  0.09890000  1
  N  N261  1  0.34450000  0.61860000  0.09890000  1
  N  N262  1  0.87140000  0.42760000  0.08030000  1
  N  N263  1  0.87140000  0.07240000  0.08030000  1
  O  O264  1  0.97310000  0.25000000  0.87730000  1
  O  O265  1  0.54090000  0.81520000  0.87610000  1
  O  O266  1  0.54090000  0.68480000  0.87610000  1
  O  O267  1  0.15110000  0.31740000  0.87610000  1
  O  O268  1  0.15110000  0.18260000  0.87610000  1
  O  O269  1  0.71390000  0.75000000  0.87490000  1
  O  O270  1  0.34590000  0.81790000  0.84080000  1
  O  O271  1  0.34590000  0.68210000  0.84080000  1
  O  O272  1  0.63290000  0.92480000  0.83830000  1
  O  O273  1  0.63290000  0.57520000  0.83830000  1
  O  O274  1  0.81450000  0.85850000  0.83760000  1
  O  O275  1  0.81450000  0.64150000  0.83760000  1
  O  O276  1  0.08910000  0.25000000  0.80170000  1
  O  O277  1  0.28900000  0.31530000  0.80050000  1
  O  O278  1  0.28900000  0.18470000  0.80050000  1
  O  O279  1  0.08420000  0.39250000  0.80020000  1
  O  O280  1  0.08420000  0.10750000  0.80020000  1
  O  O281  1  0.90740000  0.32780000  0.79890000  1
  O  O282  1  0.90740000  0.17220000  0.79890000  1
  O  O283  1  0.46480000  0.75000000  0.78620000  1
  O  O284  1  0.66100000  0.82170000  0.78580000  1
  O  O285  1  0.66100000  0.67830000  0.78580000  1
  O  O286  1  0.46930000  0.89150000  0.78040000  1
  O  O287  1  0.46930000  0.60850000  0.78040000  1
  O  O288  1  0.84930000  0.75000000  0.77860000  1
  O  O289  1  0.25580000  0.88520000  0.76280000  1
  O  O290  1  0.25580000  0.61480000  0.76280000  1
  O  O291  1  0.58450000  0.49290000  0.75850000  1
  O  O292  1  0.58450000  0.00710000  0.75850000  1
  O  O293  1  0.94540000  0.87220000  0.75680000  1
  O  O294  1  0.94540000  0.62780000  0.75680000  1
  O  O295  1  0.27910000  0.75000000  0.75630000  1
  O  O296  1  0.74830000  0.92510000  0.75430000  1
  O  O297  1  0.74830000  0.57490000  0.75430000  1
  O  O298  1  0.24830000  0.42510000  0.74570000  1
  O  O299  1  0.24830000  0.07490000  0.74570000  1
  O  O300  1  0.77910000  0.25000000  0.74370000  1
  O  O301  1  0.44540000  0.37220000  0.74320000  1
  O  O302  1  0.44540000  0.12780000  0.74320000  1
  O  O303  1  0.08450000  0.99290000  0.74150000  1
  O  O304  1  0.08450000  0.50710000  0.74150000  1
  O  O305  1  0.75580000  0.38520000  0.73720000  1
  O  O306  1  0.75580000  0.11480000  0.73720000  1
  O  O307  1  0.34930000  0.25000000  0.72140000  1
  O  O308  1  0.96930000  0.39150000  0.71960000  1
  O  O309  1  0.96930000  0.10850000  0.71960000  1
  O  O310  1  0.16100000  0.32170000  0.71420000  1
  O  O311  1  0.16100000  0.17830000  0.71420000  1
  O  O312  1  0.96480000  0.25000000  0.71380000  1
  O  O313  1  0.40740000  0.82780000  0.70110000  1
  O  O314  1  0.40740000  0.67220000  0.70110000  1
  O  O315  1  0.58420000  0.89250000  0.69980000  1
  O  O316  1  0.58420000  0.60750000  0.69980000  1
  O  O317  1  0.78900000  0.81530000  0.69950000  1
  O  O318  1  0.78900000  0.68470000  0.69950000  1
  O  O319  1  0.58910000  0.75000000  0.69830000  1
  O  O320  1  0.31450000  0.35850000  0.66240000  1
  O  O321  1  0.31450000  0.14150000  0.66240000  1
  O  O322  1  0.13290000  0.42480000  0.66170000  1
  O  O323  1  0.13290000  0.07520000  0.66170000  1
  O  O324  1  0.84590000  0.31790000  0.65920000  1
  O  O325  1  0.84590000  0.18210000  0.65920000  1
  O  O326  1  0.21390000  0.25000000  0.62510000  1
  O  O327  1  0.65110000  0.81740000  0.62390000  1
  O  O328  1  0.65110000  0.68260000  0.62390000  1
  O  O329  1  0.04090000  0.31520000  0.62390000  1
  O  O330  1  0.04090000  0.18480000  0.62390000  1
  O  O331  1  0.47310000  0.75000000  0.62270000  1
  O  O332  1  0.52690000  0.25000000  0.37730000  1
  O  O333  1  0.95910000  0.81520000  0.37610000  1
  O  O334  1  0.95910000  0.68480000  0.37610000  1
  O  O335  1  0.34890000  0.31740000  0.37610000  1
  O  O336  1  0.34890000  0.18260000  0.37610000  1
  O  O337  1  0.78610000  0.75000000  0.37490000  1
  O  O338  1  0.15410000  0.81790000  0.34080000  1
  O  O339  1  0.15410000  0.68210000  0.34080000  1
  O  O340  1  0.86710000  0.92480000  0.33830000  1
  O  O341  1  0.86710000  0.57520000  0.33830000  1
  O  O342  1  0.68550000  0.85850000  0.33760000  1
  O  O343  1  0.68550000  0.64150000  0.33760000  1
  O  O344  1  0.41090000  0.25000000  0.30170000  1
  O  O345  1  0.21100000  0.31530000  0.30050000  1
  O  O346  1  0.21100000  0.18470000  0.30050000  1
  O  O347  1  0.41580000  0.39250000  0.30020000  1
  O  O348  1  0.41580000  0.10750000  0.30020000  1
  O  O349  1  0.59260000  0.32780000  0.29890000  1
  O  O350  1  0.59260000  0.17220000  0.29890000  1
  O  O351  1  0.03520000  0.75000000  0.28620000  1
  O  O352  1  0.83900000  0.82170000  0.28580000  1
  O  O353  1  0.83900000  0.67830000  0.28580000  1
  O  O354  1  0.03070000  0.89150000  0.28040000  1
  O  O355  1  0.03070000  0.60850000  0.28040000  1
  O  O356  1  0.65070000  0.75000000  0.27860000  1
  O  O357  1  0.24420000  0.88520000  0.26280000  1
  O  O358  1  0.24420000  0.61480000  0.26280000  1
  O  O359  1  0.91550000  0.49290000  0.25850000  1
  O  O360  1  0.91550000  0.00710000  0.25850000  1
  O  O361  1  0.55460000  0.87220000  0.25680000  1
  O  O362  1  0.55460000  0.62780000  0.25680000  1
  O  O363  1  0.22090000  0.75000000  0.25630000  1
  O  O364  1  0.75170000  0.92510000  0.25430000  1
  O  O365  1  0.75170000  0.57490000  0.25430000  1
  O  O366  1  0.25170000  0.42510000  0.24570000  1
  O  O367  1  0.25170000  0.07490000  0.24570000  1
  O  O368  1  0.72090000  0.25000000  0.24370000  1
  O  O369  1  0.05460000  0.37220000  0.24320000  1
  O  O370  1  0.05460000  0.12780000  0.24320000  1
  O  O371  1  0.41550000  0.99290000  0.24150000  1
  O  O372  1  0.41550000  0.50710000  0.24150000  1
  O  O373  1  0.74420000  0.38520000  0.23720000  1
  O  O374  1  0.74420000  0.11480000  0.23720000  1
  O  O375  1  0.15070000  0.25000000  0.22140000  1
  O  O376  1  0.53070000  0.39150000  0.21960000  1
  O  O377  1  0.53070000  0.10850000  0.21960000  1
  O  O378  1  0.33900000  0.32170000  0.21420000  1
  O  O379  1  0.33900000  0.17830000  0.21420000  1
  O  O380  1  0.53520000  0.25000000  0.21380000  1
  O  O381  1  0.09260000  0.82780000  0.20110000  1
  O  O382  1  0.09260000  0.67220000  0.20110000  1
  O  O383  1  0.91580000  0.89250000  0.19980000  1
  O  O384  1  0.91580000  0.60750000  0.19980000  1
  O  O385  1  0.71100000  0.81530000  0.19950000  1
  O  O386  1  0.71100000  0.68470000  0.19950000  1
  O  O387  1  0.91090000  0.75000000  0.19830000  1
  O  O388  1  0.18550000  0.35850000  0.16240000  1
  O  O389  1  0.18550000  0.14150000  0.16240000  1
  O  O390  1  0.36710000  0.42480000  0.16170000  1
  O  O391  1  0.36710000  0.07520000  0.16170000  1
  O  O392  1  0.65410000  0.31790000  0.15920000  1
  O  O393  1  0.65410000  0.18210000  0.15920000  1
  O  O394  1  0.28610000  0.25000000  0.12510000  1
  O  O395  1  0.84890000  0.81740000  0.12390000  1
  O  O396  1  0.84890000  0.68260000  0.12390000  1
  O  O397  1  0.45910000  0.31520000  0.12390000  1
  O  O398  1  0.45910000  0.18480000  0.12390000  1
  O  O399  1  0.02690000  0.75000000  0.12270000  1
