# generated using pymatgen
data_Ni4H27C48(N4O)3
_symmetry_space_group_name_H-M   'P 1'
_cell_length_a   22.95390000
_cell_length_b   22.95390000
_cell_length_c   22.95390000
_cell_angle_alpha   60.00000000
_cell_angle_beta   60.00000000
_cell_angle_gamma   60.00000000
_symmetry_Int_Tables_number   1
_chemical_formula_structural   Ni4H27C48(N4O)3
_chemical_formula_sum   'Ni8 H54 C96 N24 O6'
_cell_volume   8551.73940011
_cell_formula_units_Z   2
loop_
 _symmetry_equiv_pos_site_id
 _symmetry_equiv_pos_as_xyz
  1  'x, y, z'
loop_
 _atom_site_type_symbol
 _atom_site_label
 _atom_site_symmetry_multiplicity
 _atom_site_fract_x
 _atom_site_fract_y
 _atom_site_fract_z
 _atom_site_occupancy
  Ni  Ni0  1  0.12720000  0.95760000  0.95760000  1
  Ni  Ni1  1  0.95760000  0.12720000  0.95760000  1
  Ni  Ni2  1  0.95760000  0.95760000  0.95760000  1
  Ni  Ni3  1  0.04240000  0.04240000  0.87280000  1
  Ni  Ni4  1  0.95760000  0.95760000  0.12720000  1
  Ni  Ni5  1  0.04240000  0.04240000  0.04240000  1
  Ni  Ni6  1  0.04240000  0.87280000  0.04240000  1
  Ni  Ni7  1  0.87280000  0.04240000  0.04240000  1
  H  H8  1  0.29441000  0.82905000  0.93827000  1
  H  H9  1  0.82905000  0.29441000  0.93827000  1
  H  H10  1  0.29441000  0.93827000  0.93827000  1
  H  H11  1  0.93827000  0.29441000  0.93827000  1
  H  H12  1  0.82905000  0.93827000  0.93827000  1
  H  H13  1  0.93827000  0.82905000  0.93827000  1
  H  H14  1  0.51145000  0.61341000  0.93757000  1
  H  H15  1  0.61341000  0.51145000  0.93757000  1
  H  H16  1  0.51145000  0.93757000  0.93757000  1
  H  H17  1  0.93757000  0.51145000  0.93757000  1
  H  H18  1  0.61341000  0.93757000  0.93757000  1
  H  H19  1  0.93757000  0.61341000  0.93757000  1
  H  H20  1  0.09342000  0.09342000  0.90658000  1
  H  H21  1  0.09342000  0.90658000  0.90658000  1
  H  H22  1  0.90658000  0.09342000  0.90658000  1
  H  H23  1  0.29441000  0.93827000  0.82905000  1
  H  H24  1  0.93827000  0.29441000  0.82905000  1
  H  H25  1  0.93827000  0.93827000  0.82905000  1
  H  H26  1  0.06173000  0.06173000  0.70559000  1
  H  H27  1  0.06173000  0.17095000  0.70559000  1
  H  H28  1  0.17095000  0.06173000  0.70559000  1
  H  H29  1  0.51145000  0.93757000  0.61341000  1
  H  H30  1  0.93757000  0.51145000  0.61341000  1
  H  H31  1  0.93757000  0.93757000  0.61341000  1
  H  H32  1  0.61341000  0.93757000  0.51145000  1
  H  H33  1  0.93757000  0.61341000  0.51145000  1
  H  H34  1  0.93757000  0.93757000  0.51145000  1
  H  H35  1  0.06243000  0.06243000  0.48855000  1
  H  H36  1  0.06243000  0.38659000  0.48855000  1
  H  H37  1  0.38659000  0.06243000  0.48855000  1
  H  H38  1  0.06243000  0.06243000  0.38659000  1
  H  H39  1  0.06243000  0.48855000  0.38659000  1
  H  H40  1  0.48855000  0.06243000  0.38659000  1
  H  H41  1  0.82905000  0.93827000  0.29441000  1
  H  H42  1  0.93827000  0.82905000  0.29441000  1
  H  H43  1  0.93827000  0.93827000  0.29441000  1
  H  H44  1  0.06173000  0.06173000  0.17095000  1
  H  H45  1  0.06173000  0.70559000  0.17095000  1
  H  H46  1  0.70559000  0.06173000  0.17095000  1
  H  H47  1  0.09342000  0.90658000  0.09342000  1
  H  H48  1  0.90658000  0.09342000  0.09342000  1
  H  H49  1  0.90658000  0.90658000  0.09342000  1
  H  H50  1  0.06243000  0.38659000  0.06243000  1
  H  H51  1  0.38659000  0.06243000  0.06243000  1
  H  H52  1  0.06243000  0.48855000  0.06243000  1
  H  H53  1  0.48855000  0.06243000  0.06243000  1
  H  H54  1  0.38659000  0.48855000  0.06243000  1
  H  H55  1  0.48855000  0.38659000  0.06243000  1
  H  H56  1  0.06173000  0.17095000  0.06173000  1
  H  H57  1  0.17095000  0.06173000  0.06173000  1
  H  H58  1  0.06173000  0.70559000  0.06173000  1
  H  H59  1  0.70559000  0.06173000  0.06173000  1
  H  H60  1  0.17095000  0.70559000  0.06173000  1
  H  H61  1  0.70559000  0.17095000  0.06173000  1
  C  C62  1  0.25472000  0.74528000  0.00000000  1
  C  C63  1  0.32008000  0.67992000  0.00000000  1
  C  C64  1  0.37410000  0.62590000  0.00000000  1
  C  C65  1  0.43944000  0.56056000  0.00000000  1
  C  C66  1  0.56056000  0.43944000  0.00000000  1
  C  C67  1  0.62590000  0.37410000  0.00000000  1
  C  C68  1  0.67992000  0.32008000  0.00000000  1
  C  C69  1  0.74528000  0.25472000  0.00000000  1
  C  C70  1  0.25472000  1.00000000  0.00000000  1
  C  C71  1  0.32008000  1.00000000  1.00000000  1
  C  C72  1  0.37410000  1.00000000  0.00000000  1
  C  C73  1  0.43944000  1.00000000  1.00000000  1
  C  C74  1  0.00000000  0.43944000  1.00000000  1
  C  C75  1  0.56056000  1.00000000  1.00000000  1
  C  C76  1  0.62590000  1.00000000  0.00000000  1
  C  C77  1  0.00000000  0.62590000  0.00000000  1
  C  C78  1  0.67992000  1.00000000  1.00000000  1
  C  C79  1  0.00000000  0.67992000  1.00000000  1
  C  C80  1  0.74528000  1.00000000  0.00000000  1
  C  C81  1  0.00000000  0.74528000  0.00000000  1
  C  C82  1  0.25379000  0.81399000  0.96611000  1
  C  C83  1  0.81399000  0.25379000  0.96611000  1
  C  C84  1  0.25379000  0.96611000  0.96611000  1
  C  C85  1  0.96611000  0.25379000  0.96611000  1
  C  C86  1  0.81399000  0.96611000  0.96611000  1
  C  C87  1  0.96611000  0.81399000  0.96611000  1
  C  C88  1  0.50680000  0.56736000  0.96292000  1
  C  C89  1  0.56736000  0.50680000  0.96292000  1
  C  C90  1  0.50680000  0.96292000  0.96292000  1
  C  C91  1  0.96292000  0.50680000  0.96292000  1
  C  C92  1  0.56736000  0.96292000  0.96292000  1
  C  C93  1  0.96292000  0.56736000  0.96292000  1
  C  C94  1  0.25379000  0.96611000  0.81399000  1
  C  C95  1  0.96611000  0.25379000  0.81399000  1
  C  C96  1  0.96611000  0.96611000  0.81399000  1
  C  C97  1  0.03389000  0.03389000  0.74621000  1
  C  C98  1  0.03389000  0.18601000  0.74621000  1
  C  C99  1  0.18601000  0.03389000  0.74621000  1
  C  C100  1  0.25472000  1.00000000  0.74528000  1
  C  C101  1  0.00000000  0.25472000  0.74528000  1
  C  C102  1  0.00000000  0.00000000  0.74528000  1
  C  C103  1  0.32008000  1.00000000  0.67992000  1
  C  C104  1  0.00000000  0.32008000  0.67992000  1
  C  C105  1  1.00000000  1.00000000  0.67992000  1
  C  C106  1  0.37410000  1.00000000  0.62590000  1
  C  C107  1  0.00000000  0.37410000  0.62590000  1
  C  C108  1  0.00000000  0.00000000  0.62590000  1
  C  C109  1  0.50680000  0.96292000  0.56736000  1
  C  C110  1  0.96292000  0.50680000  0.56736000  1
  C  C111  1  0.96292000  0.96292000  0.56736000  1
  C  C112  1  0.43944000  1.00000000  0.56056000  1
  C  C113  1  1.00000000  0.43944000  0.56056000  1
  C  C114  1  1.00000000  1.00000000  0.56056000  1
  C  C115  1  0.56736000  0.96292000  0.50680000  1
  C  C116  1  0.96292000  0.56736000  0.50680000  1
  C  C117  1  0.96292000  0.96292000  0.50680000  1
  C  C118  1  0.03708000  0.03708000  0.49320000  1
  C  C119  1  0.03708000  0.43264000  0.49320000  1
  C  C120  1  0.43264000  0.03708000  0.49320000  1
  C  C121  1  0.56056000  1.00000000  0.43944000  1
  C  C122  1  1.00000000  0.56056000  0.43944000  1
  C  C123  1  0.00000000  1.00000000  0.43944000  1
  C  C124  1  0.03708000  0.03708000  0.43264000  1
  C  C125  1  0.03708000  0.49320000  0.43264000  1
  C  C126  1  0.49320000  0.03708000  0.43264000  1
  C  C127  1  0.62590000  1.00000000  0.37410000  1
  C  C128  1  0.00000000  0.62590000  0.37410000  1
  C  C129  1  1.00000000  1.00000000  0.37410000  1
  C  C130  1  0.67992000  1.00000000  0.32008000  1
  C  C131  1  1.00000000  0.67992000  0.32008000  1
  C  C132  1  1.00000000  1.00000000  0.32008000  1
  C  C133  1  0.74528000  1.00000000  0.25472000  1
  C  C134  1  0.00000000  0.74528000  0.25472000  1
  C  C135  1  0.00000000  0.00000000  0.25472000  1
  C  C136  1  0.81399000  0.96611000  0.25379000  1
  C  C137  1  0.96611000  0.81399000  0.25379000  1
  C  C138  1  0.96611000  0.96611000  0.25379000  1
  C  C139  1  0.03389000  0.03389000  0.18601000  1
  C  C140  1  0.03389000  0.74621000  0.18601000  1
  C  C141  1  0.74621000  0.03389000  0.18601000  1
  C  C142  1  0.03708000  0.43264000  0.03708000  1
  C  C143  1  0.43264000  0.03708000  0.03708000  1
  C  C144  1  0.03708000  0.49320000  0.03708000  1
  C  C145  1  0.49320000  0.03708000  0.03708000  1
  C  C146  1  0.43264000  0.49320000  0.03708000  1
  C  C147  1  0.49320000  0.43264000  0.03708000  1
  C  C148  1  0.03389000  0.18601000  0.03389000  1
  C  C149  1  0.18601000  0.03389000  0.03389000  1
  C  C150  1  0.03389000  0.74621000  0.03389000  1
  C  C151  1  0.74621000  0.03389000  0.03389000  1
  C  C152  1  0.18601000  0.74621000  0.03389000  1
  C  C153  1  0.74621000  0.18601000  0.03389000  1
  C  C154  1  0.00000000  0.25472000  0.00000000  1
  C  C155  1  0.00000000  0.32008000  1.00000000  1
  C  C156  1  0.00000000  0.37410000  0.00000000  1
  C  C157  1  1.00000000  0.56056000  1.00000000  1
  N  N158  1  0.18451000  0.85739000  0.97905000  1
  N  N159  1  0.85739000  0.18451000  0.97905000  1
  N  N160  1  0.18451000  0.97905000  0.97905000  1
  N  N161  1  0.97905000  0.18451000  0.97905000  1
  N  N162  1  0.85739000  0.97905000  0.97905000  1
  N  N163  1  0.97905000  0.85739000  0.97905000  1
  N  N164  1  0.18451000  0.97905000  0.85739000  1
  N  N165  1  0.97905000  0.18451000  0.85739000  1
  N  N166  1  0.97905000  0.97905000  0.85739000  1
  N  N167  1  0.02095000  0.02095000  0.81549000  1
  N  N168  1  0.02095000  0.14261000  0.81549000  1
  N  N169  1  0.14261000  0.02095000  0.81549000  1
  N  N170  1  0.85739000  0.97905000  0.18451000  1
  N  N171  1  0.97905000  0.85739000  0.18451000  1
  N  N172  1  0.97905000  0.97905000  0.18451000  1
  N  N173  1  0.02095000  0.02095000  0.14261000  1
  N  N174  1  0.02095000  0.81549000  0.14261000  1
  N  N175  1  0.81549000  0.02095000  0.14261000  1
  N  N176  1  0.02095000  0.14261000  0.02095000  1
  N  N177  1  0.14261000  0.02095000  0.02095000  1
  N  N178  1  0.02095000  0.81549000  0.02095000  1
  N  N179  1  0.81549000  0.02095000  0.02095000  1
  N  N180  1  0.14261000  0.81549000  0.02095000  1
  N  N181  1  0.81549000  0.14261000  0.02095000  1
  O  O182  1  0.06416000  0.06416000  0.93584000  1
  O  O183  1  0.06416000  0.93584000  0.93584000  1
  O  O184  1  0.93584000  0.06416000  0.93584000  1
  O  O185  1  0.06416000  0.93584000  0.06416000  1
  O  O186  1  0.93584000  0.06416000  0.06416000  1
  O  O187  1  0.93584000  0.93584000  0.06416000  1
