# generated using pymatgen
data_SrCo(CN)6
_symmetry_space_group_name_H-M   'P 1'
_cell_length_a   7.71580000
_cell_length_b   11.26600000
_cell_length_c   16.21800000
_cell_angle_alpha   90.00000000
_cell_angle_beta   90.00000000
_cell_angle_gamma   90.72000000
_symmetry_Int_Tables_number   1
_chemical_formula_structural   SrCo(CN)6
_chemical_formula_sum   'Sr4 Co4 C24 N24'
_cell_volume   1409.65784756
_cell_formula_units_Z   4
loop_
 _symmetry_equiv_pos_site_id
 _symmetry_equiv_pos_as_xyz
  1  'x, y, z'
loop_
 _atom_site_type_symbol
 _atom_site_label
 _atom_site_symmetry_multiplicity
 _atom_site_fract_x
 _atom_site_fract_y
 _atom_site_fract_z
 _atom_site_occupancy
  Sr  Sr0  1  0.75228000  0.80216000  0.59915000  1
  Sr  Sr1  1  0.74772000  0.69784000  0.09915000  1
  Sr  Sr2  1  0.25228000  0.30216000  0.90085000  1
  Sr  Sr3  1  0.24772000  0.19784000  0.40085000  1
  Co  Co4  1  0.75200000  0.29674000  0.64366000  1
  Co  Co5  1  0.74800000  0.20326000  0.14366000  1
  Co  Co6  1  0.25200000  0.79674000  0.85634000  1
  Co  Co7  1  0.24800000  0.70326000  0.35634000  1
  C  C8  1  0.94810000  0.29220000  0.57290000  1
  C  C9  1  0.94110000  0.20270000  0.21610000  1
  C  C10  1  0.90300000  0.30070000  0.73630000  1
  C  C11  1  0.89830000  0.20850000  0.05080000  1
  C  C12  1  0.75340000  0.46640000  0.63740000  1
  C  C13  1  0.75200000  0.37030000  0.14980000  1
  C  C14  1  0.74800000  0.12970000  0.64980000  1
  C  C15  1  0.74660000  0.03360000  0.13740000  1
  C  C16  1  0.60170000  0.29150000  0.55080000  1
  C  C17  1  0.59700000  0.19930000  0.23630000  1
  C  C18  1  0.55890000  0.29730000  0.71610000  1
  C  C19  1  0.55190000  0.20780000  0.07290000  1
  C  C20  1  0.44810000  0.79220000  0.92710000  1
  C  C21  1  0.44110000  0.70270000  0.28390000  1
  C  C22  1  0.40300000  0.80070000  0.76370000  1
  C  C23  1  0.39830000  0.70850000  0.44920000  1
  C  C24  1  0.25340000  0.96640000  0.86260000  1
  C  C25  1  0.25200000  0.87030000  0.35020000  1
  C  C26  1  0.24800000  0.62970000  0.85020000  1
  C  C27  1  0.24660000  0.53360000  0.36260000  1
  C  C28  1  0.10170000  0.79150000  0.94920000  1
  C  C29  1  0.09700000  0.69930000  0.26370000  1
  C  C30  1  0.05890000  0.79730000  0.78390000  1
  C  C31  1  0.05190000  0.70780000  0.42710000  1
  N  N32  1  0.99510000  0.29970000  0.79160000  1
  N  N33  1  0.98980000  0.21130000  0.99520000  1
  N  N34  1  0.94320000  0.79420000  0.73990000  1
  N  N35  1  0.93340000  0.71020000  0.46990000  1
  N  N36  1  0.75320000  0.47250000  0.15460000  1
  N  N37  1  0.75270000  0.56590000  0.63250000  1
  N  N38  1  0.74730000  0.93410000  0.13250000  1
  N  N39  1  0.74680000  0.02750000  0.65460000  1
  N  N40  1  0.56660000  0.78980000  0.96990000  1
  N  N41  1  0.55680000  0.70580000  0.23990000  1
  N  N42  1  0.51020000  0.28870000  0.49520000  1
  N  N43  1  0.50490000  0.20030000  0.29160000  1
  N  N44  1  0.49510000  0.79970000  0.70840000  1
  N  N45  1  0.48980000  0.71130000  0.50480000  1
  N  N46  1  0.44320000  0.29420000  0.76010000  1
  N  N47  1  0.43340000  0.21020000  0.03010000  1
  N  N48  1  0.25320000  0.97250000  0.34540000  1
  N  N49  1  0.25270000  0.06590000  0.86750000  1
  N  N50  1  0.24730000  0.43410000  0.36750000  1
  N  N51  1  0.24680000  0.52750000  0.84540000  1
  N  N52  1  0.06660000  0.28980000  0.53010000  1
  N  N53  1  0.05680000  0.20580000  0.26010000  1
  N  N54  1  0.01020000  0.78870000  0.00480000  1
  N  N55  1  0.00490000  0.70030000  0.20840000  1
