# generated using pymatgen
data_NiH26C28N7O4
_symmetry_space_group_name_H-M   'P 1'
_cell_length_a   12.42120000
_cell_length_b   13.49950000
_cell_length_c   38.10020360
_cell_angle_alpha   91.20310987
_cell_angle_beta   90.00000000
_cell_angle_gamma   90.00000000
_symmetry_Int_Tables_number   1
_chemical_formula_structural   NiH26C28N7O4
_chemical_formula_sum   'Ni8 H208 C224 N56 O32'
_cell_volume   6387.23332983
_cell_formula_units_Z   8
loop_
 _symmetry_equiv_pos_site_id
 _symmetry_equiv_pos_as_xyz
  1  'x, y, z'
loop_
 _atom_site_type_symbol
 _atom_site_label
 _atom_site_symmetry_multiplicity
 _atom_site_fract_x
 _atom_site_fract_y
 _atom_site_fract_z
 _atom_site_occupancy
  Ni  Ni0  1  0.59473000  0.20639000  0.07757000  1
  Ni  Ni1  1  0.90527000  0.70639000  0.57757000  1
  Ni  Ni2  1  0.61208000  0.62849000  0.30752000  1
  Ni  Ni3  1  0.88792000  0.12849000  0.80752000  1
  Ni  Ni4  1  0.11208000  0.87151000  0.19248000  1
  Ni  Ni5  1  0.38792000  0.37151000  0.69248000  1
  Ni  Ni6  1  0.09473000  0.29361000  0.42243000  1
  Ni  Ni7  1  0.40527000  0.79361000  0.92243000  1
  H  H8  1  0.56380000  0.88470000  0.86820000  1
  H  H9  1  0.93620000  0.38470000  0.36820000  1
  H  H10  1  0.67040000  0.62810000  0.60350000  1
  H  H11  1  0.82960000  0.12810000  0.10350000  1
  H  H12  1  0.24460000  0.85900000  0.82980000  1
  H  H13  1  0.25540000  0.35900000  0.32980000  1
  H  H14  1  0.70150000  0.85550000  0.81920000  1
  H  H15  1  0.79850000  0.35550000  0.31920000  1
  H  H16  1  0.50710000  0.69990000  0.63850000  1
  H  H17  1  0.99290000  0.19990000  0.13850000  1
  H  H18  1  0.68020000  0.74310000  0.67530000  1
  H  H19  1  0.81980000  0.24310000  0.17530000  1
  H  H20  1  0.63350000  0.42930000  0.35830000  1
  H  H21  1  0.86650000  0.92930000  0.85830000  1
  H  H22  1  0.52470000  0.82650000  0.74620000  1
  H  H23  1  0.97530000  0.32650000  0.24620000  1
  H  H24  1  0.55780000  0.79250000  0.70720000  1
  H  H25  1  0.94220000  0.29250000  0.20720000  1
  H  H26  1  0.61680000  0.88360000  0.78930000  1
  H  H27  1  0.88320000  0.38360000  0.28930000  1
  H  H28  1  0.08530000  0.53580000  0.42810000  1
  H  H29  1  0.41470000  0.03580000  0.92810000  1
  H  H30  1  0.10710000  0.42470000  0.30530000  1
  H  H31  1  0.39290000  0.92470000  0.80530000  1
  H  H32  1  0.51580000  0.32470000  0.20190000  1
  H  H33  1  0.98420000  0.82470000  0.70190000  1
  H  H34  1  0.21670000  0.78870000  0.65430000  1
  H  H35  1  0.28330000  0.28870000  0.15430000  1
  H  H36  1  0.15660000  0.30270000  0.16020000  1
  H  H37  1  0.34340000  0.80270000  0.66020000  1
  H  H38  1  0.11190000  0.04660000  0.89480000  1
  H  H39  1  0.38810000  0.54660000  0.39480000  1
  H  H40  1  0.57310000  0.10660000  0.95320000  1
  H  H41  1  0.92690000  0.60660000  0.45320000  1
  H  H42  1  0.61940000  0.88270000  0.72620000  1
  H  H43  1  0.88060000  0.38270000  0.22620000  1
  H  H44  1  0.63490000  0.33830000  0.15040000  1
  H  H45  1  0.86510000  0.83830000  0.65040000  1
  H  H46  1  0.20460000  0.50160000  0.30250000  1
  H  H47  1  0.29540000  0.00160000  0.80250000  1
  H  H48  1  0.15420000  0.76340000  0.56360000  1
  H  H49  1  0.34580000  0.26340000  0.06360000  1
  H  H50  1  0.09070000  0.99540000  0.78980000  1
  H  H51  1  0.40930000  0.49540000  0.28980000  1
  H  H52  1  0.61730000  0.11160000  0.90110000  1
  H  H53  1  0.88270000  0.61160000  0.40110000  1
  H  H54  1  0.10660000  0.50600000  0.27530000  1
  H  H55  1  0.39340000  0.00600000  0.77530000  1
  H  H56  1  0.61190000  0.47570000  0.23720000  1
  H  H57  1  0.88810000  0.97570000  0.73720000  1
  H  H58  1  0.23360000  0.39760000  0.15880000  1
  H  H59  1  0.26640000  0.89760000  0.65880000  1
  H  H60  1  0.05170000  0.47200000  0.22720000  1
  H  H61  1  0.44830000  0.97200000  0.72720000  1
  H  H62  1  0.24300000  0.69960000  0.44550000  1
  H  H63  1  0.25700000  0.19960000  0.94550000  1
  H  H64  1  0.09840000  0.44820000  0.18880000  1
  H  H65  1  0.40160000  0.94820000  0.68880000  1
  H  H66  1  0.14730000  0.60670000  0.34520000  1
  H  H67  1  0.35270000  0.10670000  0.84520000  1
  H  H68  1  0.10940000  0.76040000  0.48100000  1
  H  H69  1  0.39060000  0.26040000  0.98100000  1
  H  H70  1  0.67230000  0.78250000  0.47810000  1
  H  H71  1  0.82770000  0.28250000  0.97810000  1
  H  H72  1  0.19950000  0.21510000  0.90860000  1
  H  H73  1  0.30050000  0.71510000  0.40860000  1
  H  H74  1  0.60400000  0.74580000  0.43090000  1
  H  H75  1  0.89600000  0.24580000  0.93090000  1
  H  H76  1  0.25000000  0.17480000  0.85370000  1
  H  H77  1  0.25000000  0.67480000  0.35370000  1
  H  H78  1  0.19460000  0.07150000  0.74290000  1
  H  H79  1  0.30540000  0.57150000  0.24290000  1
  H  H80  1  0.56300000  0.53270000  0.17790000  1
  H  H81  1  0.93700000  0.03270000  0.67790000  1
  H  H82  1  0.19570000  0.83900000  0.46750000  1
  H  H83  1  0.30430000  0.33900000  0.96750000  1
  H  H84  1  0.22970000  0.92950000  0.55440000  1
  H  H85  1  0.27030000  0.42950000  0.05440000  1
  H  H86  1  0.16960000  0.70330000  0.32270000  1
  H  H87  1  0.33040000  0.20330000  0.82270000  1
  H  H88  1  0.50520000  0.19870000  0.81620000  1
  H  H89  1  0.99480000  0.69870000  0.31620000  1
  H  H90  1  0.58660000  0.45300000  0.06900000  1
  H  H91  1  0.91340000  0.95300000  0.56900000  1
  H  H92  1  0.07800000  0.87520000  0.47910000  1
  H  H93  1  0.42200000  0.37520000  0.97910000  1
  H  H94  1  0.14650000  0.03530000  0.61810000  1
  H  H95  1  0.35350000  0.53530000  0.11810000  1
  H  H96  1  0.56350000  0.39650000  0.96790000  1
  H  H97  1  0.93650000  0.89650000  0.46790000  1
  H  H98  1  0.13780000  0.09350000  0.65500000  1
  H  H99  1  0.36220000  0.59350000  0.15500000  1
  H  H100  1  0.60240000  0.27390000  0.82310000  1
  H  H101  1  0.89760000  0.77390000  0.32310000  1
  H  H102  1  0.65840000  0.39440000  0.93950000  1
  H  H103  1  0.84160000  0.89440000  0.43950000  1
  H  H104  1  0.05340000  0.63940000  0.18380000  1
  H  H105  1  0.44660000  0.13940000  0.68380000  1
  H  H106  1  0.69850000  0.24760000  0.76490000  1
  H  H107  1  0.80150000  0.74760000  0.26490000  1
  H  H108  1  0.70730000  0.36110000  0.87620000  1
  H  H109  1  0.79270000  0.86110000  0.37620000  1
  H  H110  1  0.00720000  0.74850000  0.25290000  1
  H  H111  1  0.49280000  0.24850000  0.75290000  1
  H  H112  1  0.50720000  0.75150000  0.24710000  1
  H  H113  1  0.99280000  0.25150000  0.74710000  1
  H  H114  1  0.20730000  0.13890000  0.62380000  1
  H  H115  1  0.29270000  0.63890000  0.12380000  1
  H  H116  1  0.19850000  0.25240000  0.73510000  1
  H  H117  1  0.30150000  0.75240000  0.23510000  1
  H  H118  1  0.55340000  0.86060000  0.31620000  1
  H  H119  1  0.94660000  0.36060000  0.81620000  1
  H  H120  1  0.15840000  0.10560000  0.56050000  1
  H  H121  1  0.34160000  0.60560000  0.06050000  1
  H  H122  1  0.10240000  0.22610000  0.67690000  1
  H  H123  1  0.39760000  0.72610000  0.17690000  1
  H  H124  1  0.63780000  0.40650000  0.84500000  1
  H  H125  1  0.86220000  0.90650000  0.34500000  1
  H  H126  1  0.06350000  0.10350000  0.53210000  1
  H  H127  1  0.43650000  0.60350000  0.03210000  1
  H  H128  1  0.64650000  0.46470000  0.88190000  1
  H  H129  1  0.85350000  0.96470000  0.38190000  1
  H  H130  1  0.57800000  0.62480000  0.02090000  1
  H  H131  1  0.92200000  0.12480000  0.52090000  1
  H  H132  1  0.08660000  0.04700000  0.43100000  1
  H  H133  1  0.41340000  0.54700000  0.93100000  1
  H  H134  1  0.00520000  0.30130000  0.68380000  1
  H  H135  1  0.49480000  0.80130000  0.18380000  1
  H  H136  1  0.66960000  0.79670000  0.17730000  1
  H  H137  1  0.83040000  0.29670000  0.67730000  1
  H  H138  1  0.72970000  0.57050000  0.94560000  1
  H  H139  1  0.77030000  0.07050000  0.44560000  1
  H  H140  1  0.69570000  0.66100000  0.03250000  1
  H  H141  1  0.80430000  0.16100000  0.53250000  1
  H  H142  1  0.06300000  0.96730000  0.32210000  1
  H  H143  1  0.43700000  0.46730000  0.82210000  1
  H  H144  1  0.69460000  0.42850000  0.75710000  1
  H  H145  1  0.80540000  0.92850000  0.25710000  1
  H  H146  1  0.75000000  0.32520000  0.64630000  1
  H  H147  1  0.75000000  0.82520000  0.14630000  1
  H  H148  1  0.10400000  0.75420000  0.06910000  1
  H  H149  1  0.39600000  0.25420000  0.56910000  1
  H  H150  1  0.69950000  0.28490000  0.59140000  1
  H  H151  1  0.80050000  0.78490000  0.09140000  1
  H  H152  1  0.17230000  0.71750000  0.02190000  1
  H  H153  1  0.32770000  0.21750000  0.52190000  1
  H  H154  1  0.60940000  0.73960000  0.01900000  1
  H  H155  1  0.89060000  0.23960000  0.51900000  1
  H  H156  1  0.64730000  0.89330000  0.15480000  1
  H  H157  1  0.85270000  0.39330000  0.65480000  1
  H  H158  1  0.59840000  0.05180000  0.31120000  1
  H  H159  1  0.90160000  0.55180000  0.81120000  1
  H  H160  1  0.74300000  0.80040000  0.05450000  1
  H  H161  1  0.75700000  0.30040000  0.55450000  1
  H  H162  1  0.55170000  0.02800000  0.27280000  1
  H  H163  1  0.94830000  0.52800000  0.77280000  1
  H  H164  1  0.73360000  0.10240000  0.34120000  1
  H  H165  1  0.76640000  0.60240000  0.84120000  1
  H  H166  1  0.11190000  0.02430000  0.26280000  1
  H  H167  1  0.38810000  0.52430000  0.76280000  1
  H  H168  1  0.60660000  0.99400000  0.22470000  1
  H  H169  1  0.89340000  0.49400000  0.72470000  1
  H  H170  1  0.11730000  0.38840000  0.59890000  1
  H  H171  1  0.38270000  0.88840000  0.09890000  1
  H  H172  1  0.59070000  0.50460000  0.71020000  1
  H  H173  1  0.90930000  0.00460000  0.21020000  1
  H  H174  1  0.65420000  0.73660000  0.93640000  1
  H  H175  1  0.84580000  0.23660000  0.43640000  1
  H  H176  1  0.70460000  0.99840000  0.19750000  1
  H  H177  1  0.79540000  0.49840000  0.69750000  1
  H  H178  1  0.13490000  0.16170000  0.34960000  1
  H  H179  1  0.36510000  0.66170000  0.84960000  1
  H  H180  1  0.11940000  0.61730000  0.77380000  1
  H  H181  1  0.38060000  0.11730000  0.27380000  1
  H  H182  1  0.07310000  0.39340000  0.54680000  1
  H  H183  1  0.42690000  0.89340000  0.04680000  1
  H  H184  1  0.61190000  0.45340000  0.60520000  1
  H  H185  1  0.88810000  0.95340000  0.10520000  1
  H  H186  1  0.65660000  0.19730000  0.33980000  1
  H  H187  1  0.84340000  0.69730000  0.83980000  1
  H  H188  1  0.71670000  0.71130000  0.84570000  1
  H  H189  1  0.78330000  0.21130000  0.34570000  1
  H  H190  1  0.01580000  0.17530000  0.29810000  1
  H  H191  1  0.48420000  0.67530000  0.79810000  1
  H  H192  1  0.60710000  0.07530000  0.19470000  1
  H  H193  1  0.89290000  0.57530000  0.69470000  1
  H  H194  1  0.58530000  0.96420000  0.07190000  1
  H  H195  1  0.91470000  0.46420000  0.57190000  1
  H  H196  1  0.11680000  0.61640000  0.71070000  1
  H  H197  1  0.38320000  0.11640000  0.21070000  1
  H  H198  1  0.05780000  0.70750000  0.79280000  1
  H  H199  1  0.44220000  0.20750000  0.29280000  1
  H  H200  1  0.02470000  0.67350000  0.75380000  1
  H  H201  1  0.47530000  0.17350000  0.25380000  1
  H  H202  1  0.13350000  0.07070000  0.14170000  1
  H  H203  1  0.36650000  0.57070000  0.64170000  1
  H  H204  1  0.18020000  0.75690000  0.82470000  1
  H  H205  1  0.31980000  0.25690000  0.32470000  1
  H  H206  1  0.00710000  0.80010000  0.86150000  1
  H  H207  1  0.49290000  0.30010000  0.36150000  1
  H  H208  1  0.20150000  0.64450000  0.68080000  1
  H  H209  1  0.29850000  0.14450000  0.18080000  1
  H  H210  1  0.74460000  0.64100000  0.67020000  1
  H  H211  1  0.75540000  0.14100000  0.17020000  1
  H  H212  1  0.17040000  0.87190000  0.89650000  1
  H  H213  1  0.32960000  0.37190000  0.39650000  1
  H  H214  1  0.06380000  0.61530000  0.63180000  1
  H  H215  1  0.43620000  0.11530000  0.13180000  1
  C  C216  1  0.66550000  0.74715000  0.74435000  1
  C  C217  1  0.83450000  0.24715000  0.24435000  1
  C  C218  1  0.00700000  0.85521000  0.84641000  1
  C  C219  1  0.49300000  0.35521000  0.34641000  1
  C  C220  1  0.18650000  0.82553000  0.81623000  1
  C  C221  1  0.31350000  0.32553000  0.31623000  1
  C  C222  1  0.21340000  0.92752000  0.90282000  1
  C  C223  1  0.28660000  0.42752000  0.40282000  1
  C  C224  1  0.64360000  0.82886000  0.80386000  1
  C  C225  1  0.85640000  0.32886000  0.30386000  1
  C  C226  1  0.02870000  0.67036000  0.64276000  1
  C  C227  1  0.47130000  0.17036000  0.14276000  1
  C  C228  1  0.18950000  0.75240000  0.72000000  1
  C  C229  1  0.31050000  0.25240000  0.22000000  1
  C  C230  1  0.21580000  0.82286000  0.77806000  1
  C  C231  1  0.28420000  0.32286000  0.27806000  1
  C  C232  1  0.56990000  0.42644000  0.34444000  1
  C  C233  1  0.93010000  0.92644000  0.84444000  1
  C  C234  1  0.58480000  0.81841000  0.72971000  1
  C  C235  1  0.91520000  0.31841000  0.22971000  1
  C  C236  1  0.02270000  0.61034000  0.51934000  1
  C  C237  1  0.47730000  0.11034000  0.01934000  1
  C  C238  1  0.15460000  0.51620000  0.42000000  1
  C  C239  1  0.34540000  0.01620000  0.92000000  1
  C  C240  1  0.51400000  0.28417000  0.18117000  1
  C  C241  1  0.98600000  0.78417000  0.68117000  1
  C  C242  1  0.24450000  0.32443000  0.20573000  1
  C  C243  1  0.25550000  0.82443000  0.70573000  1
  C  C244  1  0.18060000  0.02329000  0.90189000  1
  C  C245  1  0.31940000  0.52329000  0.40189000  1
  C  C246  1  0.21100000  0.39044000  0.26454000  1
  C  C247  1  0.28900000  0.89044000  0.76454000  1
  C  C248  1  0.57900000  0.29104000  0.15304000  1
  C  C249  1  0.92100000  0.79104000  0.65304000  1
  C  C250  1  0.58040000  0.15266000  0.00426000  1
  C  C251  1  0.91960000  0.65266000  0.50426000  1
  C  C252  1  0.05090000  0.96233000  0.80733000  1
  C  C253  1  0.44910000  0.46233000  0.30733000  1
  C  C254  1  0.22810000  0.32874000  0.16624000  1
  C  C255  1  0.27190000  0.82874000  0.66624000  1
  C  C256  1  0.19420000  0.39301000  0.22821000  1
  C  C257  1  0.30580000  0.89301000  0.72821000  1
  C  C258  1  0.15210000  0.46197000  0.28907000  1
  C  C259  1  0.34790000  0.96197000  0.78907000  1
  C  C260  1  0.61420000  0.14413000  0.96973000  1
  C  C261  1  0.88580000  0.64413000  0.46973000  1
  C  C262  1  0.70880000  0.19081000  0.95931000  1
  C  C263  1  0.79120000  0.69081000  0.45931000  1
  C  C264  1  0.72650000  0.25237000  0.01837000  1
  C  C265  1  0.77350000  0.75237000  0.51837000  1
  C  C266  1  0.68870000  0.13277000  0.89637000  1
  C  C267  1  0.81130000  0.63277000  0.39637000  1
  C  C268  1  0.67550000  0.07015000  0.83215000  1
  C  C269  1  0.82450000  0.57015000  0.33215000  1
  C  C270  1  0.73320000  0.11837000  0.86337000  1
  C  C271  1  0.76680000  0.61837000  0.36337000  1
  C  C272  1  0.11840000  0.46917000  0.21297000  1
  C  C273  1  0.38160000  0.96917000  0.71297000  1
  C  C274  1  0.74950000  0.67894000  0.42274000  1
  C  C275  1  0.75050000  0.17894000  0.92274000  1
  C  C276  1  0.11410000  0.82326000  0.56346000  1
  C  C277  1  0.38590000  0.32326000  0.06346000  1
  C  C278  1  0.72220000  0.81035000  0.54875000  1
  C  C279  1  0.77780000  0.31035000  0.04875000  1
  C  C280  1  0.73560000  0.74759000  0.48439000  1
  C  C281  1  0.76440000  0.24759000  0.98439000  1
  C  C282  1  0.23580000  0.68745000  0.41995000  1
  C  C283  1  0.26420000  0.18745000  0.91995000  1
  C  C284  1  0.64720000  0.71231000  0.41381000  1
  C  C285  1  0.85280000  0.21231000  0.91381000  1
  C  C286  1  0.58440000  0.53923000  0.23183000  1
  C  C287  1  0.91560000  0.03923000  0.73183000  1
  C  C288  1  0.60870000  0.69678000  0.38028000  1
  C  C289  1  0.89130000  0.19678000  0.88028000  1
  C  C290  1  0.17460000  0.67488000  0.34608000  1
  C  C291  1  0.32540000  0.17488000  0.84608000  1
  C  C292  1  0.13820000  0.74284000  0.40714000  1
  C  C293  1  0.36180000  0.24284000  0.90714000  1
  C  C294  1  0.11920000  0.82130000  0.46780000  1
  C  C295  1  0.38080000  0.32130000  0.96780000  1
  C  C296  1  0.15620000  0.91388000  0.55848000  1
  C  C297  1  0.34380000  0.41388000  0.05848000  1
  C  C298  1  0.51660000  0.42549000  0.06639000  1
  C  C299  1  0.98340000  0.92549000  0.56639000  1
  C  C300  1  0.10810000  0.73647000  0.37177000  1
  C  C301  1  0.39190000  0.23647000  0.87177000  1
  C  C302  1  0.50140000  0.73280000  0.36600000  1
  C  C303  1  0.99860000  0.23280000  0.86600000  1
  C  C304  1  0.55780000  0.57002000  0.19922000  1
  C  C305  1  0.94220000  0.07002000  0.69922000  1
  C  C306  1  0.07970000  0.80503000  0.43053000  1
  C  C307  1  0.42030000  0.30503000  0.93053000  1
  C  C308  1  0.24640000  0.10730000  0.72990000  1
  C  C309  1  0.25360000  0.60730000  0.22990000  1
  C  C310  1  0.01630000  0.78576000  0.36026000  1
  C  C311  1  0.48370000  0.28576000  0.86026000  1
  C  C312  1  0.51160000  0.35366000  0.91846000  1
  C  C313  1  0.98840000  0.85366000  0.41846000  1
  C  C314  1  0.52300000  0.26767000  0.82327000  1
  C  C315  1  0.97700000  0.76767000  0.32327000  1
  C  C316  1  0.11690000  0.64516000  0.19756000  1
  C  C317  1  0.38310000  0.14516000  0.69756000  1
  C  C318  1  0.52770000  0.68883000  0.23733000  1
  C  C319  1  0.97230000  0.18883000  0.73733000  1
  C  C320  1  0.54450000  0.34532000  0.88332000  1
  C  C321  1  0.95550000  0.84532000  0.38332000  1
  C  C322  1  0.58230000  0.41341000  0.94351000  1
  C  C323  1  0.91770000  0.91341000  0.44351000  1
  C  C324  1  0.14260000  0.10092000  0.62952000  1
  C  C325  1  0.35740000  0.60092000  0.12952000  1
  C  C326  1  0.24850000  0.20630000  0.72530000  1
  C  C327  1  0.25150000  0.70630000  0.22530000  1
  C  C328  1  0.74850000  0.29370000  0.77470000  1
  C  C329  1  0.75150000  0.79370000  0.27470000  1
  C  C330  1  0.64260000  0.39908000  0.87048000  1
  C  C331  1  0.85740000  0.89908000  0.37048000  1
  C  C332  1  0.08230000  0.08659000  0.55649000  1
  C  C333  1  0.41770000  0.58659000  0.05649000  1
  C  C334  1  0.04450000  0.15468000  0.61668000  1
  C  C335  1  0.45550000  0.65468000  0.11668000  1
  C  C336  1  0.02770000  0.81117000  0.26267000  1
  C  C337  1  0.47230000  0.31117000  0.76267000  1
  C  C338  1  0.61690000  0.85484000  0.30244000  1
  C  C339  1  0.88310000  0.35484000  0.80244000  1
  C  C340  1  0.02300000  0.23233000  0.67673000  1
  C  C341  1  0.47700000  0.73233000  0.17673000  1
  C  C342  1  0.01160000  0.14634000  0.58154000  1
  C  C343  1  0.48840000  0.64634000  0.08154000  1
  C  C344  1  0.51630000  0.71424000  0.13974000  1
  C  C345  1  0.98370000  0.21424000  0.63974000  1
  C  C346  1  0.74640000  0.39270000  0.77010000  1
  C  C347  1  0.75360000  0.89270000  0.27010000  1
  C  C348  1  0.57970000  0.69497000  0.06947000  1
  C  C349  1  0.92030000  0.19497000  0.56947000  1
  C  C350  1  0.05780000  0.92998000  0.30078000  1
  C  C351  1  0.44220000  0.42998000  0.80078000  1
  C  C352  1  0.00140000  0.76720000  0.13400000  1
  C  C353  1  0.49860000  0.26720000  0.63400000  1
  C  C354  1  0.60810000  0.76353000  0.12823000  1
  C  C355  1  0.89190000  0.26353000  0.62823000  1
  C  C356  1  0.01660000  0.07451000  0.43361000  1
  C  C357  1  0.48340000  0.57451000  0.93361000  1
  C  C358  1  0.65620000  0.58612000  0.94152000  1
  C  C359  1  0.84380000  0.08612000  0.44152000  1
  C  C360  1  0.61920000  0.67870000  0.03220000  1
  C  C361  1  0.88080000  0.17870000  0.53220000  1
  C  C362  1  0.63820000  0.75716000  0.09286000  1
  C  C363  1  0.86180000  0.25716000  0.59286000  1
  C  C364  1  0.67460000  0.82512000  0.15392000  1
  C  C365  1  0.82540000  0.32512000  0.65392000  1
  C  C366  1  0.10870000  0.80322000  0.11972000  1
  C  C367  1  0.39130000  0.30322000  0.61972000  1
  C  C368  1  0.08440000  0.96077000  0.26817000  1
  C  C369  1  0.41560000  0.46077000  0.76817000  1
  C  C370  1  0.14720000  0.78769000  0.08619000  1
  C  C371  1  0.35280000  0.28769000  0.58619000  1
  C  C372  1  0.73580000  0.81255000  0.08005000  1
  C  C373  1  0.76420000  0.31255000  0.58005000  1
  C  C374  1  0.23560000  0.75241000  0.01561000  1
  C  C375  1  0.26440000  0.25241000  0.51561000  1
  C  C376  1  0.22220000  0.68965000  0.95125000  1
  C  C377  1  0.27780000  0.18965000  0.45125000  1
  C  C378  1  0.61410000  0.67674000  0.93654000  1
  C  C379  1  0.88590000  0.17674000  0.43654000  1
  C  C380  1  0.24950000  0.82106000  0.07726000  1
  C  C381  1  0.25050000  0.32106000  0.57726000  1
  C  C382  1  0.61840000  0.03083000  0.28703000  1
  C  C383  1  0.88160000  0.53083000  0.78703000  1
  C  C384  1  0.23320000  0.38163000  0.63663000  1
  C  C385  1  0.26680000  0.88163000  0.13663000  1
  C  C386  1  0.17550000  0.42985000  0.66785000  1
  C  C387  1  0.32450000  0.92985000  0.16785000  1
  C  C388  1  0.18870000  0.36723000  0.60363000  1
  C  C389  1  0.31130000  0.86723000  0.10363000  1
  C  C390  1  0.22650000  0.24763000  0.48163000  1
  C  C391  1  0.27350000  0.74763000  0.98163000  1
  C  C392  1  0.20880000  0.30919000  0.54069000  1
  C  C393  1  0.29120000  0.80919000  0.04069000  1
  C  C394  1  0.11420000  0.35587000  0.53027000  1
  C  C395  1  0.38580000  0.85587000  0.03027000  1
  C  C396  1  0.65210000  0.03803000  0.21093000  1
  C  C397  1  0.84790000  0.53803000  0.71093000  1
  C  C398  1  0.69420000  0.10699000  0.27179000  1
  C  C399  1  0.80580000  0.60699000  0.77179000  1
  C  C400  1  0.72810000  0.17126000  0.33376000  1
  C  C401  1  0.77190000  0.67126000  0.83376000  1
  C  C402  1  0.55090000  0.53767000  0.69267000  1
  C  C403  1  0.94910000  0.03767000  0.19267000  1
  C  C404  1  0.08040000  0.34734000  0.49574000  1
  C  C405  1  0.41960000  0.84734000  0.99574000  1
  C  C406  1  0.07900000  0.20896000  0.34696000  1
  C  C407  1  0.42100000  0.70896000  0.84696000  1
  C  C408  1  0.71100000  0.10956000  0.23546000  1
  C  C409  1  0.78900000  0.60956000  0.73546000  1
  C  C410  1  0.68060000  0.47671000  0.59811000  1
  C  C411  1  0.81940000  0.97671000  0.09811000  1
  C  C412  1  0.74450000  0.17557000  0.29427000  1
  C  C413  1  0.75550000  0.67557000  0.79427000  1
  C  C414  1  0.01400000  0.21583000  0.31883000  1
  C  C415  1  0.48600000  0.71583000  0.81883000  1
  C  C416  1  0.65460000  0.98380000  0.08000000  1
  C  C417  1  0.84540000  0.48380000  0.58000000  1
  C  C418  1  0.52270000  0.88966000  0.98066000  1
  C  C419  1  0.97730000  0.38966000  0.48066000  1
  C  C420  1  0.08480000  0.68159000  0.77029000  1
  C  C421  1  0.41520000  0.18159000  0.27029000  1
  C  C422  1  0.06990000  0.07356000  0.15556000  1
  C  C423  1  0.43010000  0.57356000  0.65556000  1
  C  C424  1  0.71580000  0.67714000  0.72194000  1
  C  C425  1  0.78420000  0.17714000  0.22194000  1
  C  C426  1  0.68950000  0.74760000  0.78000000  1
  C  C427  1  0.81050000  0.24760000  0.28000000  1
  C  C428  1  0.52870000  0.82964000  0.85724000  1
  C  C429  1  0.97130000  0.32964000  0.35724000  1
  C  C430  1  0.14360000  0.67114000  0.69614000  1
  C  C431  1  0.35640000  0.17114000  0.19614000  1
  C  C432  1  0.71340000  0.57248000  0.59718000  1
  C  C433  1  0.78660000  0.07248000  0.09718000  1
  C  C434  1  0.68650000  0.67447000  0.68377000  1
  C  C435  1  0.81350000  0.17447000  0.18377000  1
  C  C436  1  0.50700000  0.64479000  0.65359000  1
  C  C437  1  0.99300000  0.14479000  0.15359000  1
  C  C438  1  0.16550000  0.75285000  0.75565000  1
  C  C439  1  0.33450000  0.25285000  0.25565000  1
  N  N440  1  0.18340000  0.42294000  0.41414000  1
  N  N441  1  0.31660000  0.92294000  0.91414000  1
  N  N442  1  0.05500000  0.70769000  0.67419000  1
  N  N443  1  0.44500000  0.20769000  0.17419000  1
  N  N444  1  0.08370000  0.87850000  0.82250000  1
  N  N445  1  0.41630000  0.37850000  0.32250000  1
  N  N446  1  0.55150000  0.21862000  0.12872000  1
  N  N447  1  0.94850000  0.71862000  0.62872000  1
  N  N448  1  0.23410000  0.57986000  0.41326000  1
  N  N449  1  0.26590000  0.07986000  0.91326000  1
  N  N450  1  0.54210000  0.49354000  0.31954000  1
  N  N451  1  0.95790000  0.99354000  0.81954000  1
  N  N452  1  0.63840000  0.20417000  0.02767000  1
  N  N453  1  0.86160000  0.70417000  0.52767000  1
  N  N454  1  0.00490000  0.83009000  0.56829000  1
  N  N455  1  0.49510000  0.33009000  0.06829000  1
  N  N456  1  0.66740000  0.64885000  0.35609000  1
  N  N457  1  0.83260000  0.14885000  0.85609000  1
  N  N458  1  0.16660000  0.56860000  0.21220000  1
  N  N459  1  0.33340000  0.06860000  0.71220000  1
  N  N460  1  0.56510000  0.61517000  0.25587000  1
  N  N461  1  0.93490000  0.11517000  0.75587000  1
  N  N462  1  0.07180000  0.97882000  0.56042000  1
  N  N463  1  0.42820000  0.47882000  0.06042000  1
  N  N464  1  0.52210000  0.66498000  0.20318000  1
  N  N465  1  0.97790000  0.16498000  0.70318000  1
  N  N466  1  0.66630000  0.77034000  0.29554000  1
  N  N467  1  0.83370000  0.27034000  0.79554000  1
  N  N468  1  0.16630000  0.72966000  0.20446000  1
  N  N469  1  0.33370000  0.22966000  0.70446000  1
  N  N470  1  0.02210000  0.83502000  0.29682000  1
  N  N471  1  0.47790000  0.33502000  0.79682000  1
  N  N472  1  0.57180000  0.52118000  0.93958000  1
  N  N473  1  0.92820000  0.02118000  0.43958000  1
  N  N474  1  0.06510000  0.88483000  0.24413000  1
  N  N475  1  0.43490000  0.38483000  0.74413000  1
  N  N476  1  0.66666667  0.93140000  0.28780000  1
  N  N477  1  0.83340000  0.43140000  0.78780000  1
  N  N478  1  0.16740000  0.85115000  0.14391000  1
  N  N479  1  0.33260000  0.35115000  0.64391000  1
  N  N480  1  0.50490000  0.66991000  0.93171000  1
  N  N481  1  0.99510000  0.16991000  0.43171000  1
  N  N482  1  0.13840000  0.29583000  0.47233000  1
  N  N483  1  0.36160000  0.79583000  0.97233000  1
  N  N484  1  0.04210000  0.00646000  0.18046000  1
  N  N485  1  0.45790000  0.50646000  0.68046000  1
  N  N486  1  0.73410000  0.92014000  0.08674000  1
  N  N487  1  0.76590000  0.42014000  0.58674000  1
  N  N488  1  0.05150000  0.28138000  0.37128000  1
  N  N489  1  0.44850000  0.78138000  0.87128000  1
  N  N490  1  0.58370000  0.62150000  0.67750000  1
  N  N491  1  0.91630000  0.12150000  0.17750000  1
  N  N492  1  0.55500000  0.79231000  0.82581000  1
  N  N493  1  0.94500000  0.29231000  0.32581000  1
  N  N494  1  0.68340000  0.07706000  0.08586000  1
  N  N495  1  0.81660000  0.57706000  0.58586000  1
  O  O496  1  0.02921000  0.61401000  0.55275000  1
  O  O497  1  0.47079000  0.11401000  0.05275000  1
  O  O498  1  0.09130000  0.57913000  0.49866000  1
  O  O499  1  0.40870000  0.07913000  0.99866000  1
  O  O500  1  0.58310000  0.04026000  0.83615000  1
  O  O501  1  0.91690000  0.54026000  0.33615000  1
  O  O502  1  0.73610000  0.29845000  0.07835000  1
  O  O503  1  0.76390000  0.79845000  0.57835000  1
  O  O504  1  0.73072000  0.06652000  0.80377000  1
  O  O505  1  0.76928000  0.56652000  0.30377000  1
  O  O506  1  0.64520000  0.86448000  0.54228000  1
  O  O507  1  0.85480000  0.36448000  0.04228000  1
  O  O508  1  0.02211000  0.20270000  0.83543000  1
  O  O509  1  0.47789000  0.70270000  0.33543000  1
  O  O510  1  0.05310000  0.29106000  0.88476000  1
  O  O511  1  0.44690000  0.79106000  0.38476000  1
  O  O512  1  0.55310000  0.20894000  0.61524000  1
  O  O513  1  0.94690000  0.70894000  0.11524000  1
  O  O514  1  0.52211000  0.29730000  0.66457000  1
  O  O515  1  0.97789000  0.79730000  0.16457000  1
  O  O516  1  0.14520000  0.63552000  0.95772000  1
  O  O517  1  0.35480000  0.13552000  0.45772000  1
  O  O518  1  0.23072000  0.43348000  0.69623000  1
  O  O519  1  0.26928000  0.93348000  0.19623000  1
  O  O520  1  0.23610000  0.20155000  0.42165000  1
  O  O521  1  0.26390000  0.70155000  0.92165000  1
  O  O522  1  0.08310000  0.45974000  0.66385000  1
  O  O523  1  0.41690000  0.95974000  0.16385000  1
  O  O524  1  0.59130000  0.92087000  0.00134000  1
  O  O525  1  0.90870000  0.42087000  0.50134000  1
  O  O526  1  0.52921000  0.88599000  0.94725000  1
  O  O527  1  0.97079000  0.38599000  0.44725000  1
