# generated using pymatgen
data_CeH9C17O8
_symmetry_space_group_name_H-M   'P 1'
_cell_length_a   4.88000000
_cell_length_b   13.11000000
_cell_length_c   13.28990000
_cell_angle_alpha   90.00000000
_cell_angle_beta   100.57900000
_cell_angle_gamma   90.00000000
_symmetry_Int_Tables_number   1
_chemical_formula_structural   CeH9C17O8
_chemical_formula_sum   'Ce2 H18 C34 O16'
_cell_volume   835.79340441
_cell_formula_units_Z   2
loop_
 _symmetry_equiv_pos_site_id
 _symmetry_equiv_pos_as_xyz
  1  'x, y, z'
loop_
 _atom_site_type_symbol
 _atom_site_label
 _atom_site_symmetry_multiplicity
 _atom_site_fract_x
 _atom_site_fract_y
 _atom_site_fract_z
 _atom_site_occupancy
  Ce  Ce0  1  0.02222000  0.25880000  0.78770000  1
  Ce  Ce1  1  0.97778000  0.75880000  0.21230000  1
  H  H2  1  0.00280000  0.75320000  0.61630000  1
  H  H3  1  0.03100000  0.34340000  0.30870000  1
  H  H4  1  0.06130000  0.99630000  0.33940000  1
  H  H5  1  0.09950000  0.79430000  0.86970000  1
  H  H6  1  0.17760000  0.51780000  0.50240000  1
  H  H7  1  0.27800000  0.78530000  0.48640000  1
  H  H8  1  0.30740000  0.07880000  0.05060000  1
  H  H9  1  0.40550000  0.97240000  0.72820000  1
  H  H10  1  0.47430000  0.66130000  0.65510000  1
  H  H11  1  0.52570000  0.16130000  0.34490000  1
  H  H12  1  0.59450000  0.47240000  0.27180000  1
  H  H13  1  0.69260000  0.57880000  0.94940000  1
  H  H14  1  0.72200000  0.28530000  0.51360000  1
  H  H15  1  0.82240000  0.01780000  0.49760000  1
  H  H16  1  0.90050000  0.29430000  0.13030000  1
  H  H17  1  0.93870000  0.49630000  0.66060000  1
  H  H18  1  0.96900000  0.84340000  0.69130000  1
  H  H19  1  0.99720000  0.25320000  0.38370000  1
  C  C20  1  0.10320000  0.80070000  0.66560000  1
  C  C21  1  0.19800000  0.03550000  0.23340000  1
  C  C22  1  0.21790000  0.59480000  0.31680000  1
  C  C23  1  0.23560000  0.74870000  0.85080000  1
  C  C24  1  0.27390000  0.74630000  0.74890000  1
  C  C25  1  0.30740000  0.48110000  0.47390000  1
  C  C26  1  0.30990000  0.86930000  0.61330000  1
  C  C27  1  0.36430000  0.84190000  0.52060000  1
  C  C28  1  0.36730000  0.50700000  0.37780000  1
  C  C29  1  0.38090000  0.69940000  0.03530000  1
  C  C30  1  0.38650000  0.10840000  0.20210000  1
  C  C31  1  0.38810000  0.36440000  0.62260000  1
  C  C32  1  0.39740000  0.68680000  0.92630000  1
  C  C33  1  0.41550000  0.11850000  0.10070000  1
  C  C34  1  0.44430000  0.95320000  0.66490000  1
  C  C35  1  0.44480000  0.40110000  0.52350000  1
  C  C36  1  0.45800000  0.67000000  0.72320000  1
  C  C37  1  0.54200000  0.17000000  0.27680000  1
  C  C38  1  0.55520000  0.90110000  0.47650000  1
  C  C39  1  0.55570000  0.45320000  0.33510000  1
  C  C40  1  0.58450000  0.61850000  0.89930000  1
  C  C41  1  0.60260000  0.18680000  0.07370000  1
  C  C42  1  0.61190000  0.86440000  0.37740000  1
  C  C43  1  0.61350000  0.60840000  0.79790000  1
  C  C44  1  0.61910000  0.19940000  0.96470000  1
  C  C45  1  0.63270000  0.00700000  0.62220000  1
  C  C46  1  0.63570000  0.34190000  0.47940000  1
  C  C47  1  0.69010000  0.36930000  0.38670000  1
  C  C48  1  0.69260000  0.98110000  0.52610000  1
  C  C49  1  0.72610000  0.24630000  0.25110000  1
  C  C50  1  0.76440000  0.24870000  0.14920000  1
  C  C51  1  0.78210000  0.09480000  0.68320000  1
  C  C52  1  0.80200000  0.53550000  0.76660000  1
  C  C53  1  0.89680000  0.30070000  0.33440000  1
  O  O54  1  0.05560000  0.64850000  0.35780000  1
  O  O55  1  0.08700000  0.96060000  0.17600000  1
  O  O56  1  0.13050000  0.38700000  0.64670000  1
  O  O57  1  0.15210000  0.04520000  0.32530000  1
  O  O58  1  0.16090000  0.75390000  0.05470000  1
  O  O59  1  0.26030000  0.61480000  0.22970000  1
  O  O60  1  0.39730000  0.16870000  0.89160000  1
  O  O61  1  0.44340000  0.80810000  0.32050000  1
  O  O62  1  0.55660000  0.30810000  0.67950000  1
  O  O63  1  0.60270000  0.66870000  0.10840000  1
  O  O64  1  0.73970000  0.11480000  0.77030000  1
  O  O65  1  0.83910000  0.25390000  0.94530000  1
  O  O66  1  0.84790000  0.54520000  0.67470000  1
  O  O67  1  0.86950000  0.88700000  0.35330000  1
  O  O68  1  0.91300000  0.46060000  0.82400000  1
  O  O69  1  0.94440000  0.14850000  0.64220000  1
