# generated using pymatgen
data_TbH16(C14O5)2
_symmetry_space_group_name_H-M   'P 1'
_cell_length_a   15.18340000
_cell_length_b   15.18340000
_cell_length_c   26.52820000
_cell_angle_alpha   90.00000000
_cell_angle_beta   90.00000000
_cell_angle_gamma   120.00000000
_symmetry_Int_Tables_number   1
_chemical_formula_structural   TbH16(C14O5)2
_chemical_formula_sum   'Tb6 H96 C168 O60'
_cell_volume   5296.34761914
_cell_formula_units_Z   6
loop_
 _symmetry_equiv_pos_site_id
 _symmetry_equiv_pos_as_xyz
  1  'x, y, z'
loop_
 _atom_site_type_symbol
 _atom_site_label
 _atom_site_symmetry_multiplicity
 _atom_site_fract_x
 _atom_site_fract_y
 _atom_site_fract_z
 _atom_site_occupancy
  Tb  Tb0  1  1.00000000  0.50000000  0.24464000  1
  Tb  Tb1  1  1.00000000  0.50000000  0.08869000  1
  Tb  Tb2  1  0.50000000  0.50000000  0.57798000  1
  Tb  Tb3  1  0.50000000  0.50000000  0.42202000  1
  Tb  Tb4  1  0.50000000  0.00000000  0.91131000  1
  Tb  Tb5  1  0.50000000  0.00000000  0.75536000  1
  H  H6  1  0.99550000  0.38260000  0.44227000  1
  H  H7  1  0.99550000  0.61290000  0.89107000  1
  H  H8  1  0.95940000  0.35430000  0.74217000  1
  H  H9  1  0.95940000  0.60510000  0.59117000  1
  H  H10  1  0.90610000  0.21660000  0.57577000  1
  H  H11  1  0.90610000  0.68950000  0.75757000  1
  H  H12  1  0.87750000  0.20270000  0.36033000  1
  H  H13  1  0.87750000  0.67480000  0.97300000  1
  H  H14  1  0.83930000  0.26330000  0.90397000  1
  H  H15  1  0.83930000  0.57600000  0.42937000  1
  H  H16  1  0.79730000  0.12250000  0.63967000  1
  H  H17  1  0.79730000  0.67480000  0.69367000  1
  H  H18  1  0.79250000  0.22790000  0.75667000  1
  H  H19  1  0.79250000  0.56460000  0.57667000  1
  H  H20  1  0.78340000  0.09390000  0.42423000  1
  H  H21  1  0.78340000  0.68950000  0.90910000  1
  H  H22  1  0.77210000  0.20750000  0.24333000  1
  H  H23  1  0.77210000  0.56460000  0.09000000  1
  H  H24  1  0.74920000  0.35960000  0.55507000  1
  H  H25  1  0.74920000  0.38960000  0.77827000  1
  H  H26  1  0.73840000  0.36200000  0.38033000  1
  H  H27  1  0.73840000  0.37640000  0.95300000  1
  H  H28  1  0.73670000  0.16070000  0.09603000  1
  H  H29  1  0.73670000  0.57600000  0.23730000  1
  H  H30  1  0.68950000  0.78340000  0.09090000  1
  H  H31  1  0.68950000  0.90610000  0.24243000  1
  H  H32  1  0.67480000  0.79730000  0.30633000  1
  H  H33  1  0.67480000  0.87750000  0.02700000  1
  H  H34  1  0.64570000  0.04060000  0.25783000  1
  H  H35  1  0.64570000  0.60510000  0.07550000  1
  H  H36  1  0.64040000  0.25080000  0.44493000  1
  H  H37  1  0.64040000  0.38960000  0.88840000  1
  H  H38  1  0.63800000  0.26160000  0.61967000  1
  H  H39  1  0.63800000  0.37640000  0.71367000  1
  H  H40  1  0.62360000  0.26160000  0.04700000  1
  H  H41  1  0.62360000  0.36200000  0.28633000  1
  H  H42  1  0.61740000  0.00450000  0.55773000  1
  H  H43  1  0.61740000  0.61290000  0.77560000  1
  H  H44  1  0.61290000  0.61740000  0.22440000  1
  H  H45  1  0.61290000  0.99550000  0.10893000  1
  H  H46  1  0.61040000  0.25080000  0.22173000  1
  H  H47  1  0.61040000  0.35960000  0.11160000  1
  H  H48  1  0.60510000  0.64570000  0.92450000  1
  H  H49  1  0.60510000  0.95940000  0.40883000  1
  H  H50  1  0.57600000  0.73670000  0.76270000  1
  H  H51  1  0.57600000  0.83930000  0.57063000  1
  H  H52  1  0.56460000  0.77210000  0.91000000  1
  H  H53  1  0.56460000  0.79250000  0.42333000  1
  H  H54  1  0.43540000  0.20750000  0.42333000  1
  H  H55  1  0.43540000  0.22790000  0.91000000  1
  H  H56  1  0.42400000  0.16070000  0.57063000  1
  H  H57  1  0.42400000  0.26330000  0.76270000  1
  H  H58  1  0.39490000  0.04060000  0.40883000  1
  H  H59  1  0.39490000  0.35430000  0.92450000  1
  H  H60  1  0.38960000  0.64040000  0.11160000  1
  H  H61  1  0.38960000  0.74920000  0.22173000  1
  H  H62  1  0.38710000  0.00450000  0.10893000  1
  H  H63  1  0.38710000  0.38260000  0.22440000  1
  H  H64  1  0.38260000  0.38710000  0.77560000  1
  H  H65  1  0.38260000  0.99550000  0.55773000  1
  H  H66  1  0.37640000  0.63800000  0.28633000  1
  H  H67  1  0.37640000  0.73840000  0.04700000  1
  H  H68  1  0.36200000  0.62360000  0.71367000  1
  H  H69  1  0.36200000  0.73840000  0.61967000  1
  H  H70  1  0.35960000  0.61040000  0.88840000  1
  H  H71  1  0.35960000  0.74920000  0.44493000  1
  H  H72  1  0.35430000  0.39490000  0.07550000  1
  H  H73  1  0.35430000  0.95940000  0.25783000  1
  H  H74  1  0.32520000  0.12250000  0.02700000  1
  H  H75  1  0.32520000  0.20270000  0.30633000  1
  H  H76  1  0.31050000  0.09390000  0.24243000  1
  H  H77  1  0.31050000  0.21660000  0.09090000  1
  H  H78  1  0.26330000  0.42400000  0.23730000  1
  H  H79  1  0.26330000  0.83930000  0.09603000  1
  H  H80  1  0.26160000  0.62360000  0.95300000  1
  H  H81  1  0.26160000  0.63800000  0.38033000  1
  H  H82  1  0.25080000  0.61040000  0.77827000  1
  H  H83  1  0.25080000  0.64040000  0.55507000  1
  H  H84  1  0.22790000  0.43540000  0.09000000  1
  H  H85  1  0.22790000  0.79250000  0.24333000  1
  H  H86  1  0.21660000  0.31050000  0.90910000  1
  H  H87  1  0.21660000  0.90610000  0.42423000  1
  H  H88  1  0.20750000  0.43540000  0.57667000  1
  H  H89  1  0.20750000  0.77210000  0.75667000  1
  H  H90  1  0.20270000  0.32520000  0.69367000  1
  H  H91  1  0.20270000  0.87750000  0.63967000  1
  H  H92  1  0.16070000  0.42400000  0.42937000  1
  H  H93  1  0.16070000  0.73670000  0.90397000  1
  H  H94  1  0.12250000  0.32520000  0.97300000  1
  H  H95  1  0.12250000  0.79730000  0.36033000  1
  H  H96  1  0.09390000  0.31050000  0.75757000  1
  H  H97  1  0.09390000  0.78340000  0.57577000  1
  H  H98  1  0.04060000  0.39490000  0.59117000  1
  H  H99  1  0.04060000  0.64570000  0.74217000  1
  H  H100  1  0.00450000  0.38710000  0.89107000  1
  H  H101  1  0.00450000  0.61740000  0.44227000  1
  C  C102  1  0.99970000  0.38090000  0.51827000  1
  C  C103  1  0.99970000  0.61880000  0.81507000  1
  C  C104  1  0.96260000  0.35440000  0.86357000  1
  C  C105  1  0.96260000  0.60820000  0.46977000  1
  C  C106  1  0.93620000  0.33500000  0.77497000  1
  C  C107  1  0.93620000  0.60120000  0.55837000  1
  C  C108  1  0.88110000  0.36410000  0.32433000  1
  C  C109  1  0.88110000  0.51700000  0.00900000  1
  C  C110  1  0.86390000  0.27990000  0.87117000  1
  C  C111  1  0.86390000  0.58400000  0.46217000  1
  C  C112  1  0.85680000  0.30680000  0.15833000  1
  C  C113  1  0.85680000  0.55000000  0.17500000  1
  C  C114  1  0.85330000  0.22760000  0.58507000  1
  C  C115  1  0.85330000  0.62570000  0.74827000  1
  C  C116  1  0.84120000  0.30070000  0.56147000  1
  C  C117  1  0.84120000  0.54050000  0.77187000  1
  C  C118  1  0.83580000  0.25880000  0.78387000  1
  C  C119  1  0.83580000  0.57700000  0.54947000  1
  C  C120  1  0.82990000  0.21310000  0.37733000  1
  C  C121  1  0.82990000  0.61680000  0.95600000  1
  C  C122  1  0.81860000  0.29450000  0.36423000  1
  C  C123  1  0.81860000  0.52410000  0.96910000  1
  C  C124  1  0.80000000  0.22870000  0.83147000  1
  C  C125  1  0.80000000  0.57130000  0.50187000  1
  C  C126  1  0.78690000  0.17010000  0.62267000  1
  C  C127  1  0.78690000  0.61680000  0.71067000  1
  C  C128  1  0.77240000  0.14670000  0.41493000  1
  C  C129  1  0.77240000  0.62570000  0.91840000  1
  C  C130  1  0.77130000  0.20000000  0.16853000  1
  C  C131  1  0.77130000  0.57130000  0.16480000  1
  C  C132  1  0.75990000  0.31270000  0.57257000  1
  C  C133  1  0.75990000  0.44720000  0.76077000  1
  C  C134  1  0.74750000  0.30770000  0.38893000  1
  C  C135  1  0.74750000  0.43980000  0.94440000  1
  C  C136  1  0.74120000  0.16420000  0.21613000  1
  C  C137  1  0.74120000  0.57700000  0.11720000  1
  C  C138  1  0.72010000  0.13610000  0.12883000  1
  C  C139  1  0.72010000  0.58400000  0.20450000  1
  C  C140  1  0.70550000  0.18140000  0.63577000  1
  C  C141  1  0.70550000  0.52410000  0.69757000  1
  C  C142  1  0.69930000  0.15880000  0.43853000  1
  C  C143  1  0.69930000  0.54050000  0.89480000  1
  C  C144  1  0.69320000  0.14320000  0.84167000  1
  C  C145  1  0.69320000  0.55000000  0.49167000  1
  C  C146  1  0.69230000  0.25250000  0.61107000  1
  C  C147  1  0.69230000  0.43980000  0.72227000  1
  C  C148  1  0.68730000  0.24010000  0.42743000  1
  C  C149  1  0.68730000  0.44720000  0.90590000  1
  C  C150  1  0.66500000  0.06380000  0.22503000  1
  C  C151  1  0.66500000  0.60120000  0.10830000  1
  C  C152  1  0.64560000  0.03740000  0.13643000  1
  C  C153  1  0.64560000  0.60820000  0.19690000  1
  C  C154  1  0.63590000  0.11890000  0.67567000  1
  C  C155  1  0.63590000  0.51700000  0.65767000  1
  C  C156  1  0.62570000  0.77240000  0.08160000  1
  C  C157  1  0.62570000  0.85330000  0.25173000  1
  C  C158  1  0.61910000  0.00030000  0.48173000  1
  C  C159  1  0.61910000  0.61880000  0.85160000  1
  C  C160  1  0.61880000  0.61910000  0.14840000  1
  C  C161  1  0.61880000  0.99970000  0.18493000  1
  C  C162  1  0.61680000  0.78690000  0.28933000  1
  C  C163  1  0.61680000  0.82990000  0.04400000  1
  C  C164  1  0.60820000  0.64560000  0.80310000  1
  C  C165  1  0.60820000  0.96260000  0.53023000  1
  C  C166  1  0.60120000  0.66500000  0.89170000  1
  C  C167  1  0.60120000  0.93620000  0.44163000  1
  C  C168  1  0.58400000  0.72010000  0.79550000  1
  C  C169  1  0.58400000  0.86390000  0.53783000  1
  C  C170  1  0.57700000  0.74120000  0.88280000  1
  C  C171  1  0.57700000  0.83580000  0.45053000  1
  C  C172  1  0.57130000  0.77130000  0.83520000  1
  C  C173  1  0.57130000  0.80000000  0.49813000  1
  C  C174  1  0.56020000  0.25250000  0.05560000  1
  C  C175  1  0.56020000  0.30770000  0.27773000  1
  C  C176  1  0.55280000  0.24010000  0.23923000  1
  C  C177  1  0.55280000  0.31270000  0.09410000  1
  C  C178  1  0.55000000  0.69320000  0.50833000  1
  C  C179  1  0.55000000  0.85680000  0.82500000  1
  C  C180  1  0.54050000  0.69930000  0.10520000  1
  C  C181  1  0.54050000  0.84120000  0.22813000  1
  C  C182  1  0.52410000  0.70550000  0.30243000  1
  C  C183  1  0.52410000  0.81860000  0.03090000  1
  C  C184  1  0.51700000  0.63590000  0.34233000  1
  C  C185  1  0.51700000  0.88110000  0.99100000  1
  C  C186  1  0.48300000  0.11890000  0.99100000  1
  C  C187  1  0.48300000  0.36410000  0.34233000  1
  C  C188  1  0.47590000  0.18140000  0.03090000  1
  C  C189  1  0.47590000  0.29450000  0.30243000  1
  C  C190  1  0.45950000  0.15880000  0.22813000  1
  C  C191  1  0.45950000  0.30070000  0.10520000  1
  C  C192  1  0.45000000  0.14320000  0.82500000  1
  C  C193  1  0.45000000  0.30680000  0.50833000  1
  C  C194  1  0.44720000  0.68730000  0.09410000  1
  C  C195  1  0.44720000  0.75990000  0.23923000  1
  C  C196  1  0.43980000  0.69230000  0.27773000  1
  C  C197  1  0.43980000  0.74750000  0.05560000  1
  C  C198  1  0.42870000  0.20000000  0.49813000  1
  C  C199  1  0.42870000  0.22870000  0.83520000  1
  C  C200  1  0.42300000  0.16420000  0.45053000  1
  C  C201  1  0.42300000  0.25880000  0.88280000  1
  C  C202  1  0.41600000  0.13610000  0.53783000  1
  C  C203  1  0.41600000  0.27990000  0.79550000  1
  C  C204  1  0.39880000  0.06380000  0.44163000  1
  C  C205  1  0.39880000  0.33500000  0.89170000  1
  C  C206  1  0.39180000  0.03740000  0.53023000  1
  C  C207  1  0.39180000  0.35440000  0.80310000  1
  C  C208  1  0.38320000  0.17010000  0.04400000  1
  C  C209  1  0.38320000  0.21310000  0.28933000  1
  C  C210  1  0.38120000  0.00030000  0.18493000  1
  C  C211  1  0.38120000  0.38090000  0.14840000  1
  C  C212  1  0.38090000  0.38120000  0.85160000  1
  C  C213  1  0.38090000  0.99970000  0.48173000  1
  C  C214  1  0.37430000  0.14670000  0.25173000  1
  C  C215  1  0.37430000  0.22760000  0.08160000  1
  C  C216  1  0.36410000  0.48300000  0.65767000  1
  C  C217  1  0.36410000  0.88110000  0.67567000  1
  C  C218  1  0.35440000  0.39180000  0.19690000  1
  C  C219  1  0.35440000  0.96260000  0.13643000  1
  C  C220  1  0.33500000  0.39880000  0.10830000  1
  C  C221  1  0.33500000  0.93620000  0.22503000  1
  C  C222  1  0.31270000  0.55280000  0.90590000  1
  C  C223  1  0.31270000  0.75990000  0.42743000  1
  C  C224  1  0.30770000  0.56020000  0.72227000  1
  C  C225  1  0.30770000  0.74750000  0.61107000  1
  C  C226  1  0.30680000  0.45000000  0.49167000  1
  C  C227  1  0.30680000  0.85680000  0.84167000  1
  C  C228  1  0.30070000  0.45950000  0.89480000  1
  C  C229  1  0.30070000  0.84120000  0.43853000  1
  C  C230  1  0.29450000  0.47590000  0.69757000  1
  C  C231  1  0.29450000  0.81860000  0.63577000  1
  C  C232  1  0.27990000  0.41600000  0.20450000  1
  C  C233  1  0.27990000  0.86390000  0.12883000  1
  C  C234  1  0.25880000  0.42300000  0.11720000  1
  C  C235  1  0.25880000  0.83580000  0.21613000  1
  C  C236  1  0.25250000  0.56020000  0.94440000  1
  C  C237  1  0.25250000  0.69230000  0.38893000  1
  C  C238  1  0.24010000  0.55280000  0.76077000  1
  C  C239  1  0.24010000  0.68730000  0.57257000  1
  C  C240  1  0.22870000  0.42870000  0.16480000  1
  C  C241  1  0.22870000  0.80000000  0.16853000  1
  C  C242  1  0.22760000  0.37430000  0.91840000  1
  C  C243  1  0.22760000  0.85330000  0.41493000  1
  C  C244  1  0.21310000  0.38320000  0.71067000  1
  C  C245  1  0.21310000  0.82990000  0.62267000  1
  C  C246  1  0.20000000  0.42870000  0.50187000  1
  C  C247  1  0.20000000  0.77130000  0.83147000  1
  C  C248  1  0.18140000  0.47590000  0.96910000  1
  C  C249  1  0.18140000  0.70550000  0.36423000  1
  C  C250  1  0.17010000  0.38320000  0.95600000  1
  C  C251  1  0.17010000  0.78690000  0.37733000  1
  C  C252  1  0.16420000  0.42300000  0.54947000  1
  C  C253  1  0.16420000  0.74120000  0.78387000  1
  C  C254  1  0.15880000  0.45950000  0.77187000  1
  C  C255  1  0.15880000  0.69930000  0.56147000  1
  C  C256  1  0.14670000  0.37430000  0.74827000  1
  C  C257  1  0.14670000  0.77240000  0.58507000  1
  C  C258  1  0.14320000  0.45000000  0.17500000  1
  C  C259  1  0.14320000  0.69320000  0.15833000  1
  C  C260  1  0.13610000  0.41600000  0.46217000  1
  C  C261  1  0.13610000  0.72010000  0.87117000  1
  C  C262  1  0.11890000  0.48300000  0.00900000  1
  C  C263  1  0.11890000  0.63590000  0.32433000  1
  C  C264  1  0.06380000  0.39880000  0.55837000  1
  C  C265  1  0.06380000  0.66500000  0.77497000  1
  C  C266  1  0.03740000  0.39180000  0.46977000  1
  C  C267  1  0.03740000  0.64560000  0.86357000  1
  C  C268  1  0.00030000  0.38120000  0.81507000  1
  C  C269  1  0.00030000  0.61910000  0.51827000  1
  O  O270  1  0.94260000  0.35740000  0.30223000  1
  O  O271  1  0.94260000  0.58520000  0.03110000  1
  O  O272  1  0.90200000  0.36070000  0.52267000  1
  O  O273  1  0.90200000  0.54130000  0.81067000  1
  O  O274  1  0.89380000  0.36500000  0.19613000  1
  O  O275  1  0.89380000  0.52880000  0.13720000  1
  O  O276  1  0.88510000  0.33270000  0.11393000  1
  O  O277  1  0.88510000  0.55240000  0.21940000  1
  O  O278  1  0.86740000  0.42850000  0.02310000  1
  O  O279  1  0.86740000  0.43890000  0.31023000  1
  O  O280  1  0.66730000  0.11490000  0.88607000  1
  O  O281  1  0.66730000  0.55240000  0.44727000  1
  O  O282  1  0.64260000  0.05740000  0.69777000  1
  O  O283  1  0.64260000  0.58520000  0.63557000  1
  O  O284  1  0.63930000  0.09800000  0.47733000  1
  O  O285  1  0.63930000  0.54130000  0.85600000  1
  O  O286  1  0.63500000  0.10620000  0.80387000  1
  O  O287  1  0.63500000  0.52880000  0.52947000  1
  O  O288  1  0.58520000  0.64260000  0.36443000  1
  O  O289  1  0.58520000  0.94260000  0.96890000  1
  O  O290  1  0.57150000  0.13260000  0.97690000  1
  O  O291  1  0.57150000  0.43890000  0.35643000  1
  O  O292  1  0.56110000  0.13260000  0.68977000  1
  O  O293  1  0.56110000  0.42850000  0.64357000  1
  O  O294  1  0.55240000  0.66730000  0.55273000  1
  O  O295  1  0.55240000  0.88510000  0.78060000  1
  O  O296  1  0.54130000  0.63930000  0.14400000  1
  O  O297  1  0.54130000  0.90200000  0.18933000  1
  O  O298  1  0.52880000  0.63500000  0.47053000  1
  O  O299  1  0.52880000  0.89380000  0.86280000  1
  O  O300  1  0.47120000  0.10620000  0.86280000  1
  O  O301  1  0.47120000  0.36500000  0.47053000  1
  O  O302  1  0.45870000  0.09800000  0.18933000  1
  O  O303  1  0.45870000  0.36070000  0.14400000  1
  O  O304  1  0.44760000  0.11490000  0.78060000  1
  O  O305  1  0.44760000  0.33270000  0.55273000  1
  O  O306  1  0.43890000  0.57150000  0.64357000  1
  O  O307  1  0.43890000  0.86740000  0.68977000  1
  O  O308  1  0.42850000  0.56110000  0.35643000  1
  O  O309  1  0.42850000  0.86740000  0.97690000  1
  O  O310  1  0.41480000  0.05740000  0.96890000  1
  O  O311  1  0.41480000  0.35740000  0.36443000  1
  O  O312  1  0.36500000  0.47120000  0.52947000  1
  O  O313  1  0.36500000  0.89380000  0.80387000  1
  O  O314  1  0.36070000  0.45870000  0.85600000  1
  O  O315  1  0.36070000  0.90200000  0.47733000  1
  O  O316  1  0.35740000  0.41480000  0.63557000  1
  O  O317  1  0.35740000  0.94260000  0.69777000  1
  O  O318  1  0.33270000  0.44760000  0.44727000  1
  O  O319  1  0.33270000  0.88510000  0.88607000  1
  O  O320  1  0.13260000  0.56110000  0.31023000  1
  O  O321  1  0.13260000  0.57150000  0.02310000  1
  O  O322  1  0.11490000  0.44760000  0.21940000  1
  O  O323  1  0.11490000  0.66730000  0.11393000  1
  O  O324  1  0.10620000  0.47120000  0.13720000  1
  O  O325  1  0.10620000  0.63500000  0.19613000  1
  O  O326  1  0.09800000  0.45870000  0.81067000  1
  O  O327  1  0.09800000  0.63930000  0.52267000  1
  O  O328  1  0.05740000  0.41480000  0.03110000  1
  O  O329  1  0.05740000  0.64260000  0.30223000  1
