# generated using pymatgen
data_Zn4H36C66O13
_symmetry_space_group_name_H-M   'P 1'
_cell_length_a   16.33000000
_cell_length_b   19.55600000
_cell_length_c   25.57300000
_cell_angle_alpha   91.09700000
_cell_angle_beta   90.00000000
_cell_angle_gamma   90.00000000
_symmetry_Int_Tables_number   1
_chemical_formula_structural   Zn4H36C66O13
_chemical_formula_sum   'Zn16 H144 C264 O52'
_cell_volume   8165.22742155
_cell_formula_units_Z   4
loop_
 _symmetry_equiv_pos_site_id
 _symmetry_equiv_pos_as_xyz
  1  'x, y, z'
loop_
 _atom_site_type_symbol
 _atom_site_label
 _atom_site_symmetry_multiplicity
 _atom_site_fract_x
 _atom_site_fract_y
 _atom_site_fract_z
 _atom_site_occupancy
  Zn  Zn0  1  0.79108000  0.82895000  0.83777000  1
  Zn  Zn1  1  0.70892000  0.82895000  0.33777000  1
  Zn  Zn2  1  0.82172000  0.75652000  0.24480000  1
  Zn  Zn3  1  0.67828000  0.75652000  0.74480000  1
  Zn  Zn4  1  0.86439000  0.74886000  0.73704000  1
  Zn  Zn5  1  0.63561000  0.74886000  0.23704000  1
  Zn  Zn6  1  0.77573000  0.66666667  0.82252000  1
  Zn  Zn7  1  0.72427000  0.66666667  0.32252000  1
  Zn  Zn8  1  0.27573000  0.33333333  0.67748000  1
  Zn  Zn9  1  0.22427000  0.33333333  0.17748000  1
  Zn  Zn10  1  0.36439000  0.25114000  0.76296000  1
  Zn  Zn11  1  0.13561000  0.25114000  0.26296000  1
  Zn  Zn12  1  0.32172000  0.24348000  0.25520000  1
  Zn  Zn13  1  0.17828000  0.24348000  0.75520000  1
  Zn  Zn14  1  0.29108000  0.17105000  0.66223000  1
  Zn  Zn15  1  0.20892000  0.17105000  0.16223000  1
  H  H16  1  0.89360000  0.99900000  0.44910000  1
  H  H17  1  0.60640000  0.99900000  0.94910000  1
  H  H18  1  0.94530000  0.99790000  0.80780000  1
  H  H19  1  0.55470000  0.99790000  0.30780000  1
  H  H20  1  0.81960000  0.98420000  0.36160000  1
  H  H21  1  0.68040000  0.98420000  0.86160000  1
  H  H22  1  0.32310000  0.96070000  0.64960000  1
  H  H23  1  0.17690000  0.96070000  0.14960000  1
  H  H24  1  0.48440000  0.93600000  0.99720000  1
  H  H25  1  0.01560000  0.93600000  0.49720000  1
  H  H26  1  0.97810000  0.90700000  0.21560000  1
  H  H27  1  0.52190000  0.90700000  0.71560000  1
  H  H28  1  0.40350000  0.86810000  0.67760000  1
  H  H29  1  0.09650000  0.86810000  0.17760000  1
  H  H30  1  0.96360000  0.83610000  0.52360000  1
  H  H31  1  0.53640000  0.83610000  0.02360000  1
  H  H32  1  0.44120000  0.82030000  0.19920000  1
  H  H33  1  0.05880000  0.82030000  0.69920000  1
  H  H34  1  0.98570000  0.80030000  0.60990000  1
  H  H35  1  0.51430000  0.80030000  0.10990000  1
  H  H36  1  0.84490000  0.77480000  0.48370000  1
  H  H37  1  0.65510000  0.77480000  0.98370000  1
  H  H38  1  0.85850000  0.77180000  0.57380000  1
  H  H39  1  0.64150000  0.77180000  0.07380000  1
  H  H40  1  0.33810000  0.77110000  0.71270000  1
  H  H41  1  0.16190000  0.77110000  0.21270000  1
  H  H42  1  0.30030000  0.76750000  0.21930000  1
  H  H43  1  0.19970000  0.76750000  0.71930000  1
  H  H44  1  0.36390000  0.76140000  0.50550000  1
  H  H45  1  0.13610000  0.76140000  0.00550000  1
  H  H46  1  0.36900000  0.75250000  0.59540000  1
  H  H47  1  0.13100000  0.75250000  0.09540000  1
  H  H48  1  0.46790000  0.71120000  0.45360000  1
  H  H49  1  0.03210000  0.71120000  0.95360000  1
  H  H50  1  0.27300000  0.70310000  0.11790000  1
  H  H51  1  0.22700000  0.70310000  0.61790000  1
  H  H52  1  0.48210000  0.70290000  0.63460000  1
  H  H53  1  0.01790000  0.70290000  0.13460000  1
  H  H54  1  0.41260000  0.70010000  0.14000000  1
  H  H55  1  0.08740000  0.70010000  0.64000000  1
  H  H56  1  0.89680000  0.64780000  0.94820000  1
  H  H57  1  0.60320000  0.64780000  0.44820000  1
  H  H58  1  0.87740000  0.64310000  0.12620000  1
  H  H59  1  0.62260000  0.64310000  0.62620000  1
  H  H60  1  0.95960000  0.62660000  0.65800000  1
  H  H61  1  0.54040000  0.62660000  0.15800000  1
  H  H62  1  0.85930000  0.60260000  0.58580000  1
  H  H63  1  0.64070000  0.60260000  0.08580000  1
  H  H64  1  0.29860000  0.60230000  0.60210000  1
  H  H65  1  0.20140000  0.60230000  0.10210000  1
  H  H66  1  0.99940000  0.60030000  0.45580000  1
  H  H67  1  0.50060000  0.60030000  0.95580000  1
  H  H68  1  0.98350000  0.59690000  0.20100000  1
  H  H69  1  0.51650000  0.59690000  0.70100000  1
  H  H70  1  0.36830000  0.59250000  0.42600000  1
  H  H71  1  0.13170000  0.59250000  0.92600000  1
  H  H72  1  0.38260000  0.59050000  0.51620000  1
  H  H73  1  0.11740000  0.59050000  0.01620000  1
  H  H74  1  0.90100000  0.57220000  0.37910000  1
  H  H75  1  0.59900000  0.57220000  0.87910000  1
  H  H76  1  0.38130000  0.57040000  0.00180000  1
  H  H77  1  0.11870000  0.57040000  0.50180000  1
  H  H78  1  0.81220000  0.52580000  0.51840000  1
  H  H79  1  0.68780000  0.52580000  0.01840000  1
  H  H80  1  0.88980000  0.51490000  0.94010000  1
  H  H81  1  0.61020000  0.51490000  0.44010000  1
  H  H82  1  0.88070000  0.51030000  0.12310000  1
  H  H83  1  0.61930000  0.51030000  0.62310000  1
  H  H84  1  0.76590000  0.50400000  0.39730000  1
  H  H85  1  0.73410000  0.50400000  0.89730000  1
  H  H86  1  0.94150000  0.50000000  0.81600000  1
  H  H87  1  0.55850000  0.50000000  0.31600000  1
  H  H88  1  0.44150000  0.50000000  0.68400000  1
  H  H89  1  0.05850000  0.50000000  0.18400000  1
  H  H90  1  0.26590000  0.49600000  0.10270000  1
  H  H91  1  0.23410000  0.49600000  0.60270000  1
  H  H92  1  0.38070000  0.48970000  0.37690000  1
  H  H93  1  0.11930000  0.48970000  0.87690000  1
  H  H94  1  0.38980000  0.48510000  0.55990000  1
  H  H95  1  0.11020000  0.48510000  0.05990000  1
  H  H96  1  0.31220000  0.47420000  0.98160000  1
  H  H97  1  0.18780000  0.47420000  0.48160000  1
  H  H98  1  0.88130000  0.42960000  0.49820000  1
  H  H99  1  0.61870000  0.42960000  0.99820000  1
  H  H100  1  0.40100000  0.42780000  0.12090000  1
  H  H101  1  0.09900000  0.42780000  0.62090000  1
  H  H102  1  0.88260000  0.40950000  0.98380000  1
  H  H103  1  0.61740000  0.40950000  0.48380000  1
  H  H104  1  0.86830000  0.40750000  0.07400000  1
  H  H105  1  0.63170000  0.40750000  0.57400000  1
  H  H106  1  0.48350000  0.40310000  0.29900000  1
  H  H107  1  0.01650000  0.40310000  0.79900000  1
  H  H108  1  0.49940000  0.39970000  0.04420000  1
  H  H109  1  0.00060000  0.39970000  0.54420000  1
  H  H110  1  0.79860000  0.39770000  0.89790000  1
  H  H111  1  0.70140000  0.39770000  0.39790000  1
  H  H112  1  0.35930000  0.39740000  0.91420000  1
  H  H113  1  0.14070000  0.39740000  0.41420000  1
  H  H114  1  0.45960000  0.37340000  0.84200000  1
  H  H115  1  0.04040000  0.37340000  0.34200000  1
  H  H116  1  0.37740000  0.35690000  0.37380000  1
  H  H117  1  0.12260000  0.35690000  0.87380000  1
  H  H118  1  0.39680000  0.35220000  0.55180000  1
  H  H119  1  0.10320000  0.35220000  0.05180000  1
  H  H120  1  0.91260000  0.29990000  0.36000000  1
  H  H121  1  0.58740000  0.29990000  0.86000000  1
  H  H122  1  0.98210000  0.29710000  0.86540000  1
  H  H123  1  0.51790000  0.29710000  0.36540000  1
  H  H124  1  0.77300000  0.29690000  0.38210000  1
  H  H125  1  0.72700000  0.29690000  0.88210000  1
  H  H126  1  0.96790000  0.28880000  0.04640000  1
  H  H127  1  0.53210000  0.28880000  0.54640000  1
  H  H128  1  0.86900000  0.24750000  0.90460000  1
  H  H129  1  0.63100000  0.24750000  0.40460000  1
  H  H130  1  0.86390000  0.23860000  0.99450000  1
  H  H131  1  0.63610000  0.23860000  0.49450000  1
  H  H132  1  0.80030000  0.23250000  0.28070000  1
  H  H133  1  0.69970000  0.23250000  0.78070000  1
  H  H134  1  0.83810000  0.22890000  0.78730000  1
  H  H135  1  0.66190000  0.22890000  0.28730000  1
  H  H136  1  0.35850000  0.22820000  0.92620000  1
  H  H137  1  0.14150000  0.22820000  0.42620000  1
  H  H138  1  0.34490000  0.22520000  0.01630000  1
  H  H139  1  0.15510000  0.22520000  0.51630000  1
  H  H140  1  0.48570000  0.19970000  0.89010000  1
  H  H141  1  0.01430000  0.19970000  0.39010000  1
  H  H142  1  0.94120000  0.17970000  0.30080000  1
  H  H143  1  0.55880000  0.17970000  0.80080000  1
  H  H144  1  0.46360000  0.16390000  0.97640000  1
  H  H145  1  0.03640000  0.16390000  0.47640000  1
  H  H146  1  0.90350000  0.13190000  0.82240000  1
  H  H147  1  0.59650000  0.13190000  0.32240000  1
  H  H148  1  0.47810000  0.09300000  0.28440000  1
  H  H149  1  0.02190000  0.09300000  0.78440000  1
  H  H150  1  0.98440000  0.06400000  0.50280000  1
  H  H151  1  0.51560000  0.06400000  0.00280000  1
  H  H152  1  0.82310000  0.03930000  0.85040000  1
  H  H153  1  0.67690000  0.03930000  0.35040000  1
  H  H154  1  0.31960000  0.01580000  0.13840000  1
  H  H155  1  0.18040000  0.01580000  0.63840000  1
  H  H156  1  0.44530000  0.00210000  0.69220000  1
  H  H157  1  0.05470000  0.00210000  0.19220000  1
  H  H158  1  0.39360000  0.00100000  0.05090000  1
  H  H159  1  0.10640000  0.00100000  0.55090000  1
  C  C160  1  0.98400000  0.99400000  0.78020000  1
  C  C161  1  0.51600000  0.99400000  0.28020000  1
  C  C162  1  0.40020000  0.98600000  0.20140000  1
  C  C163  1  0.09980000  0.98600000  0.70140000  1
  C  C164  1  0.34600000  0.97340000  0.15180000  1
  C  C165  1  0.15400000  0.97340000  0.65180000  1
  C  C166  1  0.41840000  0.96060000  0.06360000  1
  C  C167  1  0.08160000  0.96060000  0.56360000  1
  C  C168  1  0.91100000  0.95270000  0.27230000  1
  C  C169  1  0.58900000  0.95270000  0.77230000  1
  C  C170  1  0.96930000  0.94940000  0.23360000  1
  C  C171  1  0.53070000  0.94940000  0.73360000  1
  C  C172  1  0.40400000  0.93940000  0.11310000  1
  C  C173  1  0.09600000  0.93940000  0.61310000  1
  C  C174  1  0.99380000  0.93150000  0.75350000  1
  C  C175  1  0.50620000  0.93150000  0.25350000  1
  C  C176  1  0.44150000  0.92660000  0.21650000  1
  C  C177  1  0.05850000  0.92660000  0.71650000  1
  C  C178  1  0.29760000  0.92170000  0.66400000  1
  C  C179  1  0.20240000  0.92170000  0.16400000  1
  C  C180  1  0.47160000  0.92040000  0.03120000  1
  C  C181  1  0.02840000  0.92040000  0.53120000  1
  C  C182  1  0.28500000  0.91910000  0.16860000  1
  C  C183  1  0.21500000  0.91910000  0.66860000  1
  C  C184  1  0.86530000  0.88780000  0.28190000  1
  C  C185  1  0.63470000  0.88780000  0.78190000  1
  C  C186  1  0.43660000  0.87680000  0.12940000  1
  C  C187  1  0.06340000  0.87680000  0.62940000  1
  C  C188  1  0.93530000  0.87620000  0.76660000  1
  C  C189  1  0.56470000  0.87620000  0.26660000  1
  C  C190  1  0.34550000  0.86660000  0.68040000  1
  C  C191  1  0.15450000  0.86660000  0.18040000  1
  C  C192  1  0.41510000  0.86290000  0.18600000  1
  C  C193  1  0.08490000  0.86290000  0.68600000  1
  C  C194  1  0.99670000  0.86270000  0.54680000  1
  C  C195  1  0.50330000  0.86270000  0.04680000  1
  C  C196  1  0.32290000  0.86060000  0.18780000  1
  C  C197  1  0.17710000  0.86060000  0.68780000  1
  C  C198  1  0.48850000  0.84040000  0.09760000  1
  C  C199  1  0.01150000  0.84040000  0.59760000  1
  C  C200  1  0.30630000  0.80870000  0.70120000  1
  C  C201  1  0.19370000  0.80870000  0.20120000  1
  C  C202  1  0.27470000  0.80650000  0.20490000  1
  C  C203  1  0.22530000  0.80650000  0.70490000  1
  C  C204  1  0.80600000  0.75030000  0.50360000  1
  C  C205  1  0.69400000  0.75030000  0.00360000  1
  C  C206  1  0.81300000  0.75010000  0.55720000  1
  C  C207  1  0.68700000  0.75010000  0.05720000  1
  C  C208  1  0.40870000  0.73890000  0.52150000  1
  C  C209  1  0.09130000  0.73890000  0.02150000  1
  C  C210  1  0.41230000  0.73480000  0.57440000  1
  C  C211  1  0.08770000  0.73480000  0.07440000  1
  C  C212  1  0.76260000  0.72420000  0.64560000  1
  C  C213  1  0.73740000  0.72420000  0.14560000  1
  C  C214  1  0.75340000  0.71810000  0.58750000  1
  C  C215  1  0.74660000  0.71810000  0.08750000  1
  C  C216  1  0.75740000  0.71590000  0.91970000  1
  C  C217  1  0.74260000  0.71590000  0.41970000  1
  C  C218  1  0.75680000  0.71540000  0.97790000  1
  C  C219  1  0.74320000  0.71540000  0.47790000  1
  C  C220  1  0.47060000  0.71020000  0.49060000  1
  C  C221  1  0.02940000  0.71020000  0.99060000  1
  C  C222  1  0.47960000  0.70470000  0.59750000  1
  C  C223  1  0.02040000  0.70470000  0.09750000  1
  C  C224  1  0.81050000  0.68430000  0.06240000  1
  C  C225  1  0.68950000  0.68430000  0.56240000  1
  C  C226  1  0.81500000  0.68350000  0.00800000  1
  C  C227  1  0.68500000  0.68350000  0.50800000  1
  C  C228  1  0.96570000  0.68080000  0.01500000  1
  C  C229  1  0.53430000  0.68080000  0.51500000  1
  C  C230  1  0.95770000  0.67760000  0.06870000  1
  C  C231  1  0.54230000  0.67760000  0.56870000  1
  C  C232  1  0.30060000  0.66050000  0.12010000  1
  C  C233  1  0.19940000  0.66050000  0.62010000  1
  C  C234  1  0.38270000  0.65910000  0.13350000  1
  C  C235  1  0.11730000  0.65910000  0.63350000  1
  C  C236  1  0.89220000  0.64660000  0.98720000  1
  C  C237  1  0.60780000  0.64660000  0.48720000  1
  C  C238  1  0.88120000  0.64470000  0.08720000  1
  C  C239  1  0.61880000  0.64470000  0.58720000  1
  C  C240  1  0.88910000  0.63000000  0.28090000  1
  C  C241  1  0.61090000  0.63000000  0.78090000  1
  C  C242  1  0.91500000  0.61110000  0.76310000  1
  C  C243  1  0.58500000  0.61110000  0.26310000  1
  C  C244  1  0.25820000  0.59990000  0.11000000  1
  C  C245  1  0.24180000  0.59990000  0.61000000  1
  C  C246  1  0.41920000  0.59600000  0.13700000  1
  C  C247  1  0.08080000  0.59600000  0.63700000  1
  C  C248  1  0.99000000  0.58310000  0.65060000  1
  C  C249  1  0.51000000  0.58310000  0.15060000  1
  C  C250  1  0.88510000  0.57460000  0.00730000  1
  C  C251  1  0.61490000  0.57460000  0.50730000  1
  C  C252  1  0.95000000  0.57230000  0.27620000  1
  C  C253  1  0.87970000  0.57230000  0.06020000  1
  C  C254  1  0.62030000  0.57230000  0.56020000  1
  C  C255  1  0.55000000  0.57230000  0.77620000  1
  C  C256  1  0.98840000  0.56300000  0.22690000  1
  C  C257  1  0.51160000  0.56300000  0.72690000  1
  C  C258  1  0.88650000  0.56050000  0.57860000  1
  C  C259  1  0.61350000  0.56050000  0.07860000  1
  C  C260  1  0.47080000  0.56010000  0.94650000  1
  C  C261  1  0.02920000  0.56010000  0.44650000  1
  C  C262  1  0.37510000  0.55020000  0.44310000  1
  C  C263  1  0.12490000  0.55020000  0.94310000  1
  C  C264  1  0.38140000  0.54870000  0.49660000  1
  C  C265  1  0.11860000  0.54870000  0.99660000  1
  C  C266  1  0.96070000  0.54570000  0.74680000  1
  C  C267  1  0.53930000  0.54570000  0.24680000  1
  C  C268  1  0.40040000  0.54160000  0.97410000  1
  C  C269  1  0.09960000  0.54160000  0.47410000  1
  C  C270  1  0.95070000  0.54100000  0.60580000  1
  C  C271  1  0.54930000  0.54100000  0.10580000  1
  C  C272  1  0.99290000  0.53710000  0.69820000  1
  C  C273  1  0.50710000  0.53710000  0.19820000  1
  C  C274  1  0.29540000  0.53670000  0.11090000  1
  C  C275  1  0.20460000  0.53670000  0.61090000  1
  C  C276  1  0.37800000  0.53500000  0.12440000  1
  C  C277  1  0.12200000  0.53500000  0.62440000  1
  C  C278  1  0.93110000  0.52880000  0.37080000  1
  C  C279  1  0.56890000  0.52880000  0.87080000  1
  C  C280  1  0.96110000  0.52410000  0.31400000  1
  C  C281  1  0.53890000  0.52410000  0.81400000  1
  C  C282  1  0.49570000  0.51800000  0.90530000  1
  C  C283  1  0.00430000  0.51800000  0.40530000  1
  C  C284  1  0.86010000  0.51500000  0.53770000  1
  C  C285  1  0.63990000  0.51500000  0.03770000  1
  C  C286  1  0.88610000  0.51390000  0.97710000  1
  C  C287  1  0.61390000  0.51390000  0.47710000  1
  C  C288  1  0.87880000  0.51100000  0.08600000  1
  C  C289  1  0.62120000  0.51100000  0.58600000  1
  C  C290  1  0.46800000  0.50550000  0.71690000  1
  C  C291  1  0.03200000  0.50550000  0.21690000  1
  C  C292  1  0.96800000  0.49450000  0.78310000  1
  C  C293  1  0.53200000  0.49450000  0.28310000  1
  C  C294  1  0.37880000  0.48900000  0.41400000  1
  C  C295  1  0.12120000  0.48900000  0.91400000  1
  C  C296  1  0.38610000  0.48610000  0.52290000  1
  C  C297  1  0.11390000  0.48610000  0.02290000  1
  C  C298  1  0.36010000  0.48500000  0.96230000  1
  C  C299  1  0.13990000  0.48500000  0.46230000  1
  C  C300  1  0.99570000  0.48200000  0.59470000  1
  C  C301  1  0.50430000  0.48200000  0.09470000  1
  C  C302  1  0.46110000  0.47590000  0.18600000  1
  C  C303  1  0.03890000  0.47590000  0.68600000  1
  C  C304  1  0.43110000  0.47120000  0.12920000  1
  C  C305  1  0.06890000  0.47120000  0.62920000  1
  C  C306  1  0.87800000  0.46500000  0.37560000  1
  C  C307  1  0.62200000  0.46500000  0.87560000  1
  C  C308  1  0.79540000  0.46330000  0.38910000  1
  C  C309  1  0.70460000  0.46330000  0.88910000  1
  C  C310  1  0.49290000  0.46290000  0.80180000  1
  C  C311  1  0.00710000  0.46290000  0.30180000  1
  C  C312  1  0.45070000  0.45900000  0.89420000  1
  C  C313  1  0.04930000  0.45900000  0.39420000  1
  C  C314  1  0.90040000  0.45840000  0.52590000  1
  C  C315  1  0.59960000  0.45840000  0.02590000  1
  C  C316  1  0.46070000  0.45430000  0.75320000  1
  C  C317  1  0.03930000  0.45430000  0.25320000  1
  C  C318  1  0.88140000  0.45130000  0.00340000  1
  C  C319  1  0.61860000  0.45130000  0.50340000  1
  C  C320  1  0.87510000  0.44980000  0.05690000  1
  C  C321  1  0.62490000  0.44980000  0.55690000  1
  C  C322  1  0.97080000  0.43990000  0.55350000  1
  C  C323  1  0.52920000  0.43990000  0.05350000  1
  C  C324  1  0.38650000  0.43950000  0.92140000  1
  C  C325  1  0.11350000  0.43950000  0.42140000  1
  C  C326  1  0.48840000  0.43700000  0.27310000  1
  C  C327  1  0.01160000  0.43700000  0.77310000  1
  C  C328  1  0.45000000  0.42770000  0.22380000  1
  C  C329  1  0.37970000  0.42770000  0.43980000  1
  C  C330  1  0.12030000  0.42770000  0.93980000  1
  C  C331  1  0.05000000  0.42770000  0.72380000  1
  C  C332  1  0.38510000  0.42540000  0.49270000  1
  C  C333  1  0.11490000  0.42540000  0.99270000  1
  C  C334  1  0.49000000  0.41690000  0.84940000  1
  C  C335  1  0.01000000  0.41690000  0.34940000  1
  C  C336  1  0.91920000  0.40400000  0.36300000  1
  C  C337  1  0.58080000  0.40400000  0.86300000  1
  C  C338  1  0.75820000  0.40010000  0.39000000  1
  C  C339  1  0.74180000  0.40010000  0.89000000  1
  C  C340  1  0.41500000  0.38890000  0.73690000  1
  C  C341  1  0.08500000  0.38890000  0.23690000  1
  C  C342  1  0.38910000  0.37000000  0.21910000  1
  C  C343  1  0.11090000  0.37000000  0.71910000  1
  C  C344  1  0.38120000  0.35530000  0.41280000  1
  C  C345  1  0.11880000  0.35530000  0.91280000  1
  C  C346  1  0.39220000  0.35340000  0.51280000  1
  C  C347  1  0.10780000  0.35340000  0.01280000  1
  C  C348  1  0.88270000  0.34090000  0.36650000  1
  C  C349  1  0.61730000  0.34090000  0.86650000  1
  C  C350  1  0.80060000  0.33950000  0.37990000  1
  C  C351  1  0.69940000  0.33950000  0.87990000  1
  C  C352  1  0.45770000  0.32240000  0.43130000  1
  C  C353  1  0.04230000  0.32240000  0.93130000  1
  C  C354  1  0.46570000  0.31920000  0.48500000  1
  C  C355  1  0.03430000  0.31920000  0.98500000  1
  C  C356  1  0.31500000  0.31650000  0.49200000  1
  C  C357  1  0.18500000  0.31650000  0.99200000  1
  C  C358  1  0.31050000  0.31570000  0.43760000  1
  C  C359  1  0.18950000  0.31570000  0.93760000  1
  C  C360  1  0.97960000  0.29530000  0.90250000  1
  C  C361  1  0.52040000  0.29530000  0.40250000  1
  C  C362  1  0.97060000  0.28980000  0.00940000  1
  C  C363  1  0.52940000  0.28980000  0.50940000  1
  C  C364  1  0.25680000  0.28460000  0.52210000  1
  C  C365  1  0.24320000  0.28460000  0.02210000  1
  C  C366  1  0.25740000  0.28410000  0.58030000  1
  C  C367  1  0.24260000  0.28410000  0.08030000  1
  C  C368  1  0.25340000  0.28190000  0.91250000  1
  C  C369  1  0.24660000  0.28190000  0.41250000  1
  C  C370  1  0.26260000  0.27580000  0.85440000  1
  C  C371  1  0.23740000  0.27580000  0.35440000  1
  C  C372  1  0.91230000  0.26520000  0.92560000  1
  C  C373  1  0.58770000  0.26520000  0.42560000  1
  C  C374  1  0.90870000  0.26110000  0.97850000  1
  C  C375  1  0.59130000  0.26110000  0.47850000  1
  C  C376  1  0.31300000  0.24990000  0.94280000  1
  C  C377  1  0.18700000  0.24990000  0.44280000  1
  C  C378  1  0.30600000  0.24970000  0.99640000  1
  C  C379  1  0.19400000  0.24970000  0.49640000  1
  C  C380  1  0.77470000  0.19350000  0.29510000  1
  C  C381  1  0.72530000  0.19350000  0.79510000  1
  C  C382  1  0.80630000  0.19130000  0.79880000  1
  C  C383  1  0.69370000  0.19130000  0.29880000  1
  C  C384  1  0.98850000  0.15960000  0.40240000  1
  C  C385  1  0.51150000  0.15960000  0.90240000  1
  C  C386  1  0.82290000  0.13940000  0.31220000  1
  C  C387  1  0.67710000  0.13940000  0.81220000  1
  C  C388  1  0.49670000  0.13730000  0.95320000  1
  C  C389  1  0.00330000  0.13730000  0.45320000  1
  C  C390  1  0.91510000  0.13710000  0.31400000  1
  C  C391  1  0.58490000  0.13710000  0.81400000  1
  C  C392  1  0.84550000  0.13340000  0.81960000  1
  C  C393  1  0.65450000  0.13340000  0.31960000  1
  C  C394  1  0.43530000  0.12380000  0.73340000  1
  C  C395  1  0.06470000  0.12380000  0.23340000  1
  C  C396  1  0.93660000  0.12320000  0.37060000  1
  C  C397  1  0.56340000  0.12320000  0.87060000  1
  C  C398  1  0.36530000  0.11220000  0.21810000  1
  C  C399  1  0.13470000  0.11220000  0.71810000  1
  C  C400  1  0.78500000  0.08090000  0.33140000  1
  C  C401  1  0.71500000  0.08090000  0.83140000  1
  C  C402  1  0.97160000  0.07960000  0.46880000  1
  C  C403  1  0.52840000  0.07960000  0.96880000  1
  C  C404  1  0.79760000  0.07830000  0.83600000  1
  C  C405  1  0.70240000  0.07830000  0.33600000  1
  C  C406  1  0.94150000  0.07340000  0.28350000  1
  C  C407  1  0.55850000  0.07340000  0.78350000  1
  C  C408  1  0.49380000  0.06850000  0.74650000  1
  C  C409  1  0.00620000  0.06850000  0.24650000  1
  C  C410  1  0.90400000  0.06060000  0.38690000  1
  C  C411  1  0.59600000  0.06060000  0.88690000  1
  C  C412  1  0.46930000  0.05060000  0.26640000  1
  C  C413  1  0.03070000  0.05060000  0.76640000  1
  C  C414  1  0.41100000  0.04730000  0.22770000  1
  C  C415  1  0.08900000  0.04730000  0.72770000  1
  C  C416  1  0.91840000  0.03940000  0.43640000  1
  C  C417  1  0.58160000  0.03940000  0.93640000  1
  C  C418  1  0.84600000  0.02660000  0.34820000  1
  C  C419  1  0.65400000  0.02660000  0.84820000  1
  C  C420  1  0.90020000  0.01400000  0.29860000  1
  C  C421  1  0.59980000  0.01400000  0.79860000  1
  C  C422  1  0.48400000  0.00600000  0.71980000  1
  C  C423  1  0.01600000  0.00600000  0.21980000  1
  O  O424  1  0.80700000  0.88810000  0.31350000  1
  O  O425  1  0.69300000  0.88810000  0.81350000  1
  O  O426  1  0.87790000  0.88760000  0.79780000  1
  O  O427  1  0.62210000  0.88760000  0.29780000  1
  O  O428  1  0.89080000  0.83740000  0.25570000  1
  O  O429  1  0.60920000  0.83740000  0.75570000  1
  O  O430  1  0.94510000  0.81940000  0.74170000  1
  O  O431  1  0.55490000  0.81940000  0.24170000  1
  O  O432  1  0.77130000  0.76570000  0.39620000  1
  O  O433  1  0.72870000  0.76570000  0.89620000  1
  O  O434  1  0.77710000  0.75130000  0.78590000  1
  O  O435  1  0.72290000  0.75130000  0.28590000  1
  O  O436  1  0.83250000  0.73010000  0.66430000  1
  O  O437  1  0.66750000  0.73010000  0.16430000  1
  O  O438  1  0.80340000  0.72660000  0.17080000  1
  O  O439  1  0.69660000  0.72660000  0.67080000  1
  O  O440  1  0.90430000  0.68500000  0.25920000  1
  O  O441  1  0.59570000  0.68500000  0.75920000  1
  O  O442  1  0.93150000  0.66480000  0.74210000  1
  O  O443  1  0.56850000  0.66480000  0.24210000  1
  O  O444  1  0.78160000  0.66070000  0.89720000  1
  O  O445  1  0.71840000  0.66070000  0.39720000  1
  O  O446  1  0.82730000  0.61460000  0.30590000  1
  O  O447  1  0.67270000  0.61460000  0.80590000  1
  O  O448  1  0.86040000  0.60170000  0.79620000  1
  O  O449  1  0.63960000  0.60170000  0.29620000  1
  O  O450  1  0.36040000  0.39830000  0.70380000  1
  O  O451  1  0.13960000  0.39830000  0.20380000  1
  O  O452  1  0.32730000  0.38540000  0.19410000  1
  O  O453  1  0.17270000  0.38540000  0.69410000  1
  O  O454  1  0.28160000  0.33930000  0.60280000  1
  O  O455  1  0.21840000  0.33930000  0.10280000  1
  O  O456  1  0.43150000  0.33520000  0.75790000  1
  O  O457  1  0.06850000  0.33520000  0.25790000  1
  O  O458  1  0.40430000  0.31500000  0.24080000  1
  O  O459  1  0.09570000  0.31500000  0.74080000  1
  O  O460  1  0.30340000  0.27340000  0.32920000  1
  O  O461  1  0.19660000  0.27340000  0.82920000  1
  O  O462  1  0.33250000  0.26990000  0.83570000  1
  O  O463  1  0.16750000  0.26990000  0.33570000  1
  O  O464  1  0.27710000  0.24870000  0.71410000  1
  O  O465  1  0.22290000  0.24870000  0.21410000  1
  O  O466  1  0.27130000  0.23430000  0.10380000  1
  O  O467  1  0.22870000  0.23430000  0.60380000  1
  O  O468  1  0.44510000  0.18060000  0.75830000  1
  O  O469  1  0.05490000  0.18060000  0.25830000  1
  O  O470  1  0.39080000  0.16260000  0.24430000  1
  O  O471  1  0.10920000  0.16260000  0.74430000  1
  O  O472  1  0.37790000  0.11240000  0.70220000  1
  O  O473  1  0.12210000  0.11240000  0.20220000  1
  O  O474  1  0.30700000  0.11190000  0.18650000  1
  O  O475  1  0.19300000  0.11190000  0.68650000  1
