# generated using pymatgen
data_LaC17(NO2)3
_symmetry_space_group_name_H-M   'P 1'
_cell_length_a   13.17890000
_cell_length_b   15.21330000
_cell_length_c   17.76942895
_cell_angle_alpha   115.34546278
_cell_angle_beta   94.74884999
_cell_angle_gamma   90.00000000
_symmetry_Int_Tables_number   1
_chemical_formula_structural   LaC17(NO2)3
_chemical_formula_sum   'La4 C68 N12 O24'
_cell_volume   3206.20420826
_cell_formula_units_Z   4
loop_
 _symmetry_equiv_pos_site_id
 _symmetry_equiv_pos_as_xyz
  1  'x, y, z'
loop_
 _atom_site_type_symbol
 _atom_site_label
 _atom_site_symmetry_multiplicity
 _atom_site_fract_x
 _atom_site_fract_y
 _atom_site_fract_z
 _atom_site_occupancy
  C  C0  1  0.38000000  0.70126000  0.99844000  1
  C  C1  1  0.88000000  0.29718000  0.99844000  1
  C  C2  1  0.12107000  0.60755000  0.99280000  1
  C  C3  1  0.62107000  0.38525000  0.99280000  1
  C  C4  1  0.40440000  0.52877000  0.94206000  1
  C  C5  1  0.90440000  0.41329000  0.94206000  1
  C  C6  1  0.40650000  0.70178000  0.92454000  1
  C  C7  1  0.90650000  0.22276000  0.92454000  1
  C  C8  1  0.14667000  0.53205000  0.91606000  1
  C  C9  1  0.64667000  0.38401000  0.91606000  1
  C  C10  1  0.43100000  0.52928000  0.86816000  1
  C  C11  1  0.93100000  0.33888000  0.86816000  1
  C  C12  1  0.43200000  0.61579000  0.85938000  1
  C  C13  1  0.93200000  0.24359000  0.85938000  1
  C  C14  1  0.15470000  0.52705000  0.83514000  1
  C  C15  1  0.65470000  0.30809000  0.83514000  1
  C  C16  1  0.46450000  0.61590000  0.78100000  1
  C  C17  1  0.96450000  0.16510000  0.78100000  1
  C  C18  1  0.18560000  0.38865000  0.69990000  1
  C  C19  1  0.68560000  0.31125000  0.69990000  1
  C  C20  1  0.24530000  0.43420000  0.66500000  1
  C  C21  1  0.74530000  0.23080000  0.66500000  1
  C  C22  1  0.63580000  0.34968000  0.64936000  1
  C  C23  1  0.13580000  0.29968000  0.64936000  1
  C  C24  1  0.25520000  0.39068000  0.57956000  1
  C  C25  1  0.75520000  0.18888000  0.57956000  1
  C  C26  1  0.64570000  0.30776000  0.56392000  1
  C  C27  1  0.14570000  0.25616000  0.56392000  1
  C  C28  1  0.32280000  0.43810000  0.54180000  1
  C  C29  1  0.82280000  0.10370000  0.54180000  1
  C  C30  1  0.20540000  0.30171000  0.52902000  1
  C  C31  1  0.70540000  0.22731000  0.52902000  1
  C  C32  1  0.59180000  0.34680000  0.50800000  1
  C  C33  1  0.09180000  0.16120000  0.50800000  1
  C  C34  1  0.40820000  0.65320000  0.49200000  1
  C  C35  1  0.90820000  0.83880000  0.49200000  1
  C  C36  1  0.79460000  0.69829000  0.47098000  1
  C  C37  1  0.29460000  0.77269000  0.47098000  1
  C  C38  1  0.67720000  0.56190000  0.45820000  1
  C  C39  1  0.17720000  0.89630000  0.45820000  1
  C  C40  1  0.35430000  0.69224000  0.43608000  1
  C  C41  1  0.85430000  0.74384000  0.43608000  1
  C  C42  1  0.74480000  0.60932000  0.42044000  1
  C  C43  1  0.24480000  0.81112000  0.42044000  1
  C  C44  1  0.36420000  0.65032000  0.35064000  1
  C  C45  1  0.86420000  0.70032000  0.35064000  1
  C  C46  1  0.75470000  0.56580000  0.33500000  1
  C  C47  1  0.25470000  0.76920000  0.33500000  1
  C  C48  1  0.81440000  0.61135000  0.30010000  1
  C  C49  1  0.31440000  0.68875000  0.30010000  1
  C  C50  1  0.53550000  0.38410000  0.21900000  1
  C  C51  1  0.03550000  0.83490000  0.21900000  1
  C  C52  1  0.84530000  0.47295000  0.16486000  1
  C  C53  1  0.34530000  0.69191000  0.16486000  1
  C  C54  1  0.56800000  0.38421000  0.14062000  1
  C  C55  1  0.06800000  0.75641000  0.14062000  1
  C  C56  1  0.56900000  0.47072000  0.13184000  1
  C  C57  1  0.06900000  0.66112000  0.13184000  1
  C  C58  1  0.85333000  0.46795000  0.08394000  1
  C  C59  1  0.35333000  0.61599000  0.08394000  1
  C  C60  1  0.59350000  0.29822000  0.07546000  1
  C  C61  1  0.09350000  0.77724000  0.07546000  1
  C  C62  1  0.59560000  0.47123000  0.05794000  1
  C  C63  1  0.09560000  0.58671000  0.05794000  1
  C  C64  1  0.87893000  0.39245000  0.00720000  1
  C  C65  1  0.37893000  0.61475000  0.00720000  1
  C  C66  1  0.62000000  0.29874000  0.00156000  1
  C  C67  1  0.12000000  0.70282000  0.00156000  1
  La  La68  1  0.52861000  0.60540000  0.62376000  1
  La  La69  1  0.02861000  0.01836000  0.62376000  1
  La  La70  1  0.47139000  0.39460000  0.37624000  1
  La  La71  1  0.97139000  0.98164000  0.37624000  1
  N  N72  1  0.66240000  0.47413000  0.91194000  1
  N  N73  1  0.16240000  0.43781000  0.91194000  1
  N  N74  1  0.68010000  0.45389000  0.82844000  1
  N  N75  1  0.18010000  0.37455000  0.82844000  1
  N  N76  1  0.17530000  0.42969000  0.78098000  1
  N  N77  1  0.67530000  0.35129000  0.78098000  1
  N  N78  1  0.82470000  0.57031000  0.21902000  1
  N  N79  1  0.32470000  0.64871000  0.21902000  1
  N  N80  1  0.31990000  0.54611000  0.17156000  1
  N  N81  1  0.81990000  0.62545000  0.17156000  1
  N  N82  1  0.33760000  0.52587000  0.08806000  1
  N  N83  1  0.83760000  0.56219000  0.08806000  1
  O  O84  1  0.45830000  0.69160000  0.76880000  1
  O  O85  1  0.95830000  0.07720000  0.76880000  1
  O  O86  1  0.49720000  0.53693000  0.72746000  1
  O  O87  1  0.99720000  0.19053000  0.72746000  1
  O  O88  1  0.35550000  0.52378000  0.58776000  1
  O  O89  1  0.85550000  0.06398000  0.58776000  1
  O  O90  1  0.41720000  0.70526000  0.56892000  1
  O  O91  1  0.91720000  0.86366000  0.56892000  1
  O  O92  1  0.55340000  0.42959000  0.53938000  1
  O  O93  1  0.05340000  0.10979000  0.53938000  1
  O  O94  1  0.65850000  0.61094000  0.53148000  1
  O  O95  1  0.15850000  0.92054000  0.53148000  1
  O  O96  1  0.34150000  0.38906000  0.46852000  1
  O  O97  1  0.84150000  0.07946000  0.46852000  1
  O  O98  1  0.44660000  0.57041000  0.46062000  1
  O  O99  1  0.94660000  0.89021000  0.46062000  1
  O  O100  1  0.58280000  0.29474000  0.43108000  1
  O  O101  1  0.08280000  0.13634000  0.43108000  1
  O  O102  1  0.64450000  0.47622000  0.41224000  1
  O  O103  1  0.14450000  0.93602000  0.41224000  1
  O  O104  1  0.50280000  0.46307000  0.27254000  1
  O  O105  1  0.00280000  0.80947000  0.27254000  1
  O  O106  1  0.54170000  0.30840000  0.23120000  1
  O  O107  1  0.04170000  0.92280000  0.23120000  1
