# generated using pymatgen
data_BaCuH4C12(SO4)2
_symmetry_space_group_name_H-M   'P 1'
_cell_length_a   12.72100000
_cell_length_b   13.82000000
_cell_length_c   14.86600000
_cell_angle_alpha   90.00000000
_cell_angle_beta   90.00000000
_cell_angle_gamma   90.00000000
_symmetry_Int_Tables_number   1
_chemical_formula_structural   BaCuH4C12(SO4)2
_chemical_formula_sum   'Ba4 Cu4 H16 C48 S8 O32'
_cell_volume   2613.50553452
_cell_formula_units_Z   4
loop_
 _symmetry_equiv_pos_site_id
 _symmetry_equiv_pos_as_xyz
  1  'x, y, z'
loop_
 _atom_site_type_symbol
 _atom_site_label
 _atom_site_symmetry_multiplicity
 _atom_site_fract_x
 _atom_site_fract_y
 _atom_site_fract_z
 _atom_site_occupancy
  Ba  Ba0  1  0.20492000  0.80103000  0.91992000  1
  Ba  Ba1  1  0.29508000  0.19897000  0.41992000  1
  Ba  Ba2  1  0.70492000  0.69897000  0.08008000  1
  Ba  Ba3  1  0.79508000  0.30103000  0.58008000  1
  Cu  Cu4  1  0.00012000  0.63751000  0.98507000  1
  Cu  Cu5  1  0.49988000  0.36249000  0.48507000  1
  Cu  Cu6  1  0.50012000  0.86249000  0.01493000  1
  Cu  Cu7  1  0.99988000  0.13751000  0.51493000  1
  H  H8  1  0.21000000  0.82260000  0.16890000  1
  H  H9  1  0.21910000  0.48300000  0.25160000  1
  H  H10  1  0.22040000  0.60900000  0.13570000  1
  H  H11  1  0.24830000  0.93870000  0.28520000  1
  H  H12  1  0.25170000  0.06130000  0.78520000  1
  H  H13  1  0.27960000  0.39100000  0.63570000  1
  H  H14  1  0.28090000  0.51700000  0.75160000  1
  H  H15  1  0.29000000  0.17740000  0.66890000  1
  H  H16  1  0.71000000  0.67740000  0.83110000  1
  H  H17  1  0.71910000  0.01700000  0.74840000  1
  H  H18  1  0.72040000  0.89100000  0.86430000  1
  H  H19  1  0.74830000  0.56130000  0.71480000  1
  H  H20  1  0.75170000  0.43870000  0.21480000  1
  H  H21  1  0.77960000  0.10900000  0.36430000  1
  H  H22  1  0.78090000  0.98300000  0.24840000  1
  H  H23  1  0.79000000  0.32260000  0.33110000  1
  C  C24  1  0.00030000  0.76380000  0.13320000  1
  C  C25  1  0.05530000  0.82780000  0.19990000  1
  C  C26  1  0.08610000  0.01360000  0.39960000  1
  C  C27  1  0.09410000  0.94170000  0.32190000  1
  C  C28  1  0.09840000  0.55080000  0.85570000  1
  C  C29  1  0.10220000  0.27650000  0.60330000  1
  C  C30  1  0.12660000  0.48610000  0.77890000  1
  C  C31  1  0.12930000  0.35860000  0.66590000  1
  C  C32  1  0.15900000  0.84930000  0.20620000  1
  C  C33  1  0.18120000  0.91510000  0.27370000  1
  C  C34  1  0.22200000  0.40550000  0.67170000  1
  C  C35  1  0.22290000  0.47880000  0.73780000  1
  C  C36  1  0.27710000  0.52120000  0.23780000  1
  C  C37  1  0.27800000  0.59450000  0.17170000  1
  C  C38  1  0.31880000  0.08490000  0.77370000  1
  C  C39  1  0.34100000  0.15070000  0.70620000  1
  C  C40  1  0.37070000  0.64140000  0.16590000  1
  C  C41  1  0.37340000  0.51390000  0.27890000  1
  C  C42  1  0.39780000  0.72350000  0.10330000  1
  C  C43  1  0.40160000  0.44920000  0.35570000  1
  C  C44  1  0.40590000  0.05830000  0.82190000  1
  C  C45  1  0.41390000  0.98640000  0.89960000  1
  C  C46  1  0.44470000  0.17220000  0.69990000  1
  C  C47  1  0.49970000  0.23620000  0.63320000  1
  C  C48  1  0.50030000  0.73620000  0.86680000  1
  C  C49  1  0.55530000  0.67220000  0.80010000  1
  C  C50  1  0.58610000  0.48640000  0.60040000  1
  C  C51  1  0.59410000  0.55830000  0.67810000  1
  C  C52  1  0.59840000  0.94920000  0.14430000  1
  C  C53  1  0.60220000  0.22350000  0.39670000  1
  C  C54  1  0.62660000  0.01390000  0.22110000  1
  C  C55  1  0.62930000  0.14140000  0.33410000  1
  C  C56  1  0.65900000  0.65070000  0.79380000  1
  C  C57  1  0.68120000  0.58490000  0.72630000  1
  C  C58  1  0.72200000  0.09450000  0.32830000  1
  C  C59  1  0.72290000  0.02120000  0.26220000  1
  C  C60  1  0.77710000  0.97880000  0.76220000  1
  C  C61  1  0.77800000  0.90550000  0.82830000  1
  C  C62  1  0.81880000  0.41510000  0.22630000  1
  C  C63  1  0.84100000  0.34930000  0.29380000  1
  C  C64  1  0.87070000  0.85860000  0.83410000  1
  C  C65  1  0.87340000  0.98610000  0.72110000  1
  C  C66  1  0.89780000  0.77650000  0.89670000  1
  C  C67  1  0.90160000  0.05080000  0.64430000  1
  C  C68  1  0.90590000  0.44170000  0.17810000  1
  C  C69  1  0.91390000  0.51360000  0.10040000  1
  C  C70  1  0.94470000  0.32780000  0.30010000  1
  C  C71  1  0.99970000  0.26380000  0.36680000  1
  S  S72  1  0.01765000  0.38642000  0.21947000  1
  S  S73  1  0.03894000  0.40420000  0.73913000  1
  S  S74  1  0.46106000  0.59580000  0.23913000  1
  S  S75  1  0.48235000  0.61358000  0.71947000  1
  S  S76  1  0.51765000  0.11358000  0.78053000  1
  S  S77  1  0.53894000  0.09580000  0.26087000  1
  S  S78  1  0.96106000  0.90420000  0.76087000  1
  S  S79  1  0.98235000  0.88642000  0.28053000  1
  O  O80  1  0.00440000  0.53530000  0.07500000  1
  O  O81  1  0.00550000  0.54360000  0.88600000  1
  O  O82  1  0.00890000  0.24680000  0.60410000  1
  O  O83  1  0.05780000  0.73120000  0.07050000  1
  O  O84  1  0.09530000  0.24850000  0.35570000  1
  O  O85  1  0.16640000  0.60770000  0.88680000  1
  O  O86  1  0.16970000  0.04370000  0.42940000  1
  O  O87  1  0.17240000  0.24320000  0.55540000  1
  O  O88  1  0.32760000  0.75680000  0.05540000  1
  O  O89  1  0.33030000  0.95630000  0.92940000  1
  O  O90  1  0.33360000  0.39230000  0.38680000  1
  O  O91  1  0.40470000  0.75150000  0.85570000  1
  O  O92  1  0.44220000  0.26880000  0.57050000  1
  O  O93  1  0.49110000  0.75320000  0.10410000  1
  O  O94  1  0.49450000  0.45640000  0.38600000  1
  O  O95  1  0.49560000  0.46470000  0.57500000  1
  O  O96  1  0.50440000  0.96470000  0.92500000  1
  O  O97  1  0.50550000  0.95640000  0.11400000  1
  O  O98  1  0.50890000  0.25320000  0.39590000  1
  O  O99  1  0.55780000  0.76880000  0.92950000  1
  O  O100  1  0.59530000  0.25150000  0.64430000  1
  O  O101  1  0.66640000  0.89230000  0.11320000  1
  O  O102  1  0.66970000  0.45630000  0.57060000  1
  O  O103  1  0.67240000  0.25680000  0.44460000  1
  O  O104  1  0.82760000  0.74320000  0.94460000  1
  O  O105  1  0.83030000  0.54370000  0.07060000  1
  O  O106  1  0.83360000  0.10770000  0.61320000  1
  O  O107  1  0.90470000  0.74850000  0.14430000  1
  O  O108  1  0.94220000  0.23120000  0.42950000  1
  O  O109  1  0.99110000  0.74680000  0.89590000  1
  O  O110  1  0.99450000  0.04360000  0.61400000  1
  O  O111  1  0.99560000  0.03530000  0.42500000  1
