# generated using pymatgen
data_GdP2H5C2O7
_symmetry_space_group_name_H-M   'P 1'
_cell_length_a   8.31300000
_cell_length_b   10.32400000
_cell_length_c   10.53400000
_cell_angle_alpha   90.00000000
_cell_angle_beta   90.00000000
_cell_angle_gamma   90.00000000
_symmetry_Int_Tables_number   1
_chemical_formula_structural   GdP2H5C2O7
_chemical_formula_sum   'Gd4 P8 H20 C8 O28'
_cell_volume   904.06382201
_cell_formula_units_Z   4
loop_
 _symmetry_equiv_pos_site_id
 _symmetry_equiv_pos_as_xyz
  1  'x, y, z'
loop_
 _atom_site_type_symbol
 _atom_site_label
 _atom_site_symmetry_multiplicity
 _atom_site_fract_x
 _atom_site_fract_y
 _atom_site_fract_z
 _atom_site_occupancy
  Gd  Gd0  1  0.75000000  0.86026000  0.62052000  1
  Gd  Gd1  1  0.25000000  0.63974000  0.12052000  1
  Gd  Gd2  1  0.75000000  0.36026000  0.87948000  1
  Gd  Gd3  1  0.25000000  0.13974000  0.37948000  1
  P  P4  1  0.43280000  0.83240000  0.37360000  1
  P  P5  1  0.06720000  0.83240000  0.37360000  1
  P  P6  1  0.93280000  0.66760000  0.87360000  1
  P  P7  1  0.56720000  0.66760000  0.87360000  1
  P  P8  1  0.43280000  0.33240000  0.12640000  1
  P  P9  1  0.06720000  0.33240000  0.12640000  1
  P  P10  1  0.93280000  0.16760000  0.62640000  1
  P  P11  1  0.56720000  0.16760000  0.62640000  1
  H  H12  1  0.31800000  0.99200000  0.51510000  1
  H  H13  1  0.18200000  0.99200000  0.51510000  1
  H  H14  1  0.75000000  0.87290000  0.99750000  1
  H  H15  1  0.84230000  0.79910000  0.10700000  1
  H  H16  1  0.65770000  0.79910000  0.10700000  1
  H  H17  1  0.34230000  0.70090000  0.60700000  1
  H  H18  1  0.15770000  0.70090000  0.60700000  1
  H  H19  1  0.25000000  0.62710000  0.49750000  1
  H  H20  1  0.81800000  0.50800000  0.01510000  1
  H  H21  1  0.68200000  0.50800000  0.01510000  1
  H  H22  1  0.31800000  0.49200000  0.98490000  1
  H  H23  1  0.18200000  0.49200000  0.98490000  1
  H  H24  1  0.75000000  0.37290000  0.50250000  1
  H  H25  1  0.84230000  0.29910000  0.39300000  1
  H  H26  1  0.65770000  0.29910000  0.39300000  1
  H  H27  1  0.34230000  0.20090000  0.89300000  1
  H  H28  1  0.15770000  0.20090000  0.89300000  1
  H  H29  1  0.25000000  0.12710000  0.00250000  1
  H  H30  1  0.81800000  0.00800000  0.48490000  1
  H  H31  1  0.68200000  0.00800000  0.48490000  1
  C  C32  1  0.25000000  0.82480000  0.47010000  1
  C  C33  1  0.75000000  0.79900000  0.05200000  1
  C  C34  1  0.25000000  0.70100000  0.55200000  1
  C  C35  1  0.75000000  0.67520000  0.97010000  1
  C  C36  1  0.25000000  0.32480000  0.02990000  1
  C  C37  1  0.75000000  0.29900000  0.44800000  1
  C  C38  1  0.25000000  0.20100000  0.94800000  1
  C  C39  1  0.75000000  0.17520000  0.52990000  1
  O  O40  1  0.43080000  0.96900000  0.31780000  1
  O  O41  1  0.06920000  0.96900000  0.31780000  1
  O  O42  1  0.25000000  0.94220000  0.54360000  1
  O  O43  1  0.93010000  0.81160000  0.46270000  1
  O  O44  1  0.56990000  0.81160000  0.46270000  1
  O  O45  1  0.92610000  0.77030000  0.77130000  1
  O  O46  1  0.57390000  0.77030000  0.77130000  1
  O  O47  1  0.42610000  0.72970000  0.27130000  1
  O  O48  1  0.07390000  0.72970000  0.27130000  1
  O  O49  1  0.43010000  0.68840000  0.96270000  1
  O  O50  1  0.06990000  0.68840000  0.96270000  1
  O  O51  1  0.75000000  0.55780000  0.04360000  1
  O  O52  1  0.93080000  0.53100000  0.81780000  1
  O  O53  1  0.56920000  0.53100000  0.81780000  1
  O  O54  1  0.43080000  0.46900000  0.18220000  1
  O  O55  1  0.06920000  0.46900000  0.18220000  1
  O  O56  1  0.25000000  0.44220000  0.95640000  1
  O  O57  1  0.93010000  0.31160000  0.03730000  1
  O  O58  1  0.56990000  0.31160000  0.03730000  1
  O  O59  1  0.92610000  0.27030000  0.72870000  1
  O  O60  1  0.57390000  0.27030000  0.72870000  1
  O  O61  1  0.42610000  0.22970000  0.22870000  1
  O  O62  1  0.07390000  0.22970000  0.22870000  1
  O  O63  1  0.43010000  0.18840000  0.53730000  1
  O  O64  1  0.06990000  0.18840000  0.53730000  1
  O  O65  1  0.75000000  0.05780000  0.45640000  1
  O  O66  1  0.93080000  0.03100000  0.68220000  1
  O  O67  1  0.56920000  0.03100000  0.68220000  1
