# generated using pymatgen
data_CuH24C29(NO2)4
_symmetry_space_group_name_H-M   'P 1'
_cell_length_a   15.77800000
_cell_length_b   19.44600000
_cell_length_c   25.67700000
_cell_angle_alpha   90.00000000
_cell_angle_beta   90.00000000
_cell_angle_gamma   90.00000000
_symmetry_Int_Tables_number   1
_chemical_formula_structural   CuH24C29(NO2)4
_chemical_formula_sum   'Cu8 H192 C232 N32 O64'
_cell_volume   7878.19115488
_cell_formula_units_Z   8
loop_
 _symmetry_equiv_pos_site_id
 _symmetry_equiv_pos_as_xyz
  1  'x, y, z'
loop_
 _atom_site_type_symbol
 _atom_site_label
 _atom_site_symmetry_multiplicity
 _atom_site_fract_x
 _atom_site_fract_y
 _atom_site_fract_z
 _atom_site_occupancy
  Cu  Cu0  1  0.00936000  0.24403000  0.99637000  1
  Cu  Cu1  1  0.00936000  0.25597000  0.49637000  1
  Cu  Cu2  1  0.49064000  0.74403000  0.49637000  1
  Cu  Cu3  1  0.49064000  0.75597000  0.99637000  1
  Cu  Cu4  1  0.50936000  0.24403000  0.00363000  1
  Cu  Cu5  1  0.50936000  0.25597000  0.50363000  1
  Cu  Cu6  1  0.99064000  0.74403000  0.50363000  1
  Cu  Cu7  1  0.99064000  0.75597000  0.00363000  1
  H  H8  1  0.00250000  0.20370000  0.11090000  1
  H  H9  1  0.00250000  0.29630000  0.61090000  1
  H  H10  1  0.00570000  0.13540000  0.41760000  1
  H  H11  1  0.00570000  0.36460000  0.91760000  1
  H  H12  1  0.02340000  0.50800000  0.44170000  1
  H  H13  1  0.02340000  0.99200000  0.94170000  1
  H  H14  1  0.05270000  0.72550000  0.61030000  1
  H  H15  1  0.05270000  0.77450000  0.11030000  1
  H  H16  1  0.06200000  0.09200000  0.99540000  1
  H  H17  1  0.06200000  0.40800000  0.49540000  1
  H  H18  1  0.07810000  0.56080000  0.88470000  1
  H  H19  1  0.07810000  0.93920000  0.38470000  1
  H  H20  1  0.09640000  0.64370000  0.33200000  1
  H  H21  1  0.09640000  0.85630000  0.83200000  1
  H  H22  1  0.09780000  0.62910000  0.66400000  1
  H  H23  1  0.09780000  0.87090000  0.16400000  1
  H  H24  1  0.10110000  0.65400000  0.94500000  1
  H  H25  1  0.10110000  0.84600000  0.44500000  1
  H  H26  1  0.10140000  0.09170000  0.35170000  1
  H  H27  1  0.10140000  0.40830000  0.85170000  1
  H  H28  1  0.12930000  0.55050000  0.23290000  1
  H  H29  1  0.12930000  0.94950000  0.73290000  1
  H  H30  1  0.14180000  0.06810000  0.22660000  1
  H  H31  1  0.14180000  0.43190000  0.72660000  1
  H  H32  1  0.15050000  0.52840000  0.79010000  1
  H  H33  1  0.15050000  0.97160000  0.29010000  1
  H  H34  1  0.15570000  0.67200000  0.51730000  1
  H  H35  1  0.15570000  0.82800000  0.01730000  1
  H  H36  1  0.15770000  0.03300000  0.79900000  1
  H  H37  1  0.15770000  0.46700000  0.29900000  1
  H  H38  1  0.15780000  0.18940000  0.54400000  1
  H  H39  1  0.15780000  0.31060000  0.04400000  1
  H  H40  1  0.17780000  0.59270000  0.74520000  1
  H  H41  1  0.17780000  0.90730000  0.24520000  1
  H  H42  1  0.18260000  0.09550000  0.75240000  1
  H  H43  1  0.18260000  0.40450000  0.25240000  1
  H  H44  1  0.18500000  0.22310000  0.96520000  1
  H  H45  1  0.18500000  0.27690000  0.46520000  1
  H  H46  1  0.18800000  0.09930000  0.60710000  1
  H  H47  1  0.18800000  0.40070000  0.10710000  1
  H  H48  1  0.20710000  0.57780000  0.18870000  1
  H  H49  1  0.20710000  0.92220000  0.68870000  1
  H  H50  1  0.21680000  0.74050000  0.89780000  1
  H  H51  1  0.21680000  0.75950000  0.39780000  1
  H  H52  1  0.21720000  0.07320000  0.17660000  1
  H  H53  1  0.21720000  0.42680000  0.67660000  1
  H  H54  1  0.24510000  0.10560000  0.96400000  1
  H  H55  1  0.24510000  0.39440000  0.46400000  1
  H  H56  1  0.25490000  0.60560000  0.46400000  1
  H  H57  1  0.25490000  0.89440000  0.96400000  1
  H  H58  1  0.28280000  0.57320000  0.67660000  1
  H  H59  1  0.28280000  0.92680000  0.17660000  1
  H  H60  1  0.28320000  0.24050000  0.39780000  1
  H  H61  1  0.28320000  0.25950000  0.89780000  1
  H  H62  1  0.29290000  0.07780000  0.68870000  1
  H  H63  1  0.29290000  0.42220000  0.18870000  1
  H  H64  1  0.31200000  0.59930000  0.10710000  1
  H  H65  1  0.31200000  0.90070000  0.60710000  1
  H  H66  1  0.31500000  0.72310000  0.46520000  1
  H  H67  1  0.31500000  0.77690000  0.96520000  1
  H  H68  1  0.31740000  0.59550000  0.25240000  1
  H  H69  1  0.31740000  0.90450000  0.75240000  1
  H  H70  1  0.32220000  0.09270000  0.24520000  1
  H  H71  1  0.32220000  0.40730000  0.74520000  1
  H  H72  1  0.34220000  0.68940000  0.04400000  1
  H  H73  1  0.34220000  0.81060000  0.54400000  1
  H  H74  1  0.34230000  0.53300000  0.29900000  1
  H  H75  1  0.34230000  0.96700000  0.79900000  1
  H  H76  1  0.34430000  0.17200000  0.01730000  1
  H  H77  1  0.34430000  0.32800000  0.51730000  1
  H  H78  1  0.34950000  0.02840000  0.29010000  1
  H  H79  1  0.34950000  0.47160000  0.79010000  1
  H  H80  1  0.35820000  0.56810000  0.72660000  1
  H  H81  1  0.35820000  0.93190000  0.22660000  1
  H  H82  1  0.37070000  0.05050000  0.73290000  1
  H  H83  1  0.37070000  0.44950000  0.23290000  1
  H  H84  1  0.39860000  0.59170000  0.85170000  1
  H  H85  1  0.39860000  0.90830000  0.35170000  1
  H  H86  1  0.39890000  0.15400000  0.44500000  1
  H  H87  1  0.39890000  0.34600000  0.94500000  1
  H  H88  1  0.40220000  0.12910000  0.16400000  1
  H  H89  1  0.40220000  0.37090000  0.66400000  1
  H  H90  1  0.40360000  0.14370000  0.83200000  1
  H  H91  1  0.40360000  0.35630000  0.33200000  1
  H  H92  1  0.42190000  0.06080000  0.38470000  1
  H  H93  1  0.42190000  0.43920000  0.88470000  1
  H  H94  1  0.43800000  0.59200000  0.49540000  1
  H  H95  1  0.43800000  0.90800000  0.99540000  1
  H  H96  1  0.44730000  0.22550000  0.11030000  1
  H  H97  1  0.44730000  0.27450000  0.61030000  1
  H  H98  1  0.47660000  0.00800000  0.94170000  1
  H  H99  1  0.47660000  0.49200000  0.44170000  1
  H  H100  1  0.49430000  0.63540000  0.91760000  1
  H  H101  1  0.49430000  0.86460000  0.41760000  1
  H  H102  1  0.49750000  0.70370000  0.61090000  1
  H  H103  1  0.49750000  0.79630000  0.11090000  1
  H  H104  1  0.50250000  0.20370000  0.88910000  1
  H  H105  1  0.50250000  0.29630000  0.38910000  1
  H  H106  1  0.50570000  0.13540000  0.58240000  1
  H  H107  1  0.50570000  0.36460000  0.08240000  1
  H  H108  1  0.52340000  0.50800000  0.55830000  1
  H  H109  1  0.52340000  0.99200000  0.05830000  1
  H  H110  1  0.55270000  0.72550000  0.38970000  1
  H  H111  1  0.55270000  0.77450000  0.88970000  1
  H  H112  1  0.56200000  0.09200000  0.00460000  1
  H  H113  1  0.56200000  0.40800000  0.50460000  1
  H  H114  1  0.57810000  0.56080000  0.11530000  1
  H  H115  1  0.57810000  0.93920000  0.61530000  1
  H  H116  1  0.59640000  0.64370000  0.66800000  1
  H  H117  1  0.59640000  0.85630000  0.16800000  1
  H  H118  1  0.59780000  0.62910000  0.33600000  1
  H  H119  1  0.59780000  0.87090000  0.83600000  1
  H  H120  1  0.60110000  0.65400000  0.05500000  1
  H  H121  1  0.60110000  0.84600000  0.55500000  1
  H  H122  1  0.60140000  0.09170000  0.64830000  1
  H  H123  1  0.60140000  0.40830000  0.14830000  1
  H  H124  1  0.62930000  0.55050000  0.76710000  1
  H  H125  1  0.62930000  0.94950000  0.26710000  1
  H  H126  1  0.64180000  0.06810000  0.77340000  1
  H  H127  1  0.64180000  0.43190000  0.27340000  1
  H  H128  1  0.65050000  0.52840000  0.20990000  1
  H  H129  1  0.65050000  0.97160000  0.70990000  1
  H  H130  1  0.65570000  0.67200000  0.48270000  1
  H  H131  1  0.65570000  0.82800000  0.98270000  1
  H  H132  1  0.65770000  0.03300000  0.20100000  1
  H  H133  1  0.65770000  0.46700000  0.70100000  1
  H  H134  1  0.65780000  0.18940000  0.45600000  1
  H  H135  1  0.65780000  0.31060000  0.95600000  1
  H  H136  1  0.67780000  0.59270000  0.25480000  1
  H  H137  1  0.67780000  0.90730000  0.75480000  1
  H  H138  1  0.68260000  0.09550000  0.24760000  1
  H  H139  1  0.68260000  0.40450000  0.74760000  1
  H  H140  1  0.68500000  0.22310000  0.03480000  1
  H  H141  1  0.68500000  0.27690000  0.53480000  1
  H  H142  1  0.68800000  0.09930000  0.39290000  1
  H  H143  1  0.68800000  0.40070000  0.89290000  1
  H  H144  1  0.70710000  0.57780000  0.81130000  1
  H  H145  1  0.70710000  0.92220000  0.31130000  1
  H  H146  1  0.71680000  0.74050000  0.10220000  1
  H  H147  1  0.71680000  0.75950000  0.60220000  1
  H  H148  1  0.71720000  0.07320000  0.82340000  1
  H  H149  1  0.71720000  0.42680000  0.32340000  1
  H  H150  1  0.74510000  0.10560000  0.03600000  1
  H  H151  1  0.74510000  0.39440000  0.53600000  1
  H  H152  1  0.75490000  0.60560000  0.53600000  1
  H  H153  1  0.75490000  0.89440000  0.03600000  1
  H  H154  1  0.78280000  0.57320000  0.32340000  1
  H  H155  1  0.78280000  0.92680000  0.82340000  1
  H  H156  1  0.78320000  0.24050000  0.60220000  1
  H  H157  1  0.78320000  0.25950000  0.10220000  1
  H  H158  1  0.79290000  0.07780000  0.31130000  1
  H  H159  1  0.79290000  0.42220000  0.81130000  1
  H  H160  1  0.81200000  0.59930000  0.89290000  1
  H  H161  1  0.81200000  0.90070000  0.39290000  1
  H  H162  1  0.81500000  0.72310000  0.53480000  1
  H  H163  1  0.81500000  0.77690000  0.03480000  1
  H  H164  1  0.81740000  0.59550000  0.74760000  1
  H  H165  1  0.81740000  0.90450000  0.24760000  1
  H  H166  1  0.82220000  0.09270000  0.75480000  1
  H  H167  1  0.82220000  0.40730000  0.25480000  1
  H  H168  1  0.84220000  0.68940000  0.95600000  1
  H  H169  1  0.84220000  0.81060000  0.45600000  1
  H  H170  1  0.84230000  0.53300000  0.70100000  1
  H  H171  1  0.84230000  0.96700000  0.20100000  1
  H  H172  1  0.84430000  0.17200000  0.98270000  1
  H  H173  1  0.84430000  0.32800000  0.48270000  1
  H  H174  1  0.84950000  0.02840000  0.70990000  1
  H  H175  1  0.84950000  0.47160000  0.20990000  1
  H  H176  1  0.85820000  0.56810000  0.27340000  1
  H  H177  1  0.85820000  0.93190000  0.77340000  1
  H  H178  1  0.87070000  0.05050000  0.26710000  1
  H  H179  1  0.87070000  0.44950000  0.76710000  1
  H  H180  1  0.89860000  0.59170000  0.14830000  1
  H  H181  1  0.89860000  0.90830000  0.64830000  1
  H  H182  1  0.89890000  0.15400000  0.55500000  1
  H  H183  1  0.89890000  0.34600000  0.05500000  1
  H  H184  1  0.90220000  0.12910000  0.83600000  1
  H  H185  1  0.90220000  0.37090000  0.33600000  1
  H  H186  1  0.90360000  0.14370000  0.16800000  1
  H  H187  1  0.90360000  0.35630000  0.66800000  1
  H  H188  1  0.92190000  0.06080000  0.61530000  1
  H  H189  1  0.92190000  0.43920000  0.11530000  1
  H  H190  1  0.93800000  0.59200000  0.50460000  1
  H  H191  1  0.93800000  0.90800000  0.00460000  1
  H  H192  1  0.94730000  0.22550000  0.88970000  1
  H  H193  1  0.94730000  0.27450000  0.38970000  1
  H  H194  1  0.97660000  0.00800000  0.05830000  1
  H  H195  1  0.97660000  0.49200000  0.55830000  1
  H  H196  1  0.99430000  0.63540000  0.08240000  1
  H  H197  1  0.99430000  0.86460000  0.58240000  1
  H  H198  1  0.99750000  0.70370000  0.38910000  1
  H  H199  1  0.99750000  0.79630000  0.88910000  1
  C  C200  1  0.00290000  0.04300000  0.93080000  1
  C  C201  1  0.00290000  0.45700000  0.43080000  1
  C  C202  1  0.02460000  0.58980000  0.89910000  1
  C  C203  1  0.02460000  0.91020000  0.39910000  1
  C  C204  1  0.02520000  0.09930000  0.96030000  1
  C  C205  1  0.02520000  0.40070000  0.46030000  1
  C  C206  1  0.03710000  0.64160000  0.93350000  1
  C  C207  1  0.03710000  0.85840000  0.43350000  1
  C  C208  1  0.03900000  0.67360000  0.59800000  1
  C  C209  1  0.03900000  0.82640000  0.09800000  1
  C  C210  1  0.04620000  0.55310000  0.61310000  1
  C  C211  1  0.04620000  0.94690000  0.11310000  1
  C  C212  1  0.05560000  0.68360000  0.40520000  1
  C  C213  1  0.05560000  0.81640000  0.90520000  1
  C  C214  1  0.05680000  0.07390000  0.61790000  1
  C  C215  1  0.05680000  0.42610000  0.11790000  1
  C  C216  1  0.06390000  0.61970000  0.62810000  1
  C  C217  1  0.06390000  0.88030000  0.12810000  1
  C  C218  1  0.06770000  0.15840000  0.41360000  1
  C  C219  1  0.06770000  0.34160000  0.91360000  1
  C  C220  1  0.07250000  0.01770000  0.65690000  1
  C  C221  1  0.07250000  0.48230000  0.15690000  1
  C  C222  1  0.08040000  0.00620000  0.14300000  1
  C  C223  1  0.08040000  0.49380000  0.64300000  1
  C  C224  1  0.10590000  0.16100000  0.56110000  1
  C  C225  1  0.10590000  0.33900000  0.06110000  1
  C  C226  1  0.11070000  0.64920000  0.37290000  1
  C  C227  1  0.11070000  0.85080000  0.87290000  1
  C  C228  1  0.12150000  0.13330000  0.37660000  1
  C  C229  1  0.12150000  0.36670000  0.87660000  1
  C  C230  1  0.12330000  0.11060000  0.59620000  1
  C  C231  1  0.12330000  0.38940000  0.09620000  1
  C  C232  1  0.14310000  0.66520000  0.47630000  1
  C  C233  1  0.14310000  0.83480000  0.97630000  1
  C  C234  1  0.16620000  0.23630000  0.43900000  1
  C  C235  1  0.16620000  0.26370000  0.93900000  1
  C  C236  1  0.18150000  0.53370000  0.20890000  1
  C  C237  1  0.18150000  0.96630000  0.70890000  1
  C  C238  1  0.18360000  0.62200000  0.39300000  1
  C  C239  1  0.18360000  0.87800000  0.89300000  1
  C  C240  1  0.18500000  0.03860000  0.20290000  1
  C  C241  1  0.18500000  0.46140000  0.70290000  1
  C  C242  1  0.19950000  0.62870000  0.44660000  1
  C  C243  1  0.19950000  0.87130000  0.94660000  1
  C  C244  1  0.20130000  0.16090000  0.37100000  1
  C  C245  1  0.20130000  0.33910000  0.87100000  1
  C  C246  1  0.20270000  0.55250000  0.76990000  1
  C  C247  1  0.20270000  0.94750000  0.26990000  1
  C  C248  1  0.20870000  0.05530000  0.77670000  1
  C  C249  1  0.20870000  0.44470000  0.27670000  1
  C  C250  1  0.22280000  0.21500000  0.40220000  1
  C  C251  1  0.22280000  0.28500000  0.90220000  1
  C  C252  1  0.23400000  0.63410000  0.83360000  1
  C  C253  1  0.23400000  0.86590000  0.33360000  1
  C  C254  1  0.24970000  0.08810000  0.86180000  1
  C  C255  1  0.24970000  0.41190000  0.36180000  1
  C  C256  1  0.25000000  0.00000000  0.23760000  1
  C  C257  1  0.25000000  0.00000000  0.74240000  1
  C  C258  1  0.25000000  0.50000000  0.24240000  1
  C  C259  1  0.25000000  0.50000000  0.73760000  1
  C  C260  1  0.25030000  0.58810000  0.36180000  1
  C  C261  1  0.25030000  0.91190000  0.86180000  1
  C  C262  1  0.26600000  0.13410000  0.33360000  1
  C  C263  1  0.26600000  0.36590000  0.83360000  1
  C  C264  1  0.27720000  0.71500000  0.90220000  1
  C  C265  1  0.27720000  0.78500000  0.40220000  1
  C  C266  1  0.29130000  0.55530000  0.27670000  1
  C  C267  1  0.29130000  0.94470000  0.77670000  1
  C  C268  1  0.29730000  0.05250000  0.26990000  1
  C  C269  1  0.29730000  0.44750000  0.76990000  1
  C  C270  1  0.29870000  0.66090000  0.87100000  1
  C  C271  1  0.29870000  0.83910000  0.37100000  1
  C  C272  1  0.30050000  0.12870000  0.94660000  1
  C  C273  1  0.30050000  0.37130000  0.44660000  1
  C  C274  1  0.31500000  0.53860000  0.70290000  1
  C  C275  1  0.31500000  0.96140000  0.20290000  1
  C  C276  1  0.31640000  0.12200000  0.89300000  1
  C  C277  1  0.31640000  0.37800000  0.39300000  1
  C  C278  1  0.31850000  0.03370000  0.70890000  1
  C  C279  1  0.31850000  0.46630000  0.20890000  1
  C  C280  1  0.33380000  0.73630000  0.93900000  1
  C  C281  1  0.33380000  0.76370000  0.43900000  1
  C  C282  1  0.35690000  0.16520000  0.97630000  1
  C  C283  1  0.35690000  0.33480000  0.47630000  1
  C  C284  1  0.37670000  0.61060000  0.09620000  1
  C  C285  1  0.37670000  0.88940000  0.59620000  1
  C  C286  1  0.37850000  0.63330000  0.87660000  1
  C  C287  1  0.37850000  0.86670000  0.37660000  1
  C  C288  1  0.38930000  0.14920000  0.87290000  1
  C  C289  1  0.38930000  0.35080000  0.37290000  1
  C  C290  1  0.39410000  0.66100000  0.06110000  1
  C  C291  1  0.39410000  0.83900000  0.56110000  1
  C  C292  1  0.41960000  0.50620000  0.64300000  1
  C  C293  1  0.41960000  0.99380000  0.14300000  1
  C  C294  1  0.42750000  0.51770000  0.15690000  1
  C  C295  1  0.42750000  0.98230000  0.65690000  1
  C  C296  1  0.43230000  0.65840000  0.91360000  1
  C  C297  1  0.43230000  0.84160000  0.41360000  1
  C  C298  1  0.43610000  0.11970000  0.12810000  1
  C  C299  1  0.43610000  0.38030000  0.62810000  1
  C  C300  1  0.44320000  0.57390000  0.11790000  1
  C  C301  1  0.44320000  0.92610000  0.61790000  1
  C  C302  1  0.44440000  0.18360000  0.90520000  1
  C  C303  1  0.44440000  0.31640000  0.40520000  1
  C  C304  1  0.45380000  0.05310000  0.11310000  1
  C  C305  1  0.45380000  0.44690000  0.61310000  1
  C  C306  1  0.46100000  0.17360000  0.09800000  1
  C  C307  1  0.46100000  0.32640000  0.59800000  1
  C  C308  1  0.46290000  0.14160000  0.43350000  1
  C  C309  1  0.46290000  0.35840000  0.93350000  1
  C  C310  1  0.47480000  0.59930000  0.46030000  1
  C  C311  1  0.47480000  0.90070000  0.96030000  1
  C  C312  1  0.47540000  0.08980000  0.39910000  1
  C  C313  1  0.47540000  0.41020000  0.89910000  1
  C  C314  1  0.49710000  0.54300000  0.43080000  1
  C  C315  1  0.49710000  0.95700000  0.93080000  1
  C  C316  1  0.50290000  0.04300000  0.06920000  1
  C  C317  1  0.50290000  0.45700000  0.56920000  1
  C  C318  1  0.52460000  0.58980000  0.10090000  1
  C  C319  1  0.52460000  0.91020000  0.60090000  1
  C  C320  1  0.52520000  0.09930000  0.03970000  1
  C  C321  1  0.52520000  0.40070000  0.53970000  1
  C  C322  1  0.53710000  0.64160000  0.06650000  1
  C  C323  1  0.53710000  0.85840000  0.56650000  1
  C  C324  1  0.53900000  0.67360000  0.40200000  1
  C  C325  1  0.53900000  0.82640000  0.90200000  1
  C  C326  1  0.54620000  0.55310000  0.38690000  1
  C  C327  1  0.54620000  0.94690000  0.88690000  1
  C  C328  1  0.55560000  0.68360000  0.59480000  1
  C  C329  1  0.55560000  0.81640000  0.09480000  1
  C  C330  1  0.55680000  0.07390000  0.38210000  1
  C  C331  1  0.55680000  0.42610000  0.88210000  1
  C  C332  1  0.56390000  0.61970000  0.37190000  1
  C  C333  1  0.56390000  0.88030000  0.87190000  1
  C  C334  1  0.56770000  0.15840000  0.58640000  1
  C  C335  1  0.56770000  0.34160000  0.08640000  1
  C  C336  1  0.57250000  0.01770000  0.34310000  1
  C  C337  1  0.57250000  0.48230000  0.84310000  1
  C  C338  1  0.58040000  0.00620000  0.85700000  1
  C  C339  1  0.58040000  0.49380000  0.35700000  1
  C  C340  1  0.60590000  0.16100000  0.43890000  1
  C  C341  1  0.60590000  0.33900000  0.93890000  1
  C  C342  1  0.61070000  0.64920000  0.62710000  1
  C  C343  1  0.61070000  0.85080000  0.12710000  1
  C  C344  1  0.62150000  0.13330000  0.62340000  1
  C  C345  1  0.62150000  0.36670000  0.12340000  1
  C  C346  1  0.62330000  0.11060000  0.40380000  1
  C  C347  1  0.62330000  0.38940000  0.90380000  1
  C  C348  1  0.64310000  0.66520000  0.52370000  1
  C  C349  1  0.64310000  0.83480000  0.02370000  1
  C  C350  1  0.66620000  0.23630000  0.56100000  1
  C  C351  1  0.66620000  0.26370000  0.06100000  1
  C  C352  1  0.68150000  0.53370000  0.79110000  1
  C  C353  1  0.68150000  0.96630000  0.29110000  1
  C  C354  1  0.68360000  0.62200000  0.60700000  1
  C  C355  1  0.68360000  0.87800000  0.10700000  1
  C  C356  1  0.68500000  0.03860000  0.79710000  1
  C  C357  1  0.68500000  0.46140000  0.29710000  1
  C  C358  1  0.69950000  0.62870000  0.55340000  1
  C  C359  1  0.69950000  0.87130000  0.05340000  1
  C  C360  1  0.70130000  0.16090000  0.62900000  1
  C  C361  1  0.70130000  0.33910000  0.12900000  1
  C  C362  1  0.70270000  0.55250000  0.23010000  1
  C  C363  1  0.70270000  0.94750000  0.73010000  1
  C  C364  1  0.70870000  0.05530000  0.22330000  1
  C  C365  1  0.70870000  0.44470000  0.72330000  1
  C  C366  1  0.72280000  0.21500000  0.59780000  1
  C  C367  1  0.72280000  0.28500000  0.09780000  1
  C  C368  1  0.73400000  0.63410000  0.16640000  1
  C  C369  1  0.73400000  0.86590000  0.66640000  1
  C  C370  1  0.74970000  0.08810000  0.13820000  1
  C  C371  1  0.74970000  0.41190000  0.63820000  1
  C  C372  1  0.75000000  0.00000000  0.25760000  1
  C  C373  1  0.75000000  0.00000000  0.76240000  1
  C  C374  1  0.75000000  0.50000000  0.26240000  1
  C  C375  1  0.75000000  0.50000000  0.75760000  1
  C  C376  1  0.75030000  0.58810000  0.63820000  1
  C  C377  1  0.75030000  0.91190000  0.13820000  1
  C  C378  1  0.76600000  0.13410000  0.66640000  1
  C  C379  1  0.76600000  0.36590000  0.16640000  1
  C  C380  1  0.77720000  0.71500000  0.09780000  1
  C  C381  1  0.77720000  0.78500000  0.59780000  1
  C  C382  1  0.79130000  0.55530000  0.72330000  1
  C  C383  1  0.79130000  0.94470000  0.22330000  1
  C  C384  1  0.79730000  0.05250000  0.73010000  1
  C  C385  1  0.79730000  0.44750000  0.23010000  1
  C  C386  1  0.79870000  0.66090000  0.12900000  1
  C  C387  1  0.79870000  0.83910000  0.62900000  1
  C  C388  1  0.80050000  0.12870000  0.05340000  1
  C  C389  1  0.80050000  0.37130000  0.55340000  1
  C  C390  1  0.81500000  0.53860000  0.29710000  1
  C  C391  1  0.81500000  0.96140000  0.79710000  1
  C  C392  1  0.81640000  0.12200000  0.10700000  1
  C  C393  1  0.81640000  0.37800000  0.60700000  1
  C  C394  1  0.81850000  0.03370000  0.29110000  1
  C  C395  1  0.81850000  0.46630000  0.79110000  1
  C  C396  1  0.83380000  0.73630000  0.06100000  1
  C  C397  1  0.83380000  0.76370000  0.56100000  1
  C  C398  1  0.85690000  0.16520000  0.02370000  1
  C  C399  1  0.85690000  0.33480000  0.52370000  1
  C  C400  1  0.87670000  0.61060000  0.90380000  1
  C  C401  1  0.87670000  0.88940000  0.40380000  1
  C  C402  1  0.87850000  0.63330000  0.12340000  1
  C  C403  1  0.87850000  0.86670000  0.62340000  1
  C  C404  1  0.88930000  0.14920000  0.12710000  1
  C  C405  1  0.88930000  0.35080000  0.62710000  1
  C  C406  1  0.89410000  0.66100000  0.93890000  1
  C  C407  1  0.89410000  0.83900000  0.43890000  1
  C  C408  1  0.91960000  0.50620000  0.35700000  1
  C  C409  1  0.91960000  0.99380000  0.85700000  1
  C  C410  1  0.92750000  0.51770000  0.84310000  1
  C  C411  1  0.92750000  0.98230000  0.34310000  1
  C  C412  1  0.93230000  0.65840000  0.08640000  1
  C  C413  1  0.93230000  0.84160000  0.58640000  1
  C  C414  1  0.93610000  0.11970000  0.87190000  1
  C  C415  1  0.93610000  0.38030000  0.37190000  1
  C  C416  1  0.94320000  0.57390000  0.88210000  1
  C  C417  1  0.94320000  0.92610000  0.38210000  1
  C  C418  1  0.94440000  0.18360000  0.09480000  1
  C  C419  1  0.94440000  0.31640000  0.59480000  1
  C  C420  1  0.95380000  0.05310000  0.88690000  1
  C  C421  1  0.95380000  0.44690000  0.38690000  1
  C  C422  1  0.96100000  0.17360000  0.90200000  1
  C  C423  1  0.96100000  0.32640000  0.40200000  1
  C  C424  1  0.96290000  0.14160000  0.56650000  1
  C  C425  1  0.96290000  0.35840000  0.06650000  1
  C  C426  1  0.97480000  0.59930000  0.53970000  1
  C  C427  1  0.97480000  0.90070000  0.03970000  1
  C  C428  1  0.97540000  0.08980000  0.60090000  1
  C  C429  1  0.97540000  0.41020000  0.10090000  1
  C  C430  1  0.99710000  0.54300000  0.56920000  1
  C  C431  1  0.99710000  0.95700000  0.06920000  1
  N  N432  1  0.00190000  0.16290000  0.94640000  1
  N  N433  1  0.00190000  0.33710000  0.44640000  1
  N  N434  1  0.02500000  0.17680000  0.54680000  1
  N  N435  1  0.02500000  0.32320000  0.04680000  1
  N  N436  1  0.07120000  0.69310000  0.45540000  1
  N  N437  1  0.07120000  0.80690000  0.95540000  1
  N  N438  1  0.08850000  0.20940000  0.44430000  1
  N  N439  1  0.08850000  0.29060000  0.94430000  1
  N  N440  1  0.41150000  0.70940000  0.94430000  1
  N  N441  1  0.41150000  0.79060000  0.44430000  1
  N  N442  1  0.42880000  0.19310000  0.95540000  1
  N  N443  1  0.42880000  0.30690000  0.45540000  1
  N  N444  1  0.47500000  0.67680000  0.04680000  1
  N  N445  1  0.47500000  0.82320000  0.54680000  1
  N  N446  1  0.49810000  0.66290000  0.44640000  1
  N  N447  1  0.49810000  0.83710000  0.94640000  1
  N  N448  1  0.50190000  0.16290000  0.05360000  1
  N  N449  1  0.50190000  0.33710000  0.55360000  1
  N  N450  1  0.52500000  0.17680000  0.45320000  1
  N  N451  1  0.52500000  0.32320000  0.95320000  1
  N  N452  1  0.57120000  0.69310000  0.54460000  1
  N  N453  1  0.57120000  0.80690000  0.04460000  1
  N  N454  1  0.58850000  0.20940000  0.55570000  1
  N  N455  1  0.58850000  0.29060000  0.05570000  1
  N  N456  1  0.91150000  0.70940000  0.05570000  1
  N  N457  1  0.91150000  0.79060000  0.55570000  1
  N  N458  1  0.92880000  0.19310000  0.04460000  1
  N  N459  1  0.92880000  0.30690000  0.54460000  1
  N  N460  1  0.97500000  0.67680000  0.95320000  1
  N  N461  1  0.97500000  0.82320000  0.45320000  1
  N  N462  1  0.99810000  0.66290000  0.55360000  1
  N  N463  1  0.99810000  0.83710000  0.05360000  1
  O  O464  1  0.01860000  0.51890000  0.17340000  1
  O  O465  1  0.01860000  0.98110000  0.67340000  1
  O  O466  1  0.05890000  0.06390000  0.13670000  1
  O  O467  1  0.05890000  0.43610000  0.63670000  1
  O  O468  1  0.14000000  0.51300000  0.67430000  1
  O  O469  1  0.14000000  0.98700000  0.17430000  1
  O  O470  1  0.15300000  0.01730000  0.67190000  1
  O  O471  1  0.15300000  0.48270000  0.17190000  1
  O  O472  1  0.16540000  0.66030000  0.82940000  1
  O  O473  1  0.16540000  0.83970000  0.32940000  1
  O  O474  1  0.18450000  0.06730000  0.87780000  1
  O  O475  1  0.18450000  0.43270000  0.37780000  1
  O  O476  1  0.22860000  0.58380000  0.31120000  1
  O  O477  1  0.22860000  0.91620000  0.81120000  1
  O  O478  1  0.23760000  0.08080000  0.30690000  1
  O  O479  1  0.23760000  0.41920000  0.80690000  1
  O  O480  1  0.26240000  0.58080000  0.80690000  1
  O  O481  1  0.26240000  0.91920000  0.30690000  1
  O  O482  1  0.27140000  0.08380000  0.81120000  1
  O  O483  1  0.27140000  0.41620000  0.31120000  1
  O  O484  1  0.31550000  0.56730000  0.37780000  1
  O  O485  1  0.31550000  0.93270000  0.87780000  1
  O  O486  1  0.33460000  0.16030000  0.32940000  1
  O  O487  1  0.33460000  0.33970000  0.82940000  1
  O  O488  1  0.34700000  0.51730000  0.17190000  1
  O  O489  1  0.34700000  0.98270000  0.67190000  1
  O  O490  1  0.36000000  0.01300000  0.17430000  1
  O  O491  1  0.36000000  0.48700000  0.67430000  1
  O  O492  1  0.44110000  0.56390000  0.63670000  1
  O  O493  1  0.44110000  0.93610000  0.13670000  1
  O  O494  1  0.48140000  0.01890000  0.67340000  1
  O  O495  1  0.48140000  0.48110000  0.17340000  1
  O  O496  1  0.51860000  0.51890000  0.82660000  1
  O  O497  1  0.51860000  0.98110000  0.32660000  1
  O  O498  1  0.55890000  0.06390000  0.86330000  1
  O  O499  1  0.55890000  0.43610000  0.36330000  1
  O  O500  1  0.64000000  0.51300000  0.32570000  1
  O  O501  1  0.64000000  0.98700000  0.82570000  1
  O  O502  1  0.65300000  0.01730000  0.32810000  1
  O  O503  1  0.65300000  0.48270000  0.82810000  1
  O  O504  1  0.66540000  0.66030000  0.17060000  1
  O  O505  1  0.66540000  0.83970000  0.67060000  1
  O  O506  1  0.68450000  0.06730000  0.12220000  1
  O  O507  1  0.68450000  0.43270000  0.62220000  1
  O  O508  1  0.72860000  0.58380000  0.68880000  1
  O  O509  1  0.72860000  0.91620000  0.18880000  1
  O  O510  1  0.73760000  0.08080000  0.69310000  1
  O  O511  1  0.73760000  0.41920000  0.19310000  1
  O  O512  1  0.76240000  0.58080000  0.19310000  1
  O  O513  1  0.76240000  0.91920000  0.69310000  1
  O  O514  1  0.77140000  0.08380000  0.18880000  1
  O  O515  1  0.77140000  0.41620000  0.68880000  1
  O  O516  1  0.81550000  0.56730000  0.62220000  1
  O  O517  1  0.81550000  0.93270000  0.12220000  1
  O  O518  1  0.83460000  0.16030000  0.67060000  1
  O  O519  1  0.83460000  0.33970000  0.17060000  1
  O  O520  1  0.84700000  0.51730000  0.82810000  1
  O  O521  1  0.84700000  0.98270000  0.32810000  1
  O  O522  1  0.86000000  0.01300000  0.82570000  1
  O  O523  1  0.86000000  0.48700000  0.32570000  1
  O  O524  1  0.94110000  0.56390000  0.36330000  1
  O  O525  1  0.94110000  0.93610000  0.86330000  1
  O  O526  1  0.98140000  0.01890000  0.32660000  1
  O  O527  1  0.98140000  0.48110000  0.82660000  1
