# generated using pymatgen
data_Ni2H39C63(N2O)6
_symmetry_space_group_name_H-M   'P 1'
_cell_length_a   13.96000000
_cell_length_b   16.80200000
_cell_length_c   16.80200000
_cell_angle_alpha   120.00000000
_cell_angle_beta   90.00000000
_cell_angle_gamma   90.00000000
_symmetry_Int_Tables_number   1
_chemical_formula_structural   Ni2H39C63(N2O)6
_chemical_formula_sum   'Ni4 H78 C126 N24 O12'
_cell_volume   3413.01353628
_cell_formula_units_Z   2
loop_
 _symmetry_equiv_pos_site_id
 _symmetry_equiv_pos_as_xyz
  1  'x, y, z'
loop_
 _atom_site_type_symbol
 _atom_site_label
 _atom_site_symmetry_multiplicity
 _atom_site_fract_x
 _atom_site_fract_y
 _atom_site_fract_z
 _atom_site_occupancy
  Ni  Ni0  1  0.39652000  0.66666667  0.33333333  1
  Ni  Ni1  1  0.10348000  0.66666667  0.33333333  1
  Ni  Ni2  1  0.89652000  0.33333333  0.66666667  1
  Ni  Ni3  1  0.60348000  0.33333333  0.66666667  1
  H  H4  1  0.95420000  0.98840000  0.22500000  1
  H  H5  1  0.54580000  0.98840000  0.76340000  1
  H  H6  1  0.07210000  0.97990000  0.31820000  1
  H  H7  1  0.42790000  0.97990000  0.66170000  1
  H  H8  1  0.11450000  0.93470000  0.42650000  1
  H  H9  1  0.38550000  0.93470000  0.50820000  1
  H  H10  1  0.34750000  0.89110000  0.17300000  1
  H  H11  1  0.15250000  0.89110000  0.71810000  1
  H  H12  1  0.15250000  0.82700000  0.10890000  1
  H  H13  1  0.34750000  0.82700000  0.71810000  1
  H  H14  1  0.75000000  0.82610000  0.41305000  1
  H  H15  1  0.15060000  0.78870000  0.22330000  1
  H  H16  1  0.34940000  0.78870000  0.56540000  1
  H  H17  1  0.91720000  0.78360000  0.36210000  1
  H  H18  1  0.58280000  0.78360000  0.42150000  1
  H  H19  1  0.34940000  0.77670000  0.21130000  1
  H  H20  1  0.15060000  0.77670000  0.56540000  1
  H  H21  1  0.54580000  0.77500000  0.01160000  1
  H  H22  1  0.95420000  0.77500000  0.76340000  1
  H  H23  1  0.45420000  0.76340000  0.77500000  1
  H  H24  1  0.04580000  0.76340000  0.98840000  1
  H  H25  1  0.84750000  0.71810000  0.82700000  1
  H  H26  1  0.65250000  0.71810000  0.89110000  1
  H  H27  1  0.42790000  0.68180000  0.02010000  1
  H  H28  1  0.07210000  0.68180000  0.66170000  1
  H  H29  1  0.57210000  0.66170000  0.68180000  1
  H  H30  1  0.92790000  0.66170000  0.97990000  1
  H  H31  1  0.58280000  0.63790000  0.21640000  1
  H  H32  1  0.91720000  0.63790000  0.42150000  1
  H  H33  1  0.75000000  0.58695000  0.17390000  1
  H  H34  1  0.75000000  0.58695000  0.41305000  1
  H  H35  1  0.91720000  0.57850000  0.21640000  1
  H  H36  1  0.58280000  0.57850000  0.36210000  1
  H  H37  1  0.38550000  0.57350000  0.06530000  1
  H  H38  1  0.11450000  0.57350000  0.50820000  1
  H  H39  1  0.65060000  0.56540000  0.77670000  1
  H  H40  1  0.84940000  0.56540000  0.78870000  1
  H  H41  1  0.61450000  0.50820000  0.57350000  1
  H  H42  1  0.88550000  0.50820000  0.93470000  1
  H  H43  1  0.11450000  0.49180000  0.06530000  1
  H  H44  1  0.38550000  0.49180000  0.42650000  1
  H  H45  1  0.15060000  0.43460000  0.21130000  1
  H  H46  1  0.34940000  0.43460000  0.22330000  1
  H  H47  1  0.88550000  0.42650000  0.49180000  1
  H  H48  1  0.61450000  0.42650000  0.93470000  1
  H  H49  1  0.41720000  0.42150000  0.63790000  1
  H  H50  1  0.08280000  0.42150000  0.78360000  1
  H  H51  1  0.25000000  0.41305000  0.58695000  1
  H  H52  1  0.25000000  0.41305000  0.82610000  1
  H  H53  1  0.08280000  0.36210000  0.57850000  1
  H  H54  1  0.41720000  0.36210000  0.78360000  1
  H  H55  1  0.07210000  0.33830000  0.02010000  1
  H  H56  1  0.42790000  0.33830000  0.31820000  1
  H  H57  1  0.92790000  0.31820000  0.33830000  1
  H  H58  1  0.57210000  0.31820000  0.97990000  1
  H  H59  1  0.34750000  0.28190000  0.10890000  1
  H  H60  1  0.15250000  0.28190000  0.17300000  1
  H  H61  1  0.95420000  0.23660000  0.01160000  1
  H  H62  1  0.54580000  0.23660000  0.22500000  1
  H  H63  1  0.04580000  0.22500000  0.23660000  1
  H  H64  1  0.45420000  0.22500000  0.98840000  1
  H  H65  1  0.84940000  0.22330000  0.43460000  1
  H  H66  1  0.65060000  0.22330000  0.78870000  1
  H  H67  1  0.41720000  0.21640000  0.57850000  1
  H  H68  1  0.08280000  0.21640000  0.63790000  1
  H  H69  1  0.65060000  0.21130000  0.43460000  1
  H  H70  1  0.84940000  0.21130000  0.77670000  1
  H  H71  1  0.25000000  0.17390000  0.58695000  1
  H  H72  1  0.65250000  0.17300000  0.28190000  1
  H  H73  1  0.84750000  0.17300000  0.89110000  1
  H  H74  1  0.84750000  0.10890000  0.28190000  1
  H  H75  1  0.65250000  0.10890000  0.82700000  1
  H  H76  1  0.61450000  0.06530000  0.49180000  1
  H  H77  1  0.88550000  0.06530000  0.57350000  1
  H  H78  1  0.57210000  0.02010000  0.33830000  1
  H  H79  1  0.92790000  0.02010000  0.68180000  1
  H  H80  1  0.45420000  0.01160000  0.23660000  1
  H  H81  1  0.04580000  0.01160000  0.77500000  1
  C  C82  1  0.52790000  0.97230000  0.31370000  1
  C  C83  1  0.97210000  0.97230000  0.65860000  1
  C  C84  1  0.16879000  0.96669000  0.45860000  1
  C  C85  1  0.33121000  0.96669000  0.50809000  1
  C  C86  1  0.45800000  0.96620000  0.25270000  1
  C  C87  1  0.04200000  0.96620000  0.71350000  1
  C  C88  1  0.66945000  0.93825000  0.44381000  1
  C  C89  1  0.83055000  0.93825000  0.49444000  1
  C  C90  1  0.25000000  0.91950000  0.45975000  1
  C  C91  1  0.52860000  0.90370000  0.33620000  1
  C  C92  1  0.97140000  0.90370000  0.56750000  1
  C  C93  1  0.39280000  0.89330000  0.21460000  1
  C  C94  1  0.10720000  0.89330000  0.67870000  1
  C  C95  1  0.75000000  0.89000000  0.44500000  1
  C  C96  1  0.46350000  0.83000000  0.29820000  1
  C  C97  1  0.03650000  0.83000000  0.53180000  1
  C  C98  1  0.39360000  0.82460000  0.23660000  1
  C  C99  1  0.10640000  0.82460000  0.58800000  1
  C  C100  1  0.25000000  0.81550000  0.40775000  1
  C  C101  1  0.55531000  0.80886000  0.38865000  1
  C  C102  1  0.94469000  0.80886000  0.42021000  1
  C  C103  1  0.10720000  0.78540000  0.10670000  1
  C  C104  1  0.39280000  0.78540000  0.67870000  1
  C  C105  1  0.10640000  0.76340000  0.17540000  1
  C  C106  1  0.39360000  0.76340000  0.58800000  1
  C  C107  1  0.04200000  0.74730000  0.03380000  1
  C  C108  1  0.45800000  0.74730000  0.71350000  1
  C  C109  1  0.95800000  0.71350000  0.74730000  1
  C  C110  1  0.54200000  0.71350000  0.96620000  1
  C  C111  1  0.03650000  0.70180000  0.17000000  1
  C  C112  1  0.46350000  0.70180000  0.53180000  1
  C  C113  1  0.97210000  0.68630000  0.02770000  1
  C  C114  1  0.52790000  0.68630000  0.65860000  1
  C  C115  1  0.89280000  0.67870000  0.78540000  1
  C  C116  1  0.60720000  0.67870000  0.89330000  1
  C  C117  1  0.97140000  0.66380000  0.09630000  1
  C  C118  1  0.52860000  0.66380000  0.56750000  1
  C  C119  1  0.02790000  0.65860000  0.68630000  1
  C  C120  1  0.47210000  0.65860000  0.97230000  1
  C  C121  1  0.94469000  0.61135000  0.19114000  1
  C  C122  1  0.55531000  0.61135000  0.42021000  1
  C  C123  1  0.25000000  0.59225000  0.18450000  1
  C  C124  1  0.25000000  0.59225000  0.40775000  1
  C  C125  1  0.89360000  0.58800000  0.76340000  1
  C  C126  1  0.60640000  0.58800000  0.82460000  1
  C  C127  1  0.55531000  0.57979000  0.19114000  1
  C  C128  1  0.94469000  0.57979000  0.38865000  1
  C  C129  1  0.02860000  0.56750000  0.66380000  1
  C  C130  1  0.47140000  0.56750000  0.90370000  1
  C  C131  1  0.83055000  0.55619000  0.06175000  1
  C  C132  1  0.66945000  0.55619000  0.49444000  1
  C  C133  1  0.75000000  0.55500000  0.11000000  1
  C  C134  1  0.75000000  0.55500000  0.44500000  1
  C  C135  1  0.33121000  0.54140000  0.03331000  1
  C  C136  1  0.16879000  0.54140000  0.50809000  1
  C  C137  1  0.25000000  0.54025000  0.08050000  1
  C  C138  1  0.25000000  0.54025000  0.45975000  1
  C  C139  1  0.96350000  0.53180000  0.70180000  1
  C  C140  1  0.53650000  0.53180000  0.83000000  1
  C  C141  1  0.66879000  0.50809000  0.54140000  1
  C  C142  1  0.83121000  0.50809000  0.96669000  1
  C  C143  1  0.66945000  0.50556000  0.06175000  1
  C  C144  1  0.83055000  0.50556000  0.44381000  1
  C  C145  1  0.16945000  0.49444000  0.55619000  1
  C  C146  1  0.33055000  0.49444000  0.93825000  1
  C  C147  1  0.16879000  0.49191000  0.03331000  1
  C  C148  1  0.33121000  0.49191000  0.45860000  1
  C  C149  1  0.46350000  0.46820000  0.17000000  1
  C  C150  1  0.03650000  0.46820000  0.29820000  1
  C  C151  1  0.75000000  0.45975000  0.54025000  1
  C  C152  1  0.75000000  0.45975000  0.91950000  1
  C  C153  1  0.83121000  0.45860000  0.49191000  1
  C  C154  1  0.66879000  0.45860000  0.96669000  1
  C  C155  1  0.25000000  0.44500000  0.55500000  1
  C  C156  1  0.25000000  0.44500000  0.89000000  1
  C  C157  1  0.33055000  0.44381000  0.50556000  1
  C  C158  1  0.16945000  0.44381000  0.93825000  1
  C  C159  1  0.52860000  0.43250000  0.09630000  1
  C  C160  1  0.97140000  0.43250000  0.33620000  1
  C  C161  1  0.05531000  0.42021000  0.61135000  1
  C  C162  1  0.44469000  0.42021000  0.80886000  1
  C  C163  1  0.39360000  0.41200000  0.17540000  1
  C  C164  1  0.10640000  0.41200000  0.23660000  1
  C  C165  1  0.75000000  0.40775000  0.59225000  1
  C  C166  1  0.75000000  0.40775000  0.81550000  1
  C  C167  1  0.44469000  0.38865000  0.57979000  1
  C  C168  1  0.05531000  0.38865000  0.80886000  1
  C  C169  1  0.52790000  0.34140000  0.02770000  1
  C  C170  1  0.97210000  0.34140000  0.31370000  1
  C  C171  1  0.47140000  0.33620000  0.43250000  1
  C  C172  1  0.02860000  0.33620000  0.90370000  1
  C  C173  1  0.39280000  0.32130000  0.10670000  1
  C  C174  1  0.10720000  0.32130000  0.21460000  1
  C  C175  1  0.47210000  0.31370000  0.34140000  1
  C  C176  1  0.02790000  0.31370000  0.97230000  1
  C  C177  1  0.53650000  0.29820000  0.46820000  1
  C  C178  1  0.96350000  0.29820000  0.83000000  1
  C  C179  1  0.45800000  0.28650000  0.03380000  1
  C  C180  1  0.04200000  0.28650000  0.25270000  1
  C  C181  1  0.54200000  0.25270000  0.28650000  1
  C  C182  1  0.95800000  0.25270000  0.96620000  1
  C  C183  1  0.60640000  0.23660000  0.41200000  1
  C  C184  1  0.89360000  0.23660000  0.82460000  1
  C  C185  1  0.60720000  0.21460000  0.32130000  1
  C  C186  1  0.89280000  0.21460000  0.89330000  1
  C  C187  1  0.05531000  0.19114000  0.57979000  1
  C  C188  1  0.44469000  0.19114000  0.61135000  1
  C  C189  1  0.75000000  0.18450000  0.59225000  1
  C  C190  1  0.89360000  0.17540000  0.41200000  1
  C  C191  1  0.60640000  0.17540000  0.76340000  1
  C  C192  1  0.96350000  0.17000000  0.46820000  1
  C  C193  1  0.53650000  0.17000000  0.70180000  1
  C  C194  1  0.25000000  0.11000000  0.55500000  1
  C  C195  1  0.89280000  0.10670000  0.32130000  1
  C  C196  1  0.60720000  0.10670000  0.78540000  1
  C  C197  1  0.02860000  0.09630000  0.43250000  1
  C  C198  1  0.47140000  0.09630000  0.66380000  1
  C  C199  1  0.75000000  0.08050000  0.54025000  1
  C  C200  1  0.16945000  0.06175000  0.50556000  1
  C  C201  1  0.33055000  0.06175000  0.55619000  1
  C  C202  1  0.95800000  0.03380000  0.28650000  1
  C  C203  1  0.54200000  0.03380000  0.74730000  1
  C  C204  1  0.66879000  0.03331000  0.49191000  1
  C  C205  1  0.83121000  0.03331000  0.54140000  1
  C  C206  1  0.02790000  0.02770000  0.34140000  1
  C  C207  1  0.47210000  0.02770000  0.68630000  1
  N  N208  1  0.58719000  0.88770000  0.39414000  1
  N  N209  1  0.91281000  0.88770000  0.49356000  1
  N  N210  1  0.48238000  0.77149000  0.33305000  1
  N  N211  1  0.01762000  0.77149000  0.43844000  1
  N  N212  1  0.01762000  0.66695000  0.22851000  1
  N  N213  1  0.48238000  0.66695000  0.43844000  1
  N  N214  1  0.91281000  0.60586000  0.11230000  1
  N  N215  1  0.58719000  0.60586000  0.49356000  1
  N  N216  1  0.48238000  0.56156000  0.22851000  1
  N  N217  1  0.01762000  0.56156000  0.33305000  1
  N  N218  1  0.58719000  0.50644000  0.11230000  1
  N  N219  1  0.91281000  0.50644000  0.39414000  1
  N  N220  1  0.08719000  0.49356000  0.60586000  1
  N  N221  1  0.41281000  0.49356000  0.88770000  1
  N  N222  1  0.98238000  0.43844000  0.66695000  1
  N  N223  1  0.51762000  0.43844000  0.77149000  1
  N  N224  1  0.41281000  0.39414000  0.50644000  1
  N  N225  1  0.08719000  0.39414000  0.88770000  1
  N  N226  1  0.51762000  0.33305000  0.56156000  1
  N  N227  1  0.98238000  0.33305000  0.77149000  1
  N  N228  1  0.98238000  0.22851000  0.56156000  1
  N  N229  1  0.51762000  0.22851000  0.66695000  1
  N  N230  1  0.08719000  0.11230000  0.50644000  1
  N  N231  1  0.41281000  0.11230000  0.60586000  1
  O  O232  1  0.18150000  0.77773000  0.35316000  1
  O  O233  1  0.31850000  0.77773000  0.42457000  1
  O  O234  1  0.31850000  0.64684000  0.22227000  1
  O  O235  1  0.18150000  0.64684000  0.42457000  1
  O  O236  1  0.18150000  0.57543000  0.22227000  1
  O  O237  1  0.31850000  0.57543000  0.35316000  1
  O  O238  1  0.68150000  0.42457000  0.64684000  1
  O  O239  1  0.81850000  0.42457000  0.77773000  1
  O  O240  1  0.81850000  0.35316000  0.57543000  1
  O  O241  1  0.68150000  0.35316000  0.77773000  1
  O  O242  1  0.68150000  0.22227000  0.57543000  1
  O  O243  1  0.81850000  0.22227000  0.64684000  1
