# generated using pymatgen
data_Zn4H12C11N16O7
_symmetry_space_group_name_H-M   'P 1'
_cell_length_a   9.04360000
_cell_length_b   9.73080000
_cell_length_c   17.39160115
_cell_angle_alpha   94.43089971
_cell_angle_beta   105.07001409
_cell_angle_gamma   90.00000000
_symmetry_Int_Tables_number   1
_chemical_formula_structural   Zn4H12C11N16O7
_chemical_formula_sum   'Zn8 H24 C22 N32 O14'
_cell_volume   1473.11343394
_cell_formula_units_Z   2
loop_
 _symmetry_equiv_pos_site_id
 _symmetry_equiv_pos_as_xyz
  1  'x, y, z'
loop_
 _atom_site_type_symbol
 _atom_site_label
 _atom_site_symmetry_multiplicity
 _atom_site_fract_x
 _atom_site_fract_y
 _atom_site_fract_z
 _atom_site_occupancy
  Zn  Zn0  1  0.37633000  0.55304000  0.34292000  1
  Zn  Zn1  1  0.38260000  0.75961000  0.16426000  1
  Zn  Zn2  1  0.03341000  0.94696000  0.65708000  1
  Zn  Zn3  1  0.21834000  0.74039000  0.83574000  1
  Zn  Zn4  1  0.78166000  0.25961000  0.16426000  1
  Zn  Zn5  1  0.96659000  0.05304000  0.34292000  1
  Zn  Zn6  1  0.61740000  0.24039000  0.83574000  1
  Zn  Zn7  1  0.62367000  0.44696000  0.65708000  1
  H  H8  1  0.14680000  0.96790000  0.13880000  1
  H  H9  1  0.86780000  0.45240000  0.81580000  1
  H  H10  1  0.94800000  0.95240000  0.81580000  1
  H  H11  1  0.00800000  0.53210000  0.86120000  1
  H  H12  1  0.77330000  0.71100000  0.60060000  1
  H  H13  1  0.82730000  0.21100000  0.60060000  1
  H  H14  1  0.58370000  0.33480000  0.28200000  1
  H  H15  1  0.37920000  0.01800000  0.06740000  1
  H  H16  1  0.31180000  0.48200000  0.93260000  1
  H  H17  1  0.47990000  0.14000000  0.06920000  1
  H  H18  1  0.69830000  0.83480000  0.28200000  1
  H  H19  1  0.41070000  0.36000000  0.93080000  1
  H  H20  1  0.58930000  0.64000000  0.06920000  1
  H  H21  1  0.30170000  0.16520000  0.71800000  1
  H  H22  1  0.52010000  0.86000000  0.93080000  1
  H  H23  1  0.68820000  0.51800000  0.06740000  1
  H  H24  1  0.62080000  0.98200000  0.93260000  1
  H  H25  1  0.41630000  0.66520000  0.71800000  1
  H  H26  1  0.17270000  0.78900000  0.39940000  1
  H  H27  1  0.22670000  0.28900000  0.39940000  1
  H  H28  1  0.99200000  0.46790000  0.13880000  1
  H  H29  1  0.05200000  0.04760000  0.18420000  1
  H  H30  1  0.13220000  0.54760000  0.18420000  1
  H  H31  1  0.85320000  0.03210000  0.86120000  1
  C  C32  1  0.55474000  0.45120000  0.48648000  1
  C  C33  1  0.84206000  0.10340000  0.75812000  1
  C  C34  1  0.91606000  0.60340000  0.75812000  1
  C  C35  1  0.81732000  0.19320000  0.65084000  1
  C  C36  1  0.83352000  0.69320000  0.65084000  1
  C  C37  1  0.26320000  0.75000000  0.00000000  1
  C  C38  1  0.56925000  0.40340000  0.24650000  1
  C  C39  1  0.56740000  0.01890000  0.15220000  1
  C  C40  1  0.67725000  0.90340000  0.24650000  1
  C  C41  1  0.58480000  0.51890000  0.15220000  1
  C  C42  1  0.93174000  0.95120000  0.48648000  1
  C  C43  1  0.06826000  0.04880000  0.51352000  1
  C  C44  1  0.41520000  0.48110000  0.84780000  1
  C  C45  1  0.32275000  0.09660000  0.75350000  1
  C  C46  1  0.43260000  0.98110000  0.84780000  1
  C  C47  1  0.43075000  0.59660000  0.75350000  1
  C  C48  1  0.73680000  0.25000000  0.00000000  1
  C  C49  1  0.16648000  0.30680000  0.34916000  1
  C  C50  1  0.18268000  0.80680000  0.34916000  1
  C  C51  1  0.08394000  0.39660000  0.24188000  1
  C  C52  1  0.15794000  0.89660000  0.24188000  1
  C  C53  1  0.44526000  0.54880000  0.51352000  1
  N  N54  1  0.25287000  0.79340000  0.24094000  1
  N  N55  1  0.73287000  0.26620000  0.68874000  1
  N  N56  1  0.88667000  0.01880000  0.81934000  1
  N  N57  1  0.80372000  0.58960000  0.69204000  1
  N  N58  1  0.93267000  0.51880000  0.81934000  1
  N  N59  1  0.88832000  0.08960000  0.69204000  1
  N  N60  1  0.48209000  0.50690000  0.25058000  1
  N  N61  1  0.01193000  0.70660000  0.75906000  1
  N  N62  1  0.95587000  0.76620000  0.68874000  1
  N  N63  1  0.48948000  0.58410000  0.18836000  1
  N  N64  1  0.54913000  0.90350000  0.18646000  1
  N  N65  1  0.46259000  0.06460000  0.08838000  1
  N  N66  1  0.63733000  0.40350000  0.18646000  1
  N  N67  1  0.37421000  0.43540000  0.91162000  1
  N  N68  1  0.23151000  0.99310000  0.74942000  1
  N  N69  1  0.30112000  0.91590000  0.81164000  1
  N  N70  1  0.69888000  0.08410000  0.18836000  1
  N  N71  1  0.76849000  0.00690000  0.25058000  1
  N  N72  1  0.62579000  0.56460000  0.08838000  1
  N  N73  1  0.36267000  0.59650000  0.81354000  1
  N  N74  1  0.53741000  0.93540000  0.91162000  1
  N  N75  1  0.45087000  0.09650000  0.81354000  1
  N  N76  1  0.51052000  0.41590000  0.81164000  1
  N  N77  1  0.04413000  0.23380000  0.31126000  1
  N  N78  1  0.98807000  0.29340000  0.24094000  1
  N  N79  1  0.51791000  0.49310000  0.74942000  1
  N  N80  1  0.11168000  0.91040000  0.30796000  1
  N  N81  1  0.06733000  0.48120000  0.18066000  1
  N  N82  1  0.19628000  0.41040000  0.30796000  1
  N  N83  1  0.11333000  0.98120000  0.18066000  1
  N  N84  1  0.26713000  0.73380000  0.31126000  1
  N  N85  1  0.74713000  0.20660000  0.75906000  1
  O  O86  1  0.65303000  0.39750000  0.54006000  1
  O  O87  1  0.53627000  0.42440000  0.41374000  1
  O  O88  1  0.22315000  0.75920000  0.06570000  1
  O  O89  1  0.15745000  0.74080000  0.93430000  1
  O  O90  1  0.88703000  0.89750000  0.54006000  1
  O  O91  1  0.40200000  0.75000000  0.00000000  1
  O  O92  1  0.87747000  0.92440000  0.41374000  1
  O  O93  1  0.12253000  0.07560000  0.58626000  1
  O  O94  1  0.59800000  0.25000000  0.00000000  1
  O  O95  1  0.11297000  0.10250000  0.45994000  1
  O  O96  1  0.84255000  0.25920000  0.06570000  1
  O  O97  1  0.77685000  0.24080000  0.93430000  1
  O  O98  1  0.46373000  0.57560000  0.58626000  1
  O  O99  1  0.34697000  0.60250000  0.45994000  1
