# generated using pymatgen
data_FeH4C8O5
_symmetry_space_group_name_H-M   'P 1'
_cell_length_a   11.95600000
_cell_length_b   12.13337529
_cell_length_c   12.13337529
_cell_angle_alpha   75.95144792
_cell_angle_beta   60.48241890
_cell_angle_gamma   60.48241890
_symmetry_Int_Tables_number   1
_chemical_formula_structural   FeH4C8O5
_chemical_formula_sum   'Fe4 H16 C32 O20'
_cell_volume   1332.88252227
_cell_formula_units_Z   4
loop_
 _symmetry_equiv_pos_site_id
 _symmetry_equiv_pos_as_xyz
  1  'x, y, z'
loop_
 _atom_site_type_symbol
 _atom_site_label
 _atom_site_symmetry_multiplicity
 _atom_site_fract_x
 _atom_site_fract_y
 _atom_site_fract_z
 _atom_site_occupancy
  C  C0  1  0.93720000  0.00000000  0.00000000  1
  C  C1  1  0.70330000  0.00000000  0.00000000  1
  C  C2  1  0.29670000  0.00000000  0.00000000  1
  C  C3  1  0.06280000  0.00000000  0.00000000  1
  C  C4  1  0.81280000  0.50000000  0.50000000  1
  C  C5  1  0.68720000  0.50000000  0.50000000  1
  C  C6  1  0.45330000  0.50000000  0.50000000  1
  C  C7  1  0.04670000  0.50000000  0.50000000  1
  C  C8  1  0.16020000  0.89080000  0.03040000  1
  C  C9  1  0.66860000  0.53040000  0.39080000  1
  C  C10  1  0.28620000  0.88590000  0.02310000  1
  C  C11  1  0.55480000  0.52310000  0.38590000  1
  C  C12  1  0.82790000  0.88590000  0.97690000  1
  C  C13  1  0.05930000  0.47690000  0.38590000  1
  C  C14  1  0.94900000  0.89080000  0.96960000  1
  C  C15  1  0.94060000  0.46960000  0.39080000  1
  C  C16  1  0.38980000  0.76770000  0.04830000  1
  C  C17  1  0.54420000  0.54830000  0.26770000  1
  C  C18  1  0.84250000  0.76770000  0.95170000  1
  C  C19  1  0.18810000  0.45170000  0.26770000  1
  C  C20  1  0.90750000  0.54830000  0.73230000  1
  C  C21  1  0.56190000  0.23230000  0.04830000  1
  C  C22  1  0.36020000  0.45170000  0.73230000  1
  C  C23  1  0.20580000  0.23230000  0.95170000  1
  C  C24  1  0.80100000  0.53040000  0.60920000  1
  C  C25  1  0.80940000  0.10920000  0.03040000  1
  C  C26  1  0.92210000  0.52310000  0.61410000  1
  C  C27  1  0.69070000  0.11410000  0.02310000  1
  C  C28  1  0.46380000  0.47690000  0.61410000  1
  C  C29  1  0.19520000  0.11410000  0.97690000  1
  C  C30  1  0.58980000  0.46960000  0.60920000  1
  C  C31  1  0.08140000  0.10920000  0.96960000  1
  Fe  Fe32  1  0.69272000  0.61456000  1.00000000  1
  Fe  Fe33  1  0.44272000  0.50000000  0.11456000  1
  Fe  Fe34  1  0.05728000  0.50000000  0.88544000  1
  Fe  Fe35  1  0.30728000  0.38544000  1.00000000  1
  H  H36  1  0.62550000  0.00000000  0.00000000  1
  H  H37  1  0.37450000  0.00000000  0.00000000  1
  H  H38  1  0.37550000  0.50000000  0.50000000  1
  H  H39  1  0.12450000  0.50000000  0.50000000  1
  H  H40  1  0.14400000  0.81910000  0.05590000  1
  H  H41  1  0.73100000  0.55590000  0.31910000  1
  H  H42  1  0.03690000  0.81910000  0.94410000  1
  H  H43  1  0.94990000  0.44410000  0.31910000  1
  H  H44  1  0.06660000  0.55840000  0.05840000  1
  H  H45  1  0.37500000  0.55840000  0.94160000  1
  H  H46  1  0.87500000  0.44160000  0.05840000  1
  H  H47  1  0.68340000  0.44160000  0.94160000  1
  H  H48  1  0.71310000  0.55590000  0.68090000  1
  H  H49  1  0.80010000  0.18090000  0.05590000  1
  H  H50  1  0.60600000  0.44410000  0.68090000  1
  H  H51  1  0.01900000  0.18090000  0.94410000  1
  O  O52  1  0.34626000  0.68638000  0.11334000  1
  O  O53  1  0.60402000  0.61334000  0.18638000  1
  O  O54  1  0.72750000  0.75740000  0.00080000  1
  O  O55  1  0.26430000  0.50080000  0.25740000  1
  O  O56  1  0.51510000  0.75740000  0.99920000  1
  O  O57  1  0.47830000  0.49920000  0.25740000  1
  O  O58  1  0.96736000  0.68638000  0.88666000  1
  O  O59  1  0.20960000  0.38666000  0.18638000  1
  O  O60  1  0.12180000  0.50320000  0.00320000  1
  O  O61  1  0.37500000  0.50320000  0.99680000  1
  O  O62  1  0.87500000  0.49680000  0.00320000  1
  O  O63  1  0.62820000  0.49680000  0.99680000  1
  O  O64  1  0.78264000  0.61334000  0.81362000  1
  O  O65  1  0.54040000  0.31362000  0.11334000  1
  O  O66  1  0.23490000  0.50080000  0.74260000  1
  O  O67  1  0.27170000  0.24260000  0.00080000  1
  O  O68  1  0.02250000  0.49920000  0.74260000  1
  O  O69  1  0.48570000  0.24260000  0.99920000  1
  O  O70  1  0.40374000  0.38666000  0.81362000  1
  O  O71  1  0.14598000  0.31362000  0.88666000  1
