# generated using pymatgen
data_AgH8C11N2O
_symmetry_space_group_name_H-M   'P 1'
_cell_length_a   8.41700000
_cell_length_b   19.70709764
_cell_length_c   19.70709764
_cell_angle_alpha   118.00813272
_cell_angle_beta   98.18491481
_cell_angle_gamma   98.18491481
_symmetry_Int_Tables_number   1
_chemical_formula_structural   AgH8C11N2O
_chemical_formula_sum   'Ag6 H48 C66 N12 O6'
_cell_volume   2773.57720655
_cell_formula_units_Z   6
loop_
 _symmetry_equiv_pos_site_id
 _symmetry_equiv_pos_as_xyz
  1  'x, y, z'
loop_
 _atom_site_type_symbol
 _atom_site_label
 _atom_site_symmetry_multiplicity
 _atom_site_fract_x
 _atom_site_fract_y
 _atom_site_fract_z
 _atom_site_occupancy
  Ag  Ag0  1  0.18274333  0.53069000  0.50374000  1
  Ag  Ag1  1  0.65205333  0.97305000  0.46931000  1
  Ag  Ag2  1  0.32099667  0.50374000  0.97305000  1
  Ag  Ag3  1  0.67900333  0.49626000  0.02695000  1
  Ag  Ag4  1  0.34794667  0.02695000  0.53069000  1
  Ag  Ag5  1  0.81725667  0.46931000  0.49626000  1
  C  C6  1  0.21632000  0.77215000  0.22821000  1
  C  C7  1  0.43390000  0.40119000  0.60281000  1
  C  C8  1  0.28488000  0.75415000  0.28449000  1
  C  C9  1  0.34697000  0.45047000  0.59094000  1
  C  C10  1  0.77520000  0.32249000  0.71921000  1
  C  C11  1  0.45271000  0.39672000  0.67751000  1
  C  C12  1  0.27519000  0.84758000  0.23999000  1
  C  C13  1  0.50310000  0.65013000  0.45837000  1
  C  C14  1  0.05747000  0.64969000  0.46192000  1
  C  C15  1  0.94401000  0.71921000  0.39672000  1
  C  C16  1  0.61644000  0.59671000  0.53561000  1
  C  C17  1  0.85297000  0.80824000  0.34987000  1
  C  C18  1  0.40778000  0.81223000  0.35031000  1
  C  C19  1  0.52711000  0.64767000  0.52806000  1
  C  C20  1  0.00039000  0.71551000  0.46966000  1
  C  C21  1  0.83109000  0.39719000  0.79838000  1
  C  C22  1  0.96729000  0.79838000  0.40119000  1
  C  C23  1  0.39895000  0.90055000  0.30570000  1
  C  C24  1  0.46927000  0.46966000  0.75415000  1
  C  C25  1  0.87944000  0.88039000  0.35233000  1
  C  C26  1  0.95527000  0.45837000  0.80824000  1
  C  C27  1  0.75603000  0.40906000  0.85953000  1
  C  C28  1  0.40445000  0.46192000  0.81223000  1
  C  C29  1  0.09325000  0.69430000  0.59485000  1
  C  C30  1  0.10350000  0.85953000  0.45047000  1
  C  C31  1  0.98811000  0.77179000  0.54394000  1
  C  C32  1  0.55583000  0.54394000  0.77215000  1
  C  C33  1  0.01973000  0.93890000  0.40329000  1
  C  C34  1  0.03520000  0.76001000  0.60759000  1
  C  C35  1  0.00095000  0.52806000  0.88039000  1
  C  C36  1  0.57239000  0.60759000  0.84758000  1
  C  C37  1  0.91917000  0.53561000  0.93890000  1
  C  C38  1  0.50160000  0.59485000  0.90055000  1
  C  C39  1  0.49840000  0.40515000  0.09945000  1
  C  C40  1  0.08083000  0.46439000  0.06110000  1
  C  C41  1  0.42761000  0.39241000  0.15242000  1
  C  C42  1  0.99905000  0.47194000  0.11961000  1
  C  C43  1  0.96480000  0.23999000  0.39241000  1
  C  C44  1  0.98027000  0.06110000  0.59671000  1
  C  C45  1  0.44417000  0.45606000  0.22785000  1
  C  C46  1  0.01189000  0.22821000  0.45606000  1
  C  C47  1  0.89650000  0.14047000  0.54953000  1
  C  C48  1  0.90675000  0.30570000  0.40515000  1
  C  C49  1  0.59555000  0.53808000  0.18777000  1
  C  C50  1  0.24397000  0.59094000  0.14047000  1
  C  C51  1  0.04473000  0.54163000  0.19176000  1
  C  C52  1  0.12056000  0.11961000  0.64767000  1
  C  C53  1  0.53073000  0.53034000  0.24585000  1
  C  C54  1  0.60105000  0.09945000  0.69430000  1
  C  C55  1  0.03271000  0.20162000  0.59881000  1
  C  C56  1  0.16891000  0.60281000  0.20162000  1
  C  C57  1  0.99961000  0.28449000  0.53034000  1
  C  C58  1  0.47289000  0.35233000  0.47194000  1
  C  C59  1  0.59222000  0.18777000  0.64969000  1
  C  C60  1  0.14703000  0.19176000  0.65013000  1
  C  C61  1  0.38356000  0.40329000  0.46439000  1
  C  C62  1  0.05599000  0.28079000  0.60328000  1
  C  C63  1  0.94253000  0.35031000  0.53808000  1
  C  C64  1  0.49690000  0.34987000  0.54163000  1
  C  C65  1  0.72481000  0.15242000  0.76001000  1
  C  C66  1  0.54729000  0.60328000  0.32249000  1
  C  C67  1  0.22480000  0.67751000  0.28079000  1
  C  C68  1  0.65303000  0.54953000  0.40906000  1
  C  C69  1  0.71512000  0.24585000  0.71551000  1
  C  C70  1  0.56610000  0.59881000  0.39719000  1
  C  C71  1  0.78368000  0.22785000  0.77179000  1
  H  H72  1  0.06310000  0.61080000  0.41090000  1
  H  H73  1  0.23030000  0.86210000  0.20300000  1
  H  H74  1  0.75950000  0.76660000  0.31420000  1
  H  H75  1  0.86830000  0.26600000  0.81710000  1
  H  H76  1  0.30420000  0.48510000  0.63290000  1
  H  H77  1  0.44530000  0.68580000  0.45240000  1
  H  H78  1  0.63350000  0.59600000  0.58390000  1
  H  H79  1  0.45230000  0.80010000  0.38920000  1
  H  H80  1  0.80230000  0.88980000  0.31940000  1
  H  H81  1  0.34780000  0.41090000  0.80010000  1
  H  H82  1  0.00710000  0.45240000  0.76660000  1
  H  H83  1  0.67130000  0.36710000  0.85220000  1
  H  H84  1  0.48290000  0.68060000  0.57040000  1
  H  H85  1  0.43960000  0.95130000  0.31240000  1
  H  H86  1  0.60230000  0.55110000  0.73400000  1
  H  H87  1  0.12720000  0.68760000  0.63890000  1
  H  H88  1  0.18090000  0.85220000  0.48510000  1
  H  H89  1  0.94880000  0.81710000  0.55110000  1
  H  H90  1  0.03750000  0.98790000  0.40400000  1
  H  H91  1  0.48830000  0.36110000  0.04870000  1
  H  H92  1  0.04960000  0.41610000  0.01210000  1
  H  H93  1  0.02730000  0.79700000  0.65910000  1
  H  H94  1  0.08750000  0.57040000  0.88980000  1
  H  H95  1  0.36820000  0.34090000  0.13790000  1
  H  H96  1  0.63180000  0.65910000  0.86210000  1
  H  H97  1  0.91250000  0.42960000  0.11020000  1
  H  H98  1  0.97270000  0.20300000  0.34090000  1
  H  H99  1  0.95040000  0.58390000  0.98790000  1
  H  H100  1  0.51170000  0.63890000  0.95130000  1
  H  H101  1  0.96250000  0.01210000  0.59600000  1
  H  H102  1  0.05120000  0.18290000  0.44890000  1
  H  H103  1  0.81910000  0.14780000  0.51490000  1
  H  H104  1  0.87280000  0.31240000  0.36110000  1
  H  H105  1  0.39770000  0.44890000  0.26600000  1
  H  H106  1  0.56040000  0.04870000  0.68760000  1
  H  H107  1  0.51710000  0.31940000  0.42960000  1
  H  H108  1  0.32870000  0.63290000  0.14780000  1
  H  H109  1  0.99290000  0.54760000  0.23340000  1
  H  H110  1  0.65220000  0.58910000  0.19990000  1
  H  H111  1  0.19770000  0.11020000  0.68060000  1
  H  H112  1  0.54770000  0.19990000  0.61080000  1
  H  H113  1  0.36650000  0.40400000  0.41610000  1
  H  H114  1  0.55470000  0.31420000  0.54760000  1
  H  H115  1  0.69580000  0.51490000  0.36710000  1
  H  H116  1  0.13170000  0.73400000  0.18290000  1
  H  H117  1  0.24050000  0.23340000  0.68580000  1
  H  H118  1  0.76970000  0.13790000  0.79700000  1
  H  H119  1  0.93690000  0.38920000  0.58910000  1
  N  N120  1  0.67977000  0.54829000  0.47732000  1
  N  N121  1  0.10440000  0.63893000  0.52317000  1
  N  N122  1  0.46547000  0.88424000  0.36107000  1
  N  N123  1  0.13148000  0.92903000  0.45171000  1
  N  N124  1  0.79755000  0.47732000  0.92903000  1
  N  N125  1  0.41877000  0.52317000  0.88424000  1
  N  N126  1  0.58123000  0.47683000  0.11576000  1
  N  N127  1  0.20245000  0.52268000  0.07097000  1
  N  N128  1  0.86852000  0.07097000  0.54829000  1
  N  N129  1  0.53453000  0.11576000  0.63893000  1
  N  N130  1  0.89560000  0.36107000  0.47683000  1
  N  N131  1  0.32023000  0.45171000  0.52268000  1
  O  O132  1  0.12099000  0.34124000  0.66613000  1
  O  O133  1  0.45486000  0.33387000  0.67511000  1
  O  O134  1  0.22025000  0.67511000  0.34124000  1
  O  O135  1  0.77975000  0.32489000  0.65876000  1
  O  O136  1  0.54514000  0.66613000  0.32489000  1
  O  O137  1  0.87901000  0.65876000  0.33387000  1
