# generated using pymatgen
data_ZnNiH10(C11O4)2
_symmetry_space_group_name_H-M   'P 1'
_cell_length_a   24.50013484
_cell_length_b   24.50020000
_cell_length_c   24.50020000
_cell_angle_alpha   93.87260000
_cell_angle_beta   117.78990806
_cell_angle_gamma   117.78990806
_symmetry_Int_Tables_number   1
_chemical_formula_structural   ZnNiH10(C11O4)2
_chemical_formula_sum   'Zn8 Ni8 H80 C176 O64'
_cell_volume   10719.92514724
_cell_formula_units_Z   8
loop_
 _symmetry_equiv_pos_site_id
 _symmetry_equiv_pos_as_xyz
  1  'x, y, z'
loop_
 _atom_site_type_symbol
 _atom_site_label
 _atom_site_symmetry_multiplicity
 _atom_site_fract_x
 _atom_site_fract_y
 _atom_site_fract_z
 _atom_site_occupancy
  Zn  Zn0  1  0.00626000  0.77436000  0.30776000  1
  Zn  Zn1  1  0.03089000  0.98152000  0.47285000  1
  Zn  Zn2  1  0.46660000  0.69224000  0.69850000  1
  Zn  Zn3  1  0.49133000  0.04937000  0.01848000  1
  Zn  Zn4  1  0.50867000  0.52715000  0.55804000  1
  Zn  Zn5  1  0.53340000  0.23190000  0.22564000  1
  Zn  Zn6  1  0.96911000  0.44196000  0.95063000  1
  Zn  Zn7  1  0.99374000  0.30150000  0.76810000  1
  Ni  Ni8  1  0.09398000  0.88568000  0.51290000  1
  Ni  Ni9  1  0.11506000  0.81085000  0.23397000  1
  Ni  Ni10  1  0.37278000  0.48710000  0.58108000  1
  Ni  Ni11  1  0.42312000  0.30421000  0.18915000  1
  Ni  Ni12  1  0.57688000  0.76603000  0.88109000  1
  Ni  Ni13  1  0.62722000  0.20830000  0.11432000  1
  Ni  Ni14  1  0.88494000  0.11891000  0.69579000  1
  Ni  Ni15  1  0.90602000  0.41892000  0.79170000  1
  H  H16  1  0.00250000  0.44930000  0.16540000  1
  H  H17  1  0.04730000  0.11290000  0.79880000  1
  H  H18  1  0.08750000  0.48890000  0.28480000  1
  H  H19  1  0.09230000  0.65840000  0.39870000  1
  H  H20  1  0.13580000  0.50110000  0.78590000  1
  H  H21  1  0.14280000  0.09630000  0.84490000  1
  H  H22  1  0.14730000  0.64620000  0.92930000  1
  H  H23  1  0.15170000  0.60220000  0.43270000  1
  H  H24  1  0.16750000  0.70640000  0.28210000  1
  H  H25  1  0.16950000  0.56730000  0.71900000  1
  H  H26  1  0.17140000  0.96520000  0.70520000  1
  H  H27  1  0.17360000  0.51460000  0.14700000  1
  H  H28  1  0.18740000  0.13120000  0.67440000  1
  H  H29  1  0.19820000  0.31130000  0.87630000  1
  H  H30  1  0.20000000  0.17990000  0.41610000  1
  H  H31  1  0.20120000  0.10000000  0.45500000  1
  H  H32  1  0.20410000  0.71520000  0.80270000  1
  H  H33  1  0.22950000  0.65400000  0.31730000  1
  H  H34  1  0.23190000  0.98690000  0.32300000  1
  H  H35  1  0.23620000  0.02010000  0.82010000  1
  H  H36  1  0.24860000  0.18450000  0.78790000  1
  H  H37  1  0.25140000  0.15510000  0.29790000  1
  H  H38  1  0.25970000  0.60130000  0.69360000  1
  H  H39  1  0.26000000  0.29480000  0.46620000  1
  H  H40  1  0.26020000  0.55050000  0.26310000  1
  H  H41  1  0.28310000  0.50110000  0.35380000  1
  H  H42  1  0.28390000  0.83460000  0.83710000  1
  H  H43  1  0.28480000  0.63470000  0.49890000  1
  H  H44  1  0.28740000  0.73690000  0.99710000  1
  H  H45  1  0.29480000  0.29410000  0.92350000  1
  H  H46  1  0.31410000  0.20120000  0.24850000  1
  H  H47  1  0.33610000  0.24500000  0.01310000  1
  H  H48  1  0.33670000  0.68270000  0.91220000  1
  H  H49  1  0.35500000  0.10120000  0.90000000  1
  H  H50  1  0.36760000  0.85300000  0.02660000  1
  H  H51  1  0.37060000  0.07650000  0.37130000  1
  H  H52  1  0.39660000  0.21210000  0.46070000  1
  H  H53  1  0.42430000  0.71790000  0.88540000  1
  H  H54  1  0.43500000  0.12370000  0.32190000  1
  H  H55  1  0.45680000  0.32560000  0.51300000  1
  H  H56  1  0.54320000  0.05620000  0.86880000  1
  H  H57  1  0.56500000  0.88690000  0.68870000  1
  H  H58  1  0.57570000  0.46110000  0.29360000  1
  H  H59  1  0.60340000  0.06410000  0.81550000  1
  H  H60  1  0.62940000  0.00070000  0.70590000  1
  H  H61  1  0.63240000  0.65900000  0.48540000  1
  H  H62  1  0.64500000  0.54500000  0.74620000  1
  H  H63  1  0.66330000  0.57550000  0.34600000  1
  H  H64  1  0.66390000  0.67700000  0.90890000  1
  H  H65  1  0.68590000  0.93440000  0.88710000  1
  H  H66  1  0.70520000  0.62870000  0.99930000  1
  H  H67  1  0.71260000  0.70970000  0.44950000  1
  H  H68  1  0.71520000  0.21410000  0.34990000  1
  H  H69  1  0.71610000  0.55320000  0.55070000  1
  H  H70  1  0.71690000  0.07070000  0.21800000  1
  H  H71  1  0.73980000  0.00290000  0.29030000  1
  H  H72  1  0.74000000  0.20620000  0.03480000  1
  H  H73  1  0.74030000  0.43390000  0.34160000  1
  H  H74  1  0.74860000  0.04650000  0.90370000  1
  H  H75  1  0.75140000  0.53930000  0.93590000  1
  H  H76  1  0.76380000  0.58390000  0.78390000  1
  H  H77  1  0.76810000  0.09110000  0.75500000  1
  H  H78  1  0.77050000  0.08780000  0.42450000  1
  H  H79  1  0.79590000  0.59860000  0.51110000  1
  H  H80  1  0.79880000  0.25380000  0.89880000  1
  H  H81  1  0.80000000  0.21610000  0.97990000  1
  H  H82  1  0.80180000  0.67810000  0.11310000  1
  H  H83  1  0.81260000  0.48700000  0.94380000  1
  H  H84  1  0.82640000  0.97340000  0.34100000  1
  H  H85  1  0.82860000  0.53380000  0.79380000  1
  H  H86  1  0.83050000  0.54950000  0.39780000  1
  H  H87  1  0.83250000  0.11460000  0.53890000  1
  H  H88  1  0.84830000  0.28100000  0.45050000  1
  H  H89  1  0.85270000  0.78200000  0.49890000  1
  H  H90  1  0.85720000  0.70210000  0.95350000  1
  H  H91  1  0.86420000  0.65010000  0.36530000  1
  H  H92  1  0.90770000  0.30640000  0.56610000  1
  H  H93  1  0.91250000  0.19730000  0.40140000  1
  H  H94  1  0.95270000  0.75150000  0.06560000  1
  H  H95  1  0.99750000  0.16290000  0.44680000  1
  C  C96  1  0.02700000  0.45770000  0.07290000  1
  C  C97  1  0.04060000  0.43074000  0.80954000  1
  C  C98  1  0.05080000  0.22270000  0.80550000  1
  C  C99  1  0.05350000  0.52960000  0.91210000  1
  C  C100  1  0.05460000  0.47050000  0.18550000  1
  C  C101  1  0.08070000  0.71770000  0.30940000  1
  C  C102  1  0.08190000  0.47920000  0.14830000  1
  C  C103  1  0.09210000  0.50477000  0.83767000  1
  C  C104  1  0.09730000  0.54913000  0.88203000  1
  C  C105  1  0.09780000  0.15010000  0.82470000  1
  C  C106  1  0.10520000  0.49360000  0.25700000  1
  C  C107  1  0.11320000  0.21350000  0.83430000  1
  C  C108  1  0.11860000  0.65580000  0.38100000  1
  C  C109  1  0.12110000  0.68360000  0.33490000  1
  C  C110  1  0.12290000  0.97693000  0.43483000  1
  C  C111  1  0.13180000  0.90025000  0.34125000  1
  C  C112  1  0.13860000  0.01030000  0.60730000  1
  C  C113  1  0.13890000  0.53090000  0.81580000  1
  C  C114  1  0.14520000  0.61651000  0.90011000  1
  C  C115  1  0.15450000  0.14000000  0.85210000  1
  C  C116  1  0.15490000  0.62310000  0.40200000  1
  C  C117  1  0.15650000  0.50880000  0.17530000  1
  C  C118  1  0.16370000  0.68450000  0.31200000  1
  C  C119  1  0.16790000  0.00674000  0.40784000  1
  C  C120  1  0.17500000  0.04360000  0.67980000  1
  C  C121  1  0.17700000  0.97385000  0.36805000  1
  C  C122  1  0.18140000  0.52330000  0.28330000  1
  C  C123  1  0.18680000  0.26770000  0.87050000  1
  C  C124  1  0.18800000  0.00990000  0.72210000  1
  C  C125  1  0.18960000  0.59800000  0.83560000  1
  C  C126  1  0.19080000  0.64240000  0.87660000  1
  C  C127  1  0.19500000  0.62160000  0.37780000  1
  C  C128  1  0.19720000  0.10860000  0.70400000  1
  C  C129  1  0.20060000  0.65380000  0.33300000  1
  C  C130  1  0.20720000  0.07690000  0.42790000  1
  C  C131  1  0.20860000  0.53100000  0.24440000  1
  C  C132  1  0.22110000  0.59800000  0.75290000  1
  C  C133  1  0.22470000  0.00969000  0.34919000  1
  C  C134  1  0.22610000  0.04250000  0.79040000  1
  C  C135  1  0.22670000  0.19250000  0.88920000  1
  C  C136  1  0.23390000  0.14040000  0.77130000  1
  C  C137  1  0.23420000  0.54840000  0.35760000  1
  C  C138  1  0.23660000  0.74300000  0.84820000  1
  C  C139  1  0.23760000  0.59160000  0.40200000  1
  C  C140  1  0.24000000  0.71670000  0.89810000  1
  C  C141  1  0.24380000  0.62220000  0.81720000  1
  C  C142  1  0.24400000  0.25730000  0.89830000  1
  C  C143  1  0.24900000  0.10771000  0.81451000  1
  C  C144  1  0.25210000  0.20960000  0.43570000  1
  C  C145  1  0.25430000  0.11250000  0.40860000  1
  C  C146  1  0.26150000  0.07760000  0.36810000  1
  C  C147  1  0.27480000  0.61900000  0.73760000  1
  C  C148  1  0.28360000  0.52869000  0.38349000  1
  C  C149  1  0.28490000  0.60800000  0.46910000  1
  C  C150  1  0.28500000  0.81450000  0.86910000  1
  C  C151  1  0.28660000  0.75560000  0.96420000  1
  C  C152  1  0.28780000  0.27790000  0.46590000  1
  C  C153  1  0.28790000  0.14790000  0.30240000  1
  C  C154  1  0.29050000  0.18390000  0.92240000  1
  C  C155  1  0.29320000  0.18549000  0.43449000  1
  C  C156  1  0.29610000  0.14180000  0.88750000  1
  C  C157  1  0.30330000  0.11080000  0.33750000  1
  C  C158  1  0.32080000  0.66700000  0.86760000  1
  C  C159  1  0.32540000  0.17530000  0.27310000  1
  C  C160  1  0.33090000  0.85170000  0.93360000  1
  C  C161  1  0.33290000  0.58733000  0.49523000  1
  C  C162  1  0.33290000  0.54817000  0.45087000  1
  C  C163  1  0.33350000  0.82470000  0.98120000  1
  C  C164  1  0.33950000  0.21501000  0.99031000  1
  C  C165  1  0.34870000  0.66510000  0.78620000  1
  C  C166  1  0.35100000  0.13030000  0.92310000  1
  C  C167  1  0.35900000  0.10170000  0.34570000  1
  C  C168  1  0.36380000  0.32020000  0.49520000  1
  C  C169  1  0.36910000  0.22870000  0.46260000  1
  C  C170  1  0.37250000  0.68800000  0.85170000  1
  C  C171  1  0.37880000  0.60986000  0.56926000  1
  C  C172  1  0.37920000  0.16570000  0.27890000  1
  C  C173  1  0.38250000  0.52390000  0.47040000  1
  C  C174  1  0.38480000  0.92710000  0.95410000  1
  C  C175  1  0.39420000  0.20315000  0.02615000  1
  C  C176  1  0.39720000  0.12950000  0.31630000  1
  C  C177  1  0.40110000  0.16116000  0.99326000  1
  C  C178  1  0.40300000  0.39270000  0.53130000  1
  C  C179  1  0.40460000  0.29600000  0.49320000  1
  C  C180  1  0.40830000  0.69060000  0.77130000  1
  C  C181  1  0.41720000  0.19450000  0.24530000  1
  C  C182  1  0.44100000  0.23155000  0.09975000  1
  C  C183  1  0.45790000  0.14597000  0.02307000  1
  C  C184  1  0.54210000  0.56517000  0.68807000  1
  C  C185  1  0.55900000  0.65875000  0.79055000  1
  C  C186  1  0.58280000  0.82810000  0.77730000  1
  C  C187  1  0.59170000  0.36300000  0.28230000  1
  C  C188  1  0.59540000  0.08860000  0.89140000  1
  C  C189  1  0.59700000  0.12830000  0.98970000  1
  C  C190  1  0.59890000  0.59216000  0.76006000  1
  C  C191  1  0.60280000  0.91910000  0.73230000  1
  C  C192  1  0.60580000  0.63195000  0.80895000  1
  C  C193  1  0.61520000  0.56930000  0.54230000  1
  C  C194  1  0.61750000  0.08790000  0.14140000  1
  C  C195  1  0.62080000  0.89970000  0.78650000  1
  C  C196  1  0.62120000  0.19046000  0.23106000  1
  C  C197  1  0.62750000  0.47920000  0.31550000  1
  C  C198  1  0.63090000  0.09350000  0.85960000  1
  C  C199  1  0.63620000  0.13140000  0.95640000  1
  C  C200  1  0.64100000  0.98670000  0.74270000  1
  C  C201  1  0.64900000  0.57210000  0.77930000  1
  C  C202  1  0.65130000  0.43750000  0.31640000  1
  C  C203  1  0.66050000  0.65081000  0.87551000  1
  C  C204  1  0.66650000  0.64770000  0.49120000  1
  C  C205  1  0.66710000  0.16233000  0.25443000  1
  C  C206  1  0.66710000  0.11797000  0.21527000  1
  C  C207  1  0.66910000  0.60270000  0.52080000  1
  C  C208  1  0.67460000  0.94770000  0.84990000  1
  C  C209  1  0.67920000  0.54680000  0.34620000  1
  C  C210  1  0.69670000  0.03420000  0.80750000  1
  C  C211  1  0.70390000  0.59140000  0.84570000  1
  C  C212  1  0.70680000  0.14129000  0.89229000  1
  C  C213  1  0.70950000  0.63190000  0.89340000  1
  C  C214  1  0.71210000  0.01450000  0.86000000  1
  C  C215  1  0.71220000  0.17810000  0.99010000  1
  C  C216  1  0.71340000  0.67760000  0.46900000  1
  C  C217  1  0.71500000  0.58410000  0.52950000  1
  C  C218  1  0.71510000  0.18420000  0.32310000  1
  C  C219  1  0.71640000  0.09989000  0.24509000  1
  C  C220  1  0.72520000  0.46280000  0.34420000  1
  C  C221  1  0.73850000  0.10660000  0.81610000  1
  C  C222  1  0.74570000  0.15430000  0.85820000  1
  C  C223  1  0.74790000  0.18360000  0.95750000  1
  C  C224  1  0.75100000  0.56551000  0.85871000  1
  C  C225  1  0.75600000  0.65430000  0.01330000  1
  C  C226  1  0.75620000  0.57340000  0.37840000  1
  C  C227  1  0.76000000  0.65810000  0.47670000  1
  C  C228  1  0.76240000  0.16440000  0.35400000  1
  C  C229  1  0.76340000  0.61160000  0.50640000  1
  C  C230  1  0.76580000  0.12340000  0.31420000  1
  C  C231  1  0.76610000  0.53740000  0.90650000  1
  C  C232  1  0.77330000  0.66250000  0.96580000  1
  C  C233  1  0.77390000  0.56430000  0.81640000  1
  C  C234  1  0.77530000  0.12449000  0.78499000  1
  C  C235  1  0.77890000  0.53180000  0.37690000  1
  C  C236  1  0.79140000  0.03580000  0.32240000  1
  C  C237  1  0.79280000  0.22070000  0.86970000  1
  C  C238  1  0.79940000  0.13240000  0.45320000  1
  C  C239  1  0.80280000  0.50680000  0.91140000  1
  C  C240  1  0.80500000  0.18280000  0.42660000  1
  C  C241  1  0.80920000  0.68580000  0.45160000  1
  C  C242  1  0.81040000  0.64600000  0.40840000  1
  C  C243  1  0.81200000  0.53410000  0.82190000  1
  C  C244  1  0.81320000  0.68370000  0.08090000  1
  C  C245  1  0.81860000  0.10190000  0.34190000  1
  C  C246  1  0.82300000  0.19105000  0.79685000  1
  C  C247  1  0.82500000  0.50480000  0.86860000  1
  C  C248  1  0.83210000  0.23994000  0.83884000  1
  C  C249  1  0.83630000  0.14830000  0.52080000  1
  C  C250  1  0.84350000  0.01880000  0.35230000  1
  C  C251  1  0.84510000  0.24710000  0.46820000  1
  C  C252  1  0.84550000  0.69760000  0.98550000  1
  C  C253  1  0.85480000  0.75491000  0.47131000  1
  C  C254  1  0.86110000  0.67690000  0.39200000  1
  C  C255  1  0.86140000  0.46870000  0.87170000  1
  C  C256  1  0.86820000  0.20945000  0.76845000  1
  C  C257  1  0.87710000  0.31193000  0.85403000  1
  C  C258  1  0.87890000  0.21380000  0.56250000  1
  C  C259  1  0.88140000  0.26240000  0.53720000  1
  C  C260  1  0.88680000  0.72110000  0.10030000  1
  C  C261  1  0.89480000  0.15180000  0.38840000  1
  C  C262  1  0.90220000  0.72690000  0.05230000  1
  C  C263  1  0.90270000  0.78473000  0.45183000  1
  C  C264  1  0.90790000  0.74557000  0.41267000  1
  C  C265  1  0.91810000  0.06640000  0.39730000  1
  C  C266  1  0.91930000  0.22870000  0.63700000  1
  C  C267  1  0.94540000  0.13090000  0.41590000  1
  C  C268  1  0.94650000  0.85860000  0.47610000  1
  C  C269  1  0.94920000  0.75470000  0.17190000  1
  C  C270  1  0.95940000  0.76894000  0.39014000  1
  C  C271  1  0.97300000  0.04590000  0.43070000  1
  O  O272  1  0.00425000  0.46656000  0.89191000  1
  O  O273  1  0.01274000  0.79934000  0.18808000  1
  O  O274  1  0.03050000  0.80213000  0.43043000  1
  O  O275  1  0.04050000  0.08870000  0.46480000  1
  O  O276  1  0.05600000  0.47560000  0.04200000  1
  O  O277  1  0.05650000  0.73047000  0.34057000  1
  O  O278  1  0.06487000  0.57153000  0.95426000  1
  O  O279  1  0.06761000  0.27901000  0.80522000  1
  O  O280  1  0.07018000  0.39880000  0.81870000  1
  O  O281  1  0.07171000  0.72920000  0.25811000  1
  O  O282  1  0.07173000  0.86968000  0.33593000  1
  O  O283  1  0.07796000  0.99150000  0.42434000  1
  O  O284  1  0.10578000  0.03158000  0.56716000  1
  O  O285  1  0.13926000  0.94499000  0.47081000  1
  O  O286  1  0.14147000  0.96163000  0.59370000  1
  O  O287  1  0.15796000  0.87290000  0.32462000  1
  O  O288  1  0.36793000  0.40630000  0.54777000  1
  O  O289  1  0.37170000  0.56957000  0.60007000  1
  O  O290  1  0.37610000  0.95180000  0.91130000  1
  O  O291  1  0.38273000  0.49334000  0.42847000  1
  O  O292  1  0.38874000  0.21340000  0.20066000  1
  O  O293  1  0.38990000  0.65943000  0.71593000  1
  O  O294  1  0.41990000  0.67138000  0.60120000  1
  O  O295  1  0.42535000  0.53769000  0.53344000  1
  O  O296  1  0.43284000  0.08646000  0.00850000  1
  O  O297  1  0.43360000  0.95800000  0.01400000  1
  O  O298  1  0.45172000  0.28506000  0.12710000  1
  O  O299  1  0.46442000  0.43284000  0.53862000  1
  O  O300  1  0.46625000  0.20205000  0.13032000  1
  O  O301  1  0.47109000  0.74189000  0.81360000  1
  O  O302  1  0.47379000  0.19478000  0.26239000  1
  O  O303  1  0.47418000  0.52919000  0.66845000  1
  O  O304  1  0.52582000  0.19427000  0.05501000  1
  O  O305  1  0.52621000  0.78860000  0.72099000  1
  O  O306  1  0.52891000  0.34251000  0.27080000  1
  O  O307  1  0.53375000  0.66407000  0.73580000  1
  O  O308  1  0.53558000  0.07420000  0.96842000  1
  O  O309  1  0.54828000  0.67538000  0.83334000  1
  O  O310  1  0.56640000  0.58040000  0.52440000  1
  O  O311  1  0.56716000  0.57566000  0.65362000  1
  O  O312  1  0.57465000  0.10809000  0.11234000  1
  O  O313  1  0.58010000  0.18130000  0.25148000  1
  O  O314  1  0.61010000  0.32603000  0.26953000  1
  O  O315  1  0.61126000  0.81192000  0.82466000  1
  O  O316  1  0.61727000  0.04574000  0.11061000  1
  O  O317  1  0.62390000  0.53520000  0.57570000  1
  O  O318  1  0.62830000  0.22837000  0.19787000  1
  O  O319  1  0.63207000  0.17984000  0.03837000  1
  O  O320  1  0.84204000  0.16666000  0.71494000  1
  O  O321  1  0.85853000  0.45223000  0.82016000  1
  O  O322  1  0.86074000  0.33155000  0.80573000  1
  O  O323  1  0.89422000  0.46138000  0.92580000  1
  O  O324  1  0.92204000  0.34638000  0.91354000  1
  O  O325  1  0.92827000  0.26420000  0.79795000  1
  O  O326  1  0.92829000  0.18640000  0.65749000  1
  O  O327  1  0.92982000  0.74852000  0.32862000  1
  O  O328  1  0.93239000  0.73761000  0.21140000  1
  O  O329  1  0.93513000  0.88939000  0.50666000  1
  O  O330  1  0.94350000  0.28407000  0.67397000  1
  O  O331  1  0.94400000  0.98600000  0.41960000  1
  O  O332  1  0.95950000  0.42430000  0.04820000  1
  O  O333  1  0.96950000  0.39993000  0.77163000  1
  O  O334  1  0.98726000  0.17534000  0.78660000  1
  O  O335  1  0.99575000  0.88766000  0.46231000  1
