# generated using pymatgen
data_Co2H24C27(NO2)4
_symmetry_space_group_name_H-M   'P 1'
_cell_length_a   10.91350000
_cell_length_b   18.36380000
_cell_length_c   18.89420000
_cell_angle_alpha   108.37400000
_cell_angle_beta   90.00000000
_cell_angle_gamma   90.00000000
_symmetry_Int_Tables_number   1
_chemical_formula_structural   Co2H24C27(NO2)4
_chemical_formula_sum   'Co8 H96 C108 N16 O32'
_cell_volume   3593.60295434
_cell_formula_units_Z   4
loop_
 _symmetry_equiv_pos_site_id
 _symmetry_equiv_pos_as_xyz
  1  'x, y, z'
loop_
 _atom_site_type_symbol
 _atom_site_label
 _atom_site_symmetry_multiplicity
 _atom_site_fract_x
 _atom_site_fract_y
 _atom_site_fract_z
 _atom_site_occupancy
  Co  Co0  1  0.70528000  0.81365000  0.52931000  1
  Co  Co1  1  0.20225000  0.78547000  0.87667000  1
  Co  Co2  1  0.70225000  0.71453000  0.62333000  1
  Co  Co3  1  0.20528000  0.68635000  0.97069000  1
  Co  Co4  1  0.79472000  0.31365000  0.02931000  1
  Co  Co5  1  0.29775000  0.28547000  0.37667000  1
  Co  Co6  1  0.79775000  0.21453000  0.12333000  1
  Co  Co7  1  0.29472000  0.18635000  0.47069000  1
  H  H8  1  0.28390000  0.99560000  0.05290000  1
  H  H9  1  0.73860000  0.99350000  0.55590000  1
  H  H10  1  0.57300000  0.99070000  0.24550000  1
  H  H11  1  0.24580000  0.97630000  0.29130000  1
  H  H12  1  0.51300000  0.97620000  0.63310000  1
  H  H13  1  0.22940000  0.96750000  0.65270000  1
  H  H14  1  0.04290000  0.95750000  0.73250000  1
  H  H15  1  0.35040000  0.93510000  0.52110000  1
  H  H16  1  0.47250000  0.93490000  0.32470000  1
  H  H17  1  0.66570000  0.93420000  0.26640000  1
  H  H18  1  0.33550000  0.90810000  0.65000000  1
  H  H19  1  0.44960000  0.90550000  0.81420000  1
  H  H20  1  0.68930000  0.89640000  0.84370000  1
  H  H21  1  0.00070000  0.88360000  0.81750000  1
  H  H22  1  0.21660000  0.86890000  0.18780000  1
  H  H23  1  0.44020000  0.85600000  0.72890000  1
  H  H24  1  0.47900000  0.82150000  0.35380000  1
  H  H25  1  0.41580000  0.81730000  0.79160000  1
  H  H26  1  0.10040000  0.80950000  0.48590000  1
  H  H27  1  0.60990000  0.80520000  0.31580000  1
  H  H28  1  0.31210000  0.79760000  0.48130000  1
  H  H29  1  0.80520000  0.78070000  0.84160000  1
  H  H30  1  0.57760000  0.77450000  0.38300000  1
  H  H31  1  0.59250000  0.77140000  0.83860000  1
  H  H32  1  0.09250000  0.72860000  0.66140000  1
  H  H33  1  0.07760000  0.72550000  0.11700000  1
  H  H34  1  0.30520000  0.71930000  0.65840000  1
  H  H35  1  0.81210000  0.70240000  0.01870000  1
  H  H36  1  0.10990000  0.69480000  0.18420000  1
  H  H37  1  0.60040000  0.69050000  0.01410000  1
  H  H38  1  0.91580000  0.68270000  0.70840000  1
  H  H39  1  0.97900000  0.67850000  0.14620000  1
  H  H40  1  0.94020000  0.64400000  0.77110000  1
  H  H41  1  0.71660000  0.63110000  0.31220000  1
  H  H42  1  0.50070000  0.61640000  0.68250000  1
  H  H43  1  0.18930000  0.60360000  0.65630000  1
  H  H44  1  0.94960000  0.59450000  0.68580000  1
  H  H45  1  0.83550000  0.59190000  0.85000000  1
  H  H46  1  0.16570000  0.56580000  0.23360000  1
  H  H47  1  0.97250000  0.56510000  0.17530000  1
  H  H48  1  0.85040000  0.56490000  0.97890000  1
  H  H49  1  0.54290000  0.54250000  0.76750000  1
  H  H50  1  0.72940000  0.53250000  0.84730000  1
  H  H51  1  0.01300000  0.52380000  0.86690000  1
  H  H52  1  0.74580000  0.52370000  0.20870000  1
  H  H53  1  0.07300000  0.50930000  0.25450000  1
  H  H54  1  0.23860000  0.50650000  0.94410000  1
  H  H55  1  0.78390000  0.50440000  0.44710000  1
  H  H56  1  0.21610000  0.49560000  0.55290000  1
  H  H57  1  0.76140000  0.49350000  0.05590000  1
  H  H58  1  0.92700000  0.49070000  0.74550000  1
  H  H59  1  0.25420000  0.47630000  0.79130000  1
  H  H60  1  0.98700000  0.47620000  0.13310000  1
  H  H61  1  0.27060000  0.46750000  0.15270000  1
  H  H62  1  0.45710000  0.45750000  0.23250000  1
  H  H63  1  0.14960000  0.43510000  0.02110000  1
  H  H64  1  0.02750000  0.43490000  0.82470000  1
  H  H65  1  0.83430000  0.43420000  0.76640000  1
  H  H66  1  0.16450000  0.40810000  0.15000000  1
  H  H67  1  0.05040000  0.40550000  0.31420000  1
  H  H68  1  0.81070000  0.39640000  0.34370000  1
  H  H69  1  0.49930000  0.38360000  0.31750000  1
  H  H70  1  0.28340000  0.36890000  0.68780000  1
  H  H71  1  0.05980000  0.35600000  0.22890000  1
  H  H72  1  0.02100000  0.32150000  0.85380000  1
  H  H73  1  0.08420000  0.31730000  0.29160000  1
  H  H74  1  0.39960000  0.30950000  0.98590000  1
  H  H75  1  0.89010000  0.30520000  0.81580000  1
  H  H76  1  0.18790000  0.29760000  0.98130000  1
  H  H77  1  0.69480000  0.28070000  0.34160000  1
  H  H78  1  0.92240000  0.27450000  0.88300000  1
  H  H79  1  0.90750000  0.27140000  0.33860000  1
  H  H80  1  0.40750000  0.22860000  0.16140000  1
  H  H81  1  0.42240000  0.22550000  0.61700000  1
  H  H82  1  0.19480000  0.21930000  0.15840000  1
  H  H83  1  0.68790000  0.20240000  0.51870000  1
  H  H84  1  0.39010000  0.19480000  0.68420000  1
  H  H85  1  0.89960000  0.19050000  0.51410000  1
  H  H86  1  0.58420000  0.18270000  0.20840000  1
  H  H87  1  0.52100000  0.17850000  0.64620000  1
  H  H88  1  0.55980000  0.14400000  0.27110000  1
  H  H89  1  0.78340000  0.13110000  0.81220000  1
  H  H90  1  0.99930000  0.11640000  0.18250000  1
  H  H91  1  0.31070000  0.10360000  0.15630000  1
  H  H92  1  0.55040000  0.09450000  0.18580000  1
  H  H93  1  0.66450000  0.09190000  0.35000000  1
  H  H94  1  0.33430000  0.06580000  0.73360000  1
  H  H95  1  0.52750000  0.06510000  0.67530000  1
  H  H96  1  0.64960000  0.06490000  0.47890000  1
  H  H97  1  0.95710000  0.04250000  0.26750000  1
  H  H98  1  0.77060000  0.03250000  0.34730000  1
  H  H99  1  0.48700000  0.02380000  0.36690000  1
  H  H100  1  0.75420000  0.02370000  0.70870000  1
  H  H101  1  0.42700000  0.00930000  0.75450000  1
  H  H102  1  0.26140000  0.00650000  0.44410000  1
  H  H103  1  0.71610000  0.00440000  0.94710000  1
  C  C104  1  0.27530000  0.99172000  0.10106000  1
  C  C105  1  0.35210000  0.98850000  0.53113000  1
  C  C106  1  0.62000000  0.98230000  0.28636000  1
  C  C107  1  0.25250000  0.98067000  0.24322000  1
  C  C108  1  0.53220000  0.97560000  0.34698000  1
  C  C109  1  0.69620000  0.97183000  0.51082000  1
  C  C110  1  0.29060000  0.95190000  0.68308000  1
  C  C111  1  0.72070000  0.94861000  0.76522000  1
  C  C112  1  0.70860000  0.94377000  0.83712000  1
  C  C113  1  0.10060000  0.93120000  0.75230000  1
  C  C114  1  0.24640000  0.92127000  0.11001000  1
  C  C115  1  0.23560000  0.91633000  0.18126000  1
  C  C116  1  0.07830000  0.89060000  0.79902000  1
  C  C117  1  0.61220000  0.88834000  0.41574000  1
  C  C118  1  0.27410000  0.88330000  0.77845000  1
  C  C119  1  0.70320000  0.87831000  0.69870000  1
  C  C120  1  0.40640000  0.86380000  0.77830000  1
  C  C121  1  0.22500000  0.85334000  0.04217000  1
  C  C122  1  0.56570000  0.81620000  0.36250000  1
  C  C123  1  0.14150000  0.79080000  0.52036000  1
  C  C124  1  0.26790000  0.78416000  0.51800000  1
  C  C125  1  0.93860000  0.77492000  0.57544000  1
  C  C126  1  0.07500000  0.76962000  0.57427000  1
  C  C127  1  0.76390000  0.76292000  0.87662000  1
  C  C128  1  0.33010000  0.75785000  0.56926000  1
  C  C129  1  0.63690000  0.75712000  0.87473000  1
  C  C130  1  0.46720000  0.75647000  0.57013000  1
  C  C131  1  0.96720000  0.74353000  0.92987000  1
  C  C132  1  0.13690000  0.74288000  0.62527000  1
  C  C133  1  0.83010000  0.74215000  0.93074000  1
  C  C134  1  0.26390000  0.73708000  0.62338000  1
  C  C135  1  0.57500000  0.73038000  0.92573000  1
  C  C136  1  0.43860000  0.72508000  0.92456000  1
  C  C137  1  0.76790000  0.71584000  0.98200000  1
  C  C138  1  0.64150000  0.70920000  0.97964000  1
  C  C139  1  0.06570000  0.68380000  0.13750000  1
  C  C140  1  0.72500000  0.64666000  0.45783000  1
  C  C141  1  0.90640000  0.63620000  0.72170000  1
  C  C142  1  0.20320000  0.62169000  0.80130000  1
  C  C143  1  0.77410000  0.61670000  0.72155000  1
  C  C144  1  0.11220000  0.61166000  0.08426000  1
  C  C145  1  0.57830000  0.60940000  0.70098000  1
  C  C146  1  0.73560000  0.58367000  0.31874000  1
  C  C147  1  0.74640000  0.57873000  0.38999000  1
  C  C148  1  0.60060000  0.56880000  0.74770000  1
  C  C149  1  0.20860000  0.55623000  0.66288000  1
  C  C150  1  0.22070000  0.55139000  0.73478000  1
  C  C151  1  0.79060000  0.54810000  0.81692000  1
  C  C152  1  0.19620000  0.52817000  0.98918000  1
  C  C153  1  0.03220000  0.52440000  0.15302000  1
  C  C154  1  0.75250000  0.51933000  0.25678000  1
  C  C155  1  0.12000000  0.51770000  0.21364000  1
  C  C156  1  0.85210000  0.51150000  0.96887000  1
  C  C157  1  0.77530000  0.50828000  0.39894000  1
  C  C158  1  0.22470000  0.49172000  0.60106000  1
  C  C159  1  0.14790000  0.48850000  0.03113000  1
  C  C160  1  0.88000000  0.48230000  0.78636000  1
  C  C161  1  0.24750000  0.48067000  0.74322000  1
  C  C162  1  0.96780000  0.47560000  0.84698000  1
  C  C163  1  0.80380000  0.47183000  0.01082000  1
  C  C164  1  0.20940000  0.45190000  0.18308000  1
  C  C165  1  0.77930000  0.44861000  0.26522000  1
  C  C166  1  0.79140000  0.44377000  0.33712000  1
  C  C167  1  0.39940000  0.43120000  0.25230000  1
  C  C168  1  0.25360000  0.42127000  0.61001000  1
  C  C169  1  0.26440000  0.41633000  0.68126000  1
  C  C170  1  0.42170000  0.39060000  0.29902000  1
  C  C171  1  0.88780000  0.38834000  0.91574000  1
  C  C172  1  0.22590000  0.38330000  0.27845000  1
  C  C173  1  0.79680000  0.37831000  0.19870000  1
  C  C174  1  0.09360000  0.36380000  0.27830000  1
  C  C175  1  0.27500000  0.35334000  0.54217000  1
  C  C176  1  0.93430000  0.31620000  0.86250000  1
  C  C177  1  0.35850000  0.29080000  0.02036000  1
  C  C178  1  0.23210000  0.28416000  0.01800000  1
  C  C179  1  0.56140000  0.27492000  0.07544000  1
  C  C180  1  0.42500000  0.26962000  0.07427000  1
  C  C181  1  0.73610000  0.26292000  0.37662000  1
  C  C182  1  0.16990000  0.25785000  0.06926000  1
  C  C183  1  0.86310000  0.25712000  0.37473000  1
  C  C184  1  0.03280000  0.25647000  0.07013000  1
  C  C185  1  0.53280000  0.24353000  0.42987000  1
  C  C186  1  0.36310000  0.24288000  0.12527000  1
  C  C187  1  0.66990000  0.24215000  0.43074000  1
  C  C188  1  0.23610000  0.23708000  0.12338000  1
  C  C189  1  0.92500000  0.23038000  0.42573000  1
  C  C190  1  0.06140000  0.22508000  0.42456000  1
  C  C191  1  0.73210000  0.21584000  0.48200000  1
  C  C192  1  0.85850000  0.20920000  0.47964000  1
  C  C193  1  0.43430000  0.18380000  0.63750000  1
  C  C194  1  0.77500000  0.14666000  0.95783000  1
  C  C195  1  0.59360000  0.13620000  0.22170000  1
  C  C196  1  0.29680000  0.12169000  0.30130000  1
  C  C197  1  0.72590000  0.11670000  0.22155000  1
  C  C198  1  0.38780000  0.11166000  0.58426000  1
  C  C199  1  0.92170000  0.10940000  0.20098000  1
  C  C200  1  0.76440000  0.08367000  0.81874000  1
  C  C201  1  0.75360000  0.07873000  0.88999000  1
  C  C202  1  0.89940000  0.06880000  0.24770000  1
  C  C203  1  0.29140000  0.05623000  0.16288000  1
  C  C204  1  0.27930000  0.05139000  0.23478000  1
  C  C205  1  0.70940000  0.04810000  0.31692000  1
  C  C206  1  0.30380000  0.02817000  0.48918000  1
  C  C207  1  0.46780000  0.02440000  0.65302000  1
  C  C208  1  0.74750000  0.01933000  0.75678000  1
  C  C209  1  0.38000000  0.01770000  0.71364000  1
  C  C210  1  0.64790000  0.01150000  0.46887000  1
  C  C211  1  0.72470000  0.00828000  0.89894000  1
  N  N212  1  0.59530000  0.95836000  0.40841000  1
  N  N213  1  0.22620000  0.92651000  0.73942000  1
  N  N214  1  0.67430000  0.89472000  0.47802000  1
  N  N215  1  0.18730000  0.86057000  0.81585000  1
  N  N216  1  0.68730000  0.63943000  0.68415000  1
  N  N217  1  0.17430000  0.60528000  0.02198000  1
  N  N218  1  0.72620000  0.57349000  0.76058000  1
  N  N219  1  0.09530000  0.54164000  0.09159000  1
  N  N220  1  0.90470000  0.45836000  0.90841000  1
  N  N221  1  0.27380000  0.42651000  0.23942000  1
  N  N222  1  0.82570000  0.39472000  0.97802000  1
  N  N223  1  0.31270000  0.36057000  0.31585000  1
  N  N224  1  0.81270000  0.13943000  0.18415000  1
  N  N225  1  0.32570000  0.10528000  0.52198000  1
  N  N226  1  0.77380000  0.07349000  0.26058000  1
  N  N227  1  0.40470000  0.04164000  0.59159000  1
  O  O228  1  0.69850000  0.88828000  0.63603000  1
  O  O229  1  0.21790000  0.86467000  0.98065000  1
  O  O230  1  0.69430000  0.81456000  0.71005000  1
  O  O231  1  0.88940000  0.81218000  0.53773000  1
  O  O232  1  0.52090000  0.79557000  0.53585000  1
  O  O233  1  0.21490000  0.78904000  0.05285000  1
  O  O234  1  0.01850000  0.78131000  0.89262000  1
  O  O235  1  0.38230000  0.75962000  0.88731000  1
  O  O236  1  0.88230000  0.74038000  0.61269000  1
  O  O237  1  0.51850000  0.71869000  0.60738000  1
  O  O238  1  0.71490000  0.71096000  0.44715000  1
  O  O239  1  0.02090000  0.70443000  0.96415000  1
  O  O240  1  0.38940000  0.68782000  0.96227000  1
  O  O241  1  0.19430000  0.68544000  0.78995000  1
  O  O242  1  0.71790000  0.63533000  0.51935000  1
  O  O243  1  0.19850000  0.61172000  0.86397000  1
  O  O244  1  0.80150000  0.38828000  0.13603000  1
  O  O245  1  0.28210000  0.36467000  0.48065000  1
  O  O246  1  0.80570000  0.31456000  0.21005000  1
  O  O247  1  0.61060000  0.31218000  0.03773000  1
  O  O248  1  0.97910000  0.29557000  0.03585000  1
  O  O249  1  0.28510000  0.28904000  0.55285000  1
  O  O250  1  0.48150000  0.28131000  0.39262000  1
  O  O251  1  0.11770000  0.25962000  0.38731000  1
  O  O252  1  0.61770000  0.24038000  0.11269000  1
  O  O253  1  0.98150000  0.21869000  0.10738000  1
  O  O254  1  0.78510000  0.21096000  0.94715000  1
  O  O255  1  0.47910000  0.20443000  0.46415000  1
  O  O256  1  0.11060000  0.18782000  0.46227000  1
  O  O257  1  0.30570000  0.18544000  0.28995000  1
  O  O258  1  0.78210000  0.13533000  0.01935000  1
  O  O259  1  0.30150000  0.11172000  0.36397000  1
