# generated using pymatgen
data_Mn4H21C15(N2O)6
_symmetry_space_group_name_H-M   'P 1'
_cell_length_a   8.07070000
_cell_length_b   13.52930000
_cell_length_c   13.52930000
_cell_angle_alpha   120.00000000
_cell_angle_beta   90.00000000
_cell_angle_gamma   90.00000000
_symmetry_Int_Tables_number   1
_chemical_formula_structural   Mn4H21C15(N2O)6
_chemical_formula_sum   'Mn8 H42 C30 N24 O12'
_cell_volume   1279.35918040
_cell_formula_units_Z   2
loop_
 _symmetry_equiv_pos_site_id
 _symmetry_equiv_pos_as_xyz
  1  'x, y, z'
loop_
 _atom_site_type_symbol
 _atom_site_label
 _atom_site_symmetry_multiplicity
 _atom_site_fract_x
 _atom_site_fract_y
 _atom_site_fract_z
 _atom_site_occupancy
  Mn  Mn0  1  0.45445000  0.96395000  0.66196000  1
  Mn  Mn1  1  0.45445000  0.69801000  0.03605000  1
  Mn  Mn2  1  0.07872000  0.66666667  0.33333333  1
  Mn  Mn3  1  0.95445000  0.66196000  0.69801000  1
  Mn  Mn4  1  0.45445000  0.33804000  0.30199000  1
  Mn  Mn5  1  0.57872000  0.33333333  0.66666667  1
  Mn  Mn6  1  0.95445000  0.30199000  0.96395000  1
  Mn  Mn7  1  0.95445000  0.03605000  0.33804000  1
  H  H8  1  0.69950000  0.98240000  0.53960000  1
  H  H9  1  0.94300000  0.95560000  0.60380000  1
  H  H10  1  0.84670000  0.91660000  0.67920000  1
  H  H11  1  0.55890000  0.91230000  0.19780000  1
  H  H12  1  0.70560000  0.86550000  0.51670000  1
  H  H13  1  0.29200000  0.86320000  0.28650000  1
  H  H14  1  0.55480000  0.84580000  0.25600000  1
  H  H15  1  0.55890000  0.80220000  0.71450000  1
  H  H16  1  0.84670000  0.76260000  0.08340000  1
  H  H17  1  0.55480000  0.74400000  0.58980000  1
  H  H18  1  0.05890000  0.71450000  0.91230000  1
  H  H19  1  0.29200000  0.71350000  0.57670000  1
  H  H20  1  0.34670000  0.67920000  0.76260000  1
  H  H21  1  0.70560000  0.65120000  0.13450000  1
  H  H22  1  0.94300000  0.64820000  0.04440000  1
  H  H23  1  0.44300000  0.60380000  0.64820000  1
  H  H24  1  0.05480000  0.58980000  0.84580000  1
  H  H25  1  0.79200000  0.57670000  0.86320000  1
  H  H26  1  0.69950000  0.55720000  0.01760000  1
  H  H27  1  0.19950000  0.53960000  0.55720000  1
  H  H28  1  0.20560000  0.51670000  0.65120000  1
  H  H29  1  0.70560000  0.48330000  0.34880000  1
  H  H30  1  0.69950000  0.46040000  0.44280000  1
  H  H31  1  0.19950000  0.44280000  0.98240000  1
  H  H32  1  0.29200000  0.42330000  0.13680000  1
  H  H33  1  0.55480000  0.41020000  0.15420000  1
  H  H34  1  0.94300000  0.39620000  0.35180000  1
  H  H35  1  0.44300000  0.35180000  0.95560000  1
  H  H36  1  0.20560000  0.34880000  0.86550000  1
  H  H37  1  0.84670000  0.32080000  0.23740000  1
  H  H38  1  0.79200000  0.28650000  0.42330000  1
  H  H39  1  0.55890000  0.28550000  0.08770000  1
  H  H40  1  0.05480000  0.25600000  0.41020000  1
  H  H41  1  0.34670000  0.23740000  0.91660000  1
  H  H42  1  0.05890000  0.19780000  0.28550000  1
  H  H43  1  0.05480000  0.15420000  0.74400000  1
  H  H44  1  0.79200000  0.13680000  0.71350000  1
  H  H45  1  0.20560000  0.13450000  0.48330000  1
  H  H46  1  0.05890000  0.08770000  0.80220000  1
  H  H47  1  0.34670000  0.08340000  0.32080000  1
  H  H48  1  0.44300000  0.04440000  0.39620000  1
  H  H49  1  0.19950000  0.01760000  0.46040000  1
  C  C50  1  0.84280000  0.96720000  0.64790000  1
  C  C51  1  0.33590000  0.90840000  0.25410000  1
  C  C52  1  0.21890000  0.88960000  0.15740000  1
  C  C53  1  0.21890000  0.84260000  0.73220000  1
  C  C54  1  0.22400000  0.79390000  0.44000000  1
  C  C55  1  0.95120000  0.78760000  0.32270000  1
  C  C56  1  0.33590000  0.74590000  0.65430000  1
  C  C57  1  0.71890000  0.73220000  0.88960000  1
  C  C58  1  0.84280000  0.68070000  0.03280000  1
  C  C59  1  0.95120000  0.67730000  0.46490000  1
  C  C60  1  0.83590000  0.65430000  0.90840000  1
  C  C61  1  0.34280000  0.64790000  0.68070000  1
  C  C62  1  0.22400000  0.64610000  0.20610000  1
  C  C63  1  0.22400000  0.56000000  0.35390000  1
  C  C64  1  0.95120000  0.53510000  0.21240000  1
  C  C65  1  0.45120000  0.46490000  0.78760000  1
  C  C66  1  0.72400000  0.44000000  0.64610000  1
  C  C67  1  0.72400000  0.35390000  0.79390000  1
  C  C68  1  0.84280000  0.35210000  0.31930000  1
  C  C69  1  0.33590000  0.34570000  0.09160000  1
  C  C70  1  0.45120000  0.32270000  0.53510000  1
  C  C71  1  0.34280000  0.31930000  0.96720000  1
  C  C72  1  0.21890000  0.26780000  0.11040000  1
  C  C73  1  0.83590000  0.25410000  0.34570000  1
  C  C74  1  0.45120000  0.21240000  0.67730000  1
  C  C75  1  0.72400000  0.20610000  0.56000000  1
  C  C76  1  0.71890000  0.15740000  0.26780000  1
  C  C77  1  0.71890000  0.11040000  0.84260000  1
  C  C78  1  0.83590000  0.09160000  0.74590000  1
  C  C79  1  0.34280000  0.03280000  0.35210000  1
  N  N80  1  0.69770000  0.93880000  0.57260000  1
  N  N81  1  0.30990000  0.86760000  0.49940000  1
  N  N82  1  0.89530000  0.86500000  0.32130000  1
  N  N83  1  0.49940000  0.86180000  0.20800000  1
  N  N84  1  0.49940000  0.79200000  0.65380000  1
  N  N85  1  0.89530000  0.67870000  0.54370000  1
  N  N86  1  0.99940000  0.65380000  0.86180000  1
  N  N87  1  0.69770000  0.63380000  0.06120000  1
  N  N88  1  0.30990000  0.63180000  0.13240000  1
  N  N89  1  0.19770000  0.57260000  0.63380000  1
  N  N90  1  0.39530000  0.54370000  0.86500000  1
  N  N91  1  0.30990000  0.50060000  0.36820000  1
  N  N92  1  0.80990000  0.49940000  0.63180000  1
  N  N93  1  0.89530000  0.45630000  0.13500000  1
  N  N94  1  0.69770000  0.42740000  0.36620000  1
  N  N95  1  0.80990000  0.36820000  0.86760000  1
  N  N96  1  0.19770000  0.36620000  0.93880000  1
  N  N97  1  0.49940000  0.34620000  0.13820000  1
  N  N98  1  0.39530000  0.32130000  0.45630000  1
  N  N99  1  0.99940000  0.20800000  0.34620000  1
  N  N100  1  0.99940000  0.13820000  0.79200000  1
  N  N101  1  0.39530000  0.13500000  0.67870000  1
  N  N102  1  0.80990000  0.13240000  0.50060000  1
  N  N103  1  0.19770000  0.06120000  0.42740000  1
  O  O104  1  0.09260000  0.95101000  0.18151000  1
  O  O105  1  0.25260000  0.94190000  0.75380000  1
  O  O106  1  0.09260000  0.81849000  0.76950000  1
  O  O107  1  0.25260000  0.81190000  0.05810000  1
  O  O108  1  0.59260000  0.76950000  0.95101000  1
  O  O109  1  0.75260000  0.75380000  0.81190000  1
  O  O110  1  0.25260000  0.24620000  0.18810000  1
  O  O111  1  0.09260000  0.23050000  0.04899000  1
  O  O112  1  0.75260000  0.18810000  0.94190000  1
  O  O113  1  0.59260000  0.18151000  0.23050000  1
  O  O114  1  0.75260000  0.05810000  0.24620000  1
  O  O115  1  0.59260000  0.04899000  0.81849000  1
