# generated using pymatgen
data_ZnH6C2N5F
_symmetry_space_group_name_H-M   'P 1'
_cell_length_a   9.85380000
_cell_length_b   11.20143374
_cell_length_c   11.20143374
_cell_angle_alpha   111.77878197
_cell_angle_beta   107.05144991
_cell_angle_gamma   107.05144991
_symmetry_Int_Tables_number   1
_chemical_formula_structural   ZnH6C2N5F
_chemical_formula_sum   'Zn6 H36 C12 N30 F6'
_cell_volume   978.66800807
_cell_formula_units_Z   6
loop_
 _symmetry_equiv_pos_site_id
 _symmetry_equiv_pos_as_xyz
  1  'x, y, z'
loop_
 _atom_site_type_symbol
 _atom_site_label
 _atom_site_symmetry_multiplicity
 _atom_site_fract_x
 _atom_site_fract_y
 _atom_site_fract_z
 _atom_site_occupancy
  C  C0  1  0.20406000  0.58877000  0.53020000  1
  C  C1  1  0.70406000  0.53020000  0.58877000  1
  C  C2  1  0.61529000  0.94143000  0.41123000  1
  C  C3  1  0.11529000  0.41123000  0.94143000  1
  C  C4  1  0.82614000  0.94143000  0.53020000  1
  C  C5  1  0.32614000  0.53020000  0.94143000  1
  C  C6  1  0.17386000  0.05857000  0.46980000  1
  C  C7  1  0.67386000  0.46980000  0.05857000  1
  C  C8  1  0.38471000  0.05857000  0.58877000  1
  C  C9  1  0.88471000  0.58877000  0.05857000  1
  C  C10  1  0.29594000  0.46980000  0.41123000  1
  C  C11  1  0.79594000  0.41123000  0.46980000  1
  F  F12  1  0.25000000  0.74547000  0.25453000  1
  F  F13  1  0.75000000  0.25453000  0.74547000  1
  F  F14  1  0.99547000  0.74547000  0.49094000  1
  F  F15  1  0.49547000  0.49094000  0.74547000  1
  F  F16  1  0.50453000  0.50906000  0.25453000  1
  F  F17  1  0.00453000  0.25453000  0.50906000  1
  H  H18  1  0.42540000  0.93040000  0.27580000  1
  H  H19  1  0.92540000  0.27580000  0.93040000  1
  H  H20  1  0.16440000  0.62200000  0.59450000  1
  H  H21  1  0.66440000  0.59450000  0.62200000  1
  H  H22  1  0.96170000  0.91740000  0.30530000  1
  H  H23  1  0.46170000  0.30530000  0.91740000  1
  H  H24  1  0.65640000  0.69470000  0.61210000  1
  H  H25  1  0.15640000  0.61210000  0.69470000  1
  H  H26  1  0.54240000  0.97250000  0.37800000  1
  H  H27  1  0.04240000  0.37800000  0.97250000  1
  H  H28  1  0.14960000  0.72420000  0.65460000  1
  H  H29  1  0.64960000  0.65460000  0.72420000  1
  H  H30  1  0.99500000  0.06960000  0.34540000  1
  H  H31  1  0.49500000  0.34540000  0.06960000  1
  H  H32  1  0.06990000  0.02750000  0.40550000  1
  H  H33  1  0.56990000  0.40550000  0.02750000  1
  H  H34  1  0.54430000  0.08260000  0.38790000  1
  H  H35  1  0.04430000  0.38790000  0.08260000  1
  H  H36  1  0.45570000  0.91740000  0.61210000  1
  H  H37  1  0.95570000  0.61210000  0.91740000  1
  H  H38  1  0.93010000  0.97250000  0.59450000  1
  H  H39  1  0.43010000  0.59450000  0.97250000  1
  H  H40  1  0.00500000  0.93040000  0.65460000  1
  H  H41  1  0.50500000  0.65460000  0.93040000  1
  H  H42  1  0.35040000  0.34540000  0.27580000  1
  H  H43  1  0.85040000  0.27580000  0.34540000  1
  H  H44  1  0.45760000  0.02750000  0.62200000  1
  H  H45  1  0.95760000  0.62200000  0.02750000  1
  H  H46  1  0.84360000  0.38790000  0.30530000  1
  H  H47  1  0.34360000  0.30530000  0.38790000  1
  H  H48  1  0.03830000  0.08260000  0.69470000  1
  H  H49  1  0.53830000  0.69470000  0.08260000  1
  H  H50  1  0.33560000  0.40550000  0.37800000  1
  H  H51  1  0.83560000  0.37800000  0.40550000  1
  H  H52  1  0.57460000  0.06960000  0.72420000  1
  H  H53  1  0.07460000  0.72420000  0.06960000  1
  N  N54  1  0.75000000  0.51596000  0.48404000  1
  N  N55  1  0.25000000  0.48404000  0.51596000  1
  N  N56  1  0.21970000  0.63688000  0.44153000  1
  N  N57  1  0.71970000  0.44153000  0.63688000  1
  N  N58  1  0.58282000  0.80465000  0.36312000  1
  N  N59  1  0.08282000  0.36312000  0.80465000  1
  N  N60  1  0.72183000  0.80465000  0.44153000  1
  N  N61  1  0.22183000  0.44153000  0.80465000  1
  N  N62  1  0.16520000  0.64950000  0.64080000  1
  N  N63  1  0.66520000  0.64080000  0.64950000  1
  N  N64  1  0.51570000  0.99130000  0.35050000  1
  N  N65  1  0.01570000  0.35050000  0.99130000  1
  N  N66  1  0.02440000  0.00870000  0.35920000  1
  N  N67  1  0.52440000  0.35920000  0.00870000  1
  N  N68  1  0.23404000  0.96808000  0.48404000  1
  N  N69  1  0.73404000  0.48404000  0.96808000  1
  N  N70  1  0.76596000  0.03192000  0.51596000  1
  N  N71  1  0.26596000  0.51596000  0.03192000  1
  N  N72  1  0.97560000  0.99130000  0.64080000  1
  N  N73  1  0.47560000  0.64080000  0.99130000  1
  N  N74  1  0.48430000  0.00870000  0.64950000  1
  N  N75  1  0.98430000  0.64950000  0.00870000  1
  N  N76  1  0.33480000  0.35920000  0.35050000  1
  N  N77  1  0.83480000  0.35050000  0.35920000  1
  N  N78  1  0.27817000  0.19535000  0.55847000  1
  N  N79  1  0.77817000  0.55847000  0.19535000  1
  N  N80  1  0.41718000  0.19535000  0.63688000  1
  N  N81  1  0.91718000  0.63688000  0.19535000  1
  N  N82  1  0.28030000  0.55847000  0.36312000  1
  N  N83  1  0.78030000  0.36312000  0.55847000  1
  Zn  Zn84  1  0.75000000  0.62358667  0.37641333  1
  Zn  Zn85  1  0.25000000  0.37641333  0.62358667  1
  Zn  Zn86  1  0.12641333  0.75282667  0.37641333  1
  Zn  Zn87  1  0.62641333  0.37641333  0.75282667  1
  Zn  Zn88  1  0.87358667  0.24717333  0.62358667  1
  Zn  Zn89  1  0.37358667  0.62358667  0.24717333  1
