# generated using pymatgen
data_Ga3P3O13
_symmetry_space_group_name_H-M   'P 1'
_cell_length_a   8.87148547
_cell_length_b   8.87148547
_cell_length_c   18.03500000
_cell_angle_alpha   90.00000000
_cell_angle_beta   90.00000000
_cell_angle_gamma   107.32844285
_symmetry_Int_Tables_number   1
_chemical_formula_structural   Ga3P3O13
_chemical_formula_sum   'Ga12 P12 O52'
_cell_volume   1354.99037141
_cell_formula_units_Z   4
loop_
 _symmetry_equiv_pos_site_id
 _symmetry_equiv_pos_as_xyz
  1  'x, y, z'
loop_
 _atom_site_type_symbol
 _atom_site_label
 _atom_site_symmetry_multiplicity
 _atom_site_fract_x
 _atom_site_fract_y
 _atom_site_fract_z
 _atom_site_occupancy
  Ga  Ga0  1  0.29610000  0.41110000  0.89070000  1
  Ga  Ga1  1  0.74980000  0.49920000  0.81500000  1
  Ga  Ga2  1  0.65940000  0.95640000  0.79720000  1
  Ga  Ga3  1  0.15940000  0.45640000  0.70280000  1
  Ga  Ga4  1  0.24980000  0.99920000  0.68500000  1
  Ga  Ga5  1  0.79610000  0.91110000  0.60930000  1
  Ga  Ga6  1  0.08890000  0.20390000  0.39070000  1
  Ga  Ga7  1  0.00080000  0.75020000  0.31500000  1
  Ga  Ga8  1  0.54360000  0.84060000  0.29720000  1
  Ga  Ga9  1  0.04360000  0.34060000  0.20280000  1
  Ga  Ga10  1  0.50080000  0.25020000  0.18500000  1
  Ga  Ga11  1  0.58890000  0.70390000  0.10930000  1
  O  O12  1  0.28080000  0.35660000  0.99430000  1
  O  O13  1  0.41950000  0.61770000  0.91410000  1
  O  O14  1  0.67460000  0.56400000  0.89740000  1
  O  O15  1  0.09070000  0.28010000  0.88440000  1
  O  O16  1  0.66290000  0.83970000  0.88170000  1
  O  O17  1  0.40920000  0.26920000  0.86720000  1
  O  O18  1  0.90450000  0.42030000  0.84750000  1
  O  O19  1  0.82080000  0.12300000  0.84440000  1
  O  O20  1  0.50800000  0.06440000  0.81160000  1
  O  O21  1  0.27750000  0.49870000  0.79150000  1
  O  O22  1  0.60270000  0.34590000  0.76390000  1
  O  O23  1  0.83230000  0.68010000  0.76140000  1
  O  O24  1  0.00640000  0.27840000  0.75040000  1
  O  O25  1  0.50640000  0.77840000  0.74960000  1
  O  O26  1  0.33230000  0.18010000  0.73860000  1
  O  O27  1  0.10270000  0.84590000  0.73610000  1
  O  O28  1  0.77750000  0.99870000  0.70850000  1
  O  O29  1  0.00800000  0.56440000  0.68840000  1
  O  O30  1  0.32080000  0.62300000  0.65560000  1
  O  O31  1  0.40450000  0.92030000  0.65250000  1
  O  O32  1  0.90920000  0.76920000  0.63280000  1
  O  O33  1  0.16290000  0.33970000  0.61830000  1
  O  O34  1  0.59070000  0.78010000  0.61560000  1
  O  O35  1  0.17460000  0.06400000  0.60260000  1
  O  O36  1  0.91950000  0.11770000  0.58590000  1
  O  O37  1  0.78080000  0.85660000  0.50570000  1
  O  O38  1  0.14340000  0.21920000  0.49430000  1
  O  O39  1  0.88230000  0.08050000  0.41410000  1
  O  O40  1  0.93600000  0.82540000  0.39740000  1
  O  O41  1  0.21990000  0.40930000  0.38440000  1
  O  O42  1  0.66030000  0.83710000  0.38170000  1
  O  O43  1  0.23080000  0.09080000  0.36720000  1
  O  O44  1  0.07970000  0.59550000  0.34750000  1
  O  O45  1  0.37700000  0.67920000  0.34440000  1
  O  O46  1  0.43560000  0.99200000  0.31160000  1
  O  O47  1  0.00130000  0.22250000  0.29150000  1
  O  O48  1  0.15410000  0.89730000  0.26390000  1
  O  O49  1  0.81990000  0.66770000  0.26140000  1
  O  O50  1  0.22160000  0.49360000  0.25040000  1
  O  O51  1  0.72160000  0.99360000  0.24960000  1
  O  O52  1  0.31990000  0.16770000  0.23860000  1
  O  O53  1  0.65410000  0.39730000  0.23610000  1
  O  O54  1  0.50130000  0.72250000  0.20850000  1
  O  O55  1  0.93560000  0.49200000  0.18840000  1
  O  O56  1  0.87700000  0.17920000  0.15560000  1
  O  O57  1  0.57970000  0.09550000  0.15250000  1
  O  O58  1  0.73080000  0.59080000  0.13280000  1
  O  O59  1  0.16030000  0.33710000  0.11830000  1
  O  O60  1  0.71990000  0.90930000  0.11560000  1
  O  O61  1  0.43600000  0.32540000  0.10260000  1
  O  O62  1  0.38230000  0.58050000  0.08590000  1
  O  O63  1  0.64340000  0.71920000  0.00570000  1
  P  P64  1  0.59800000  0.68680000  0.92490000  1
  P  P65  1  0.95360000  0.27320000  0.83070000  1
  P  P66  1  0.46480000  0.21420000  0.79580000  1
  P  P67  1  0.96480000  0.71420000  0.70420000  1
  P  P68  1  0.45360000  0.77320000  0.66930000  1
  P  P69  1  0.09800000  0.18680000  0.57510000  1
  P  P70  1  0.81320000  0.90200000  0.42490000  1
  P  P71  1  0.22680000  0.54640000  0.33070000  1
  P  P72  1  0.28580000  0.03520000  0.29580000  1
  P  P73  1  0.78580000  0.53520000  0.20420000  1
  P  P74  1  0.72680000  0.04640000  0.16930000  1
  P  P75  1  0.31320000  0.40200000  0.07510000  1
