# generated using pymatgen
data_LaH15(C9O2)3
_symmetry_space_group_name_H-M   'P 1'
_cell_length_a   13.99990000
_cell_length_b   14.64700000
_cell_length_c   22.44509480
_cell_angle_alpha   109.04345057
_cell_angle_beta   100.50812736
_cell_angle_gamma   90.00000000
_symmetry_Int_Tables_number   1
_chemical_formula_structural   LaH15(C9O2)3
_chemical_formula_sum   'La4 H60 C108 O24'
_cell_volume   4268.88361427
_cell_formula_units_Z   4
loop_
 _symmetry_equiv_pos_site_id
 _symmetry_equiv_pos_as_xyz
  1  'x, y, z'
loop_
 _atom_site_type_symbol
 _atom_site_label
 _atom_site_symmetry_multiplicity
 _atom_site_fract_x
 _atom_site_fract_y
 _atom_site_fract_z
 _atom_site_occupancy
  C  C0  1  0.92184000  0.31654000  0.85728000  1
  C  C1  1  0.42184000  0.54074000  0.85728000  1
  C  C2  1  0.42813000  0.71143000  0.88086000  1
  C  C3  1  0.92813000  0.16943000  0.88086000  1
  C  C4  1  0.75831000  0.16951000  0.55442000  1
  C  C5  1  0.25831000  0.38491000  0.55442000  1
  C  C6  1  0.91712000  0.26822000  0.90144000  1
  C  C7  1  0.41712000  0.63322000  0.90144000  1
  C  C8  1  0.05390000  0.87870000  0.17860000  1
  C  C9  1  0.55390000  0.29990000  0.17860000  1
  C  C10  1  0.55717000  0.47117000  0.20174000  1
  C  C11  1  0.05717000  0.73057000  0.20174000  1
  C  C12  1  0.70063000  0.21453000  0.51646000  1
  C  C13  1  0.20063000  0.30193000  0.51646000  1
  C  C14  1  0.74983000  0.19263000  0.61866000  1
  C  C15  1  0.24983000  0.42603000  0.61866000  1
  C  C16  1  0.67071000  0.56801000  0.47202000  1
  C  C17  1  0.17071000  0.90401000  0.47202000  1
  C  C18  1  0.54179000  0.39189000  0.21998000  1
  C  C19  1  0.04179000  0.82809000  0.21998000  1
  C  C20  1  0.89711000  0.31991000  0.96882000  1
  C  C21  1  0.39711000  0.64891000  0.96882000  1
  C  C22  1  0.89528000  0.42018000  0.99076000  1
  C  C23  1  0.39528000  0.57058000  0.99076000  1
  C  C24  1  0.88393000  0.26753000  0.00866000  1
  C  C25  1  0.38393000  0.74113000  0.00866000  1
  C  C26  1  0.51173000  0.40173000  0.28246000  1
  C  C27  1  0.01173000  0.88073000  0.28246000  1
  C  C28  1  0.14031000  0.25931000  0.54262000  1
  C  C29  1  0.64031000  0.28331000  0.54262000  1
  C  C30  1  0.68359000  0.25799000  0.64498000  1
  C  C31  1  0.18359000  0.38699000  0.64498000  1
  C  C32  1  0.88017000  0.46797000  0.05254000  1
  C  C33  1  0.38017000  0.58457000  0.05254000  1
  C  C34  1  0.86883000  0.31533000  0.07046000  1
  C  C35  1  0.36883000  0.75513000  0.07046000  1
  C  C36  1  0.13216000  0.30166000  0.60712000  1
  C  C37  1  0.63216000  0.30546000  0.60712000  1
  C  C38  1  0.07893000  0.16803000  0.50106000  1
  C  C39  1  0.57893000  0.33303000  0.50106000  1
  C  C40  1  0.86690000  0.41560000  0.09240000  1
  C  C41  1  0.36690000  0.67680000  0.09240000  1
  C  C42  1  0.67245000  0.27605000  0.71230000  1
  C  C43  1  0.17245000  0.43625000  0.71230000  1
  C  C44  1  0.68393000  0.20403000  0.73986000  1
  C  C45  1  0.18393000  0.53583000  0.73986000  1
  C  C46  1  0.64849000  0.36619000  0.75078000  1
  C  C47  1  0.85285000  0.46745000  0.15950000  1
  C  C48  1  0.35285000  0.69205000  0.15950000  1
  C  C49  1  0.14849000  0.38459000  0.75078000  1
  C  C50  1  0.67149000  0.22049000  0.80258000  1
  C  C51  1  0.17149000  0.58209000  0.80258000  1
  C  C52  1  0.86221000  0.56661000  0.18682000  1
  C  C53  1  0.36221000  0.62021000  0.18682000  1
  C  C54  1  0.63779000  0.37979000  0.81318000  1
  C  C55  1  0.13779000  0.43339000  0.81318000  1
  C  C56  1  0.82851000  0.41791000  0.19742000  1
  C  C57  1  0.32851000  0.77951000  0.19742000  1
  C  C58  1  0.85151000  0.61541000  0.24922000  1
  C  C59  1  0.64715000  0.30795000  0.84050000  1
  C  C60  1  0.14715000  0.53255000  0.84050000  1
  C  C61  1  0.35151000  0.63381000  0.24922000  1
  C  C62  1  0.81607000  0.46417000  0.26014000  1
  C  C63  1  0.31607000  0.79597000  0.26014000  1
  C  C64  1  0.82755000  0.56375000  0.28770000  1
  C  C65  1  0.32755000  0.72395000  0.28770000  1
  C  C66  1  0.63310000  0.32320000  0.90760000  1
  C  C67  1  0.13310000  0.58440000  0.90760000  1
  C  C68  1  0.42107000  0.66697000  0.49894000  1
  C  C69  1  0.92107000  0.83197000  0.49894000  1
  C  C70  1  0.36784000  0.69454000  0.39288000  1
  C  C71  1  0.86784000  0.69834000  0.39288000  1
  C  C72  1  0.63117000  0.24487000  0.92954000  1
  C  C73  1  0.13117000  0.68467000  0.92954000  1
  C  C74  1  0.61983000  0.41543000  0.94746000  1
  C  C75  1  0.11983000  0.53203000  0.94746000  1
  C  C76  1  0.81641000  0.61301000  0.35502000  1
  C  C77  1  0.31641000  0.74201000  0.35502000  1
  C  C78  1  0.35969000  0.71669000  0.45738000  1
  C  C79  1  0.85969000  0.74069000  0.45738000  1
  C  C80  1  0.98827000  0.11927000  0.71754000  1
  C  C81  1  0.48827000  0.59827000  0.71754000  1
  C  C82  1  0.61607000  0.25887000  0.99134000  1
  C  C83  1  0.11607000  0.73247000  0.99134000  1
  C  C84  1  0.60472000  0.42942000  0.00924000  1
  C  C85  1  0.10472000  0.57982000  0.00924000  1
  C  C86  1  0.60289000  0.35109000  0.03118000  1
  C  C87  1  0.10289000  0.68009000  0.03118000  1
  C  C88  1  0.95821000  0.17191000  0.78002000  1
  C  C89  1  0.45821000  0.60811000  0.78002000  1
  C  C90  1  0.82929000  0.09599000  0.52798000  1
  C  C91  1  0.32929000  0.43199000  0.52798000  1
  C  C92  1  0.75017000  0.57397000  0.38134000  1
  C  C93  1  0.25017000  0.80737000  0.38134000  1
  C  C94  1  0.79937000  0.69807000  0.48354000  1
  C  C95  1  0.29937000  0.78547000  0.48354000  1
  C  C96  1  0.94283000  0.26943000  0.79826000  1
  C  C97  1  0.44283000  0.52883000  0.79826000  1
  C  C98  1  0.44610000  0.70010000  0.82140000  1
  C  C99  1  0.94610000  0.12130000  0.82140000  1
  C  C100  1  0.58288000  0.36678000  0.09856000  1
  C  C101  1  0.08288000  0.73178000  0.09856000  1
  C  C102  1  0.74169000  0.61509000  0.44558000  1
  C  C103  1  0.24169000  0.83049000  0.44558000  1
  C  C104  1  0.07187000  0.83057000  0.11914000  1
  C  C105  1  0.57187000  0.28857000  0.11914000  1
  C  C106  1  0.57816000  0.45926000  0.14272000  1
  C  C107  1  0.07816000  0.68346000  0.14272000  1
  H  H108  1  0.91050000  0.38200000  0.86840000  1
  H  H109  1  0.41050000  0.48640000  0.86840000  1
  H  H110  1  0.42300000  0.77350000  0.90860000  1
  H  H111  1  0.92300000  0.13510000  0.90860000  1
  H  H112  1  0.78930000  0.16380000  0.64460000  1
  H  H113  1  0.28930000  0.48080000  0.64460000  1
  H  H114  1  0.70310000  0.19790000  0.47320000  1
  H  H115  1  0.20310000  0.27530000  0.47320000  1
  H  H116  1  0.04960000  0.94540000  0.19160000  1
  H  H117  1  0.54960000  0.24620000  0.19160000  1
  H  H118  1  0.55320000  0.53310000  0.22980000  1
  H  H119  1  0.05320000  0.69670000  0.22980000  1
  H  H120  1  0.90410000  0.45520000  0.96400000  1
  H  H121  1  0.40410000  0.50880000  0.96400000  1
  H  H122  1  0.38520000  0.79360000  0.99400000  1
  H  H123  1  0.88520000  0.20040000  0.99400000  1
  H  H124  1  0.37890000  0.53210000  0.06720000  1
  H  H125  1  0.87890000  0.53510000  0.06720000  1
  H  H126  1  0.70030000  0.14330000  0.71600000  1
  H  H127  1  0.20030000  0.57270000  0.71600000  1
  H  H128  1  0.36000000  0.81690000  0.09720000  1
  H  H129  1  0.86000000  0.28030000  0.09720000  1
  H  H130  1  0.37640000  0.55910000  0.16200000  1
  H  H131  1  0.87640000  0.60290000  0.16200000  1
  H  H132  1  0.09140000  0.27150000  0.62440000  1
  H  H133  1  0.59140000  0.35290000  0.62440000  1
  H  H134  1  0.13970000  0.31740000  0.73440000  1
  H  H135  1  0.63970000  0.41700000  0.73440000  1
  H  H136  1  0.68000000  0.17010000  0.81940000  1
  H  H137  1  0.18000000  0.64930000  0.81940000  1
  H  H138  1  0.82000000  0.35070000  0.18060000  1
  H  H139  1  0.32000000  0.82990000  0.18060000  1
  H  H140  1  0.36030000  0.58300000  0.26560000  1
  H  H141  1  0.86030000  0.68260000  0.26560000  1
  H  H142  1  0.40860000  0.64710000  0.37560000  1
  H  H143  1  0.90860000  0.72850000  0.37560000  1
  H  H144  1  0.12360000  0.39710000  0.83800000  1
  H  H145  1  0.62360000  0.44090000  0.83800000  1
  H  H146  1  0.14000000  0.71970000  0.90280000  1
  H  H147  1  0.64000000  0.18310000  0.90280000  1
  H  H148  1  0.79970000  0.42730000  0.28400000  1
  H  H149  1  0.29970000  0.85670000  0.28400000  1
  H  H150  1  0.12110000  0.46490000  0.93280000  1
  H  H151  1  0.62110000  0.46790000  0.93280000  1
  H  H152  1  0.11480000  0.79960000  0.00600000  1
  H  H153  1  0.61480000  0.20640000  0.00600000  1
  H  H154  1  0.59590000  0.49120000  0.03600000  1
  H  H155  1  0.09590000  0.54480000  0.03600000  1
  H  H156  1  0.94680000  0.30330000  0.77020000  1
  H  H157  1  0.44680000  0.46690000  0.77020000  1
  H  H158  1  0.45040000  0.75380000  0.80840000  1
  H  H159  1  0.95040000  0.05460000  0.80840000  1
  H  H160  1  0.79690000  0.72470000  0.52680000  1
  H  H161  1  0.29690000  0.80210000  0.52680000  1
  H  H162  1  0.71070000  0.51920000  0.35540000  1
  H  H163  1  0.21070000  0.83620000  0.35540000  1
  H  H164  1  0.07700000  0.86490000  0.09140000  1
  H  H165  1  0.57700000  0.22650000  0.09140000  1
  H  H166  1  0.58950000  0.51360000  0.13160000  1
  H  H167  1  0.08950000  0.61800000  0.13160000  1
  La  La168  1  0.95679000  0.98996000  0.40496000  1
  La  La169  1  0.45679000  0.41500000  0.40496000  1
  La  La170  1  0.54321000  0.58500000  0.59504000  1
  La  La171  1  0.04321000  0.01004000  0.59504000  1
  O  O172  1  0.62378000  0.49078000  0.43496000  1
  O  O173  1  0.12378000  0.94418000  0.43496000  1
  O  O174  1  0.66215000  0.60845000  0.52830000  1
  O  O175  1  0.16215000  0.91985000  0.52830000  1
  O  O176  1  0.01846000  0.97126000  0.30312000  1
  O  O177  1  0.51846000  0.33186000  0.30312000  1
  O  O178  1  0.06130000  0.14940000  0.44140000  1
  O  O179  1  0.56130000  0.29200000  0.44140000  1
  O  O180  1  0.48322000  0.48092000  0.31464000  1
  O  O181  1  0.98322000  0.83372000  0.31464000  1
  O  O182  1  0.04785000  0.11305000  0.52710000  1
  O  O183  1  0.54785000  0.41405000  0.52710000  1
  O  O184  1  0.45215000  0.58595000  0.47290000  1
  O  O185  1  0.95215000  0.88695000  0.47290000  1
  O  O186  1  0.01678000  0.16628000  0.68536000  1
  O  O187  1  0.51678000  0.51908000  0.68536000  1
  O  O188  1  0.43870000  0.70800000  0.55860000  1
  O  O189  1  0.93870000  0.85060000  0.55860000  1
  O  O190  1  0.48154000  0.66814000  0.69688000  1
  O  O191  1  0.98154000  0.02874000  0.69688000  1
  O  O192  1  0.83785000  0.08015000  0.47170000  1
  O  O193  1  0.33785000  0.39155000  0.47170000  1
  O  O194  1  0.87622000  0.05582000  0.56504000  1
  O  O195  1  0.37622000  0.50922000  0.56504000  1
