# generated using pymatgen
data_Co3H46C70(N4O7)2
_symmetry_space_group_name_H-M   'P 1'
_cell_length_a   9.35210000
_cell_length_b   11.34710000
_cell_length_c   18.80780000
_cell_angle_alpha   79.46000000
_cell_angle_beta   79.46200000
_cell_angle_gamma   66.51200000
_symmetry_Int_Tables_number   1
_chemical_formula_structural   Co3H46C70(N4O7)2
_chemical_formula_sum   'Co3 H46 C70 N8 O14'
_cell_volume   1786.17536309
_cell_formula_units_Z   1
loop_
 _symmetry_equiv_pos_site_id
 _symmetry_equiv_pos_as_xyz
  1  'x, y, z'
loop_
 _atom_site_type_symbol
 _atom_site_label
 _atom_site_symmetry_multiplicity
 _atom_site_fract_x
 _atom_site_fract_y
 _atom_site_fract_z
 _atom_site_occupancy
  Co  Co0  1  0.00000000  0.00000000  0.00000000  1
  Co  Co1  1  0.39464000  0.18953000  0.28192000  1
  Co  Co2  1  0.60536000  0.81047000  0.71808000  1
  H  H3  1  0.00760000  0.62400000  0.17460000  1
  H  H4  1  0.03440000  0.98420000  0.61610000  1
  H  H5  1  0.04800000  0.43700000  0.60800000  1
  H  H6  1  0.09950000  0.85540000  0.28630000  1
  H  H7  1  0.12830000  0.08960000  0.29870000  1
  H  H8  1  0.13360000  0.61030000  0.51100000  1
  H  H9  1  0.15160000  0.20710000  0.62230000  1
  H  H10  1  0.16320000  0.37800000  0.38640000  1
  H  H11  1  0.18040000  0.04840000  0.53720000  1
  H  H12  1  0.20600000  0.63480000  0.61660000  1
  H  H13  1  0.21530000  0.42950000  0.17560000  1
  H  H14  1  0.22360000  0.72000000  0.99560000  1
  H  H15  1  0.22670000  0.13410000  0.00180000  1
  H  H16  1  0.23140000  0.51800000  0.99560000  1
  H  H17  1  0.23200000  0.33320000  0.99950000  1
  H  H18  1  0.26860000  0.25020000  0.80640000  1
  H  H19  1  0.33760000  0.11880000  0.44840000  1
  H  H20  1  0.35030000  0.00950000  0.62510000  1
  H  H21  1  0.42480000  0.43060000  0.80580000  1
  H  H22  1  0.45080000  0.74480000  0.39240000  1
  H  H23  1  0.47230000  0.05710000  0.79930000  1
  H  H24  1  0.47550000  0.23460000  0.50050000  1
  H  H25  1  0.48220000  0.54190000  0.31740000  1
  H  H26  1  0.51780000  0.45810000  0.68260000  1
  H  H27  1  0.52450000  0.76540000  0.49950000  1
  H  H28  1  0.52770000  0.94290000  0.20070000  1
  H  H29  1  0.54920000  0.25520000  0.60760000  1
  H  H30  1  0.57520000  0.56940000  0.19420000  1
  H  H31  1  0.64970000  0.99050000  0.37490000  1
  H  H32  1  0.66240000  0.88120000  0.55160000  1
  H  H33  1  0.73140000  0.74980000  0.19360000  1
  H  H34  1  0.76800000  0.66680000  0.00050000  1
  H  H35  1  0.76860000  0.48200000  0.00440000  1
  H  H36  1  0.77330000  0.86590000  0.99820000  1
  H  H37  1  0.77640000  0.28000000  0.00440000  1
  H  H38  1  0.78470000  0.57050000  0.82440000  1
  H  H39  1  0.79400000  0.36520000  0.38340000  1
  H  H40  1  0.81960000  0.95160000  0.46280000  1
  H  H41  1  0.83680000  0.62200000  0.61360000  1
  H  H42  1  0.84840000  0.79290000  0.37770000  1
  H  H43  1  0.86640000  0.38970000  0.48900000  1
  H  H44  1  0.87170000  0.91040000  0.70130000  1
  H  H45  1  0.90050000  0.14460000  0.71370000  1
  H  H46  1  0.95200000  0.56300000  0.39200000  1
  H  H47  1  0.96560000  0.01580000  0.38390000  1
  H  H48  1  0.99240000  0.37600000  0.82540000  1
  C  C49  1  0.00120000  0.43440000  0.00070000  1
  C  C50  1  0.00260000  0.54250000  0.34640000  1
  C  C51  1  0.03540000  0.57500000  0.21890000  1
  C  C52  1  0.04050000  0.03710000  0.39900000  1
  C  C53  1  0.04830000  0.38040000  0.71730000  1
  C  C54  1  0.05210000  0.02310000  0.47180000  1
  C  C55  1  0.12950000  0.70970000  0.99660000  1
  C  C56  1  0.13010000  0.42710000  0.34290000  1
  C  C57  1  0.13100000  0.92120000  0.14500000  1
  C  C58  1  0.13250000  0.20560000  0.00160000  1
  C  C59  1  0.13500000  0.58730000  0.99690000  1
  C  C60  1  0.13630000  0.32560000  0.00040000  1
  C  C61  1  0.13920000  0.08250000  0.34760000  1
  C  C62  1  0.16110000  0.45720000  0.22000000  1
  C  C63  1  0.16600000  0.05580000  0.48870000  1
  C  C64  1  0.18140000  0.25400000  0.71530000  1
  C  C65  1  0.19510000  0.79760000  0.26690000  1
  C  C66  1  0.21090000  0.64340000  0.50870000  1
  C  C67  1  0.21270000  0.17780000  0.66050000  1
  C  C68  1  0.24410000  0.81610000  0.19280000  1
  C  C69  1  0.25510000  0.65770000  0.57170000  1
  C  C70  1  0.25960000  0.09940000  0.43460000  1
  C  C71  1  0.28270000  0.20370000  0.76810000  1
  C  C72  1  0.28300000  0.67880000  0.44240000  1
  C  C73  1  0.28400000  0.69650000  0.31180000  1
  C  C74  1  0.33410000  0.05890000  0.66240000  1
  C  C75  1  0.37160000  0.70570000  0.56920000  1
  C  C76  1  0.39070000  0.72990000  0.16520000  1
  C  C77  1  0.40090000  0.72340000  0.43750000  1
  C  C78  1  0.40370000  0.08580000  0.76410000  1
  C  C79  1  0.40590000  0.73140000  0.63880000  1
  C  C80  1  0.42330000  0.61110000  0.28630000  1
  C  C81  1  0.44400000  0.73580000  0.50200000  1
  C  C82  1  0.46100000  0.74350000  0.08630000  1
  C  C83  1  0.47830000  0.62770000  0.21220000  1
  C  C84  1  0.52170000  0.37230000  0.78780000  1
  C  C85  1  0.53900000  0.25650000  0.91370000  1
  C  C86  1  0.55600000  0.26420000  0.49800000  1
  C  C87  1  0.57670000  0.38890000  0.71370000  1
  C  C88  1  0.59410000  0.26860000  0.36120000  1
  C  C89  1  0.59630000  0.91420000  0.23590000  1
  C  C90  1  0.59910000  0.27660000  0.56250000  1
  C  C91  1  0.60930000  0.27010000  0.83480000  1
  C  C92  1  0.62840000  0.29430000  0.43080000  1
  C  C93  1  0.66590000  0.94110000  0.33760000  1
  C  C94  1  0.71600000  0.30350000  0.68820000  1
  C  C95  1  0.71700000  0.32120000  0.55760000  1
  C  C96  1  0.71730000  0.79630000  0.23190000  1
  C  C97  1  0.74040000  0.90060000  0.56540000  1
  C  C98  1  0.74490000  0.34230000  0.42830000  1
  C  C99  1  0.75590000  0.18390000  0.80720000  1
  C  C100  1  0.78730000  0.82220000  0.33950000  1
  C  C101  1  0.78910000  0.35660000  0.49130000  1
  C  C102  1  0.80490000  0.20240000  0.73310000  1
  C  C103  1  0.81860000  0.74600000  0.28470000  1
  C  C104  1  0.83400000  0.94420000  0.51130000  1
  C  C105  1  0.83890000  0.54280000  0.78000000  1
  C  C106  1  0.86080000  0.91750000  0.65240000  1
  C  C107  1  0.86370000  0.67440000  0.99960000  1
  C  C108  1  0.86500000  0.41270000  0.00310000  1
  C  C109  1  0.86750000  0.79440000  0.99840000  1
  C  C110  1  0.86900000  0.07880000  0.85500000  1
  C  C111  1  0.86990000  0.57290000  0.65710000  1
  C  C112  1  0.87050000  0.29030000  0.00340000  1
  C  C113  1  0.94790000  0.97690000  0.52820000  1
  C  C114  1  0.95170000  0.61960000  0.28270000  1
  C  C115  1  0.95950000  0.96290000  0.60100000  1
  C  C116  1  0.96460000  0.42500000  0.78110000  1
  C  C117  1  0.99740000  0.45750000  0.65360000  1
  C  C118  1  0.99880000  0.56560000  0.99930000  1
  N  N119  1  0.00090000  0.18620000  0.00235000  1
  N  N120  1  0.20870000  0.38170000  0.28058000  1
  N  N121  1  0.24660000  0.11600000  0.36398000  1
  N  N122  1  0.42960000  0.00980000  0.71345000  1
  N  N123  1  0.57040000  0.99020000  0.28655000  1
  N  N124  1  0.75340000  0.88400000  0.63602000  1
  N  N125  1  0.79130000  0.61830000  0.71942000  1
  N  N126  1  0.99910000  0.81380000  0.99765000  1
  O  O127  1  0.01350000  0.00400000  0.17683000  1
  O  O128  1  0.15500000  0.91310000  0.07906000  1
  O  O129  1  0.21630000  0.67420000  0.38371000  1
  O  O130  1  0.32140000  0.71340000  0.69610000  1
  O  O131  1  0.48350000  0.65370000  0.05086000  1
  O  O132  1  0.48370000  0.22900000  0.36537000  1
  O  O133  1  0.49990000  0.16270000  0.93530000  1
  O  O134  1  0.50010000  0.83730000  0.06470000  1
  O  O135  1  0.51630000  0.77100000  0.63463000  1
  O  O136  1  0.51650000  0.34630000  0.94914000  1
  O  O137  1  0.67860000  0.28660000  0.30390000  1
  O  O138  1  0.78370000  0.32580000  0.61629000  1
  O  O139  1  0.84500000  0.08690000  0.92094000  1
  O  O140  1  0.98650000  0.99600000  0.82317000  1
