# generated using pymatgen
data_TbH16C24NO8
_symmetry_space_group_name_H-M   'P 1'
_cell_length_a   10.90200000
_cell_length_b   16.71500000
_cell_length_c   19.20100000
_cell_angle_alpha   90.00000000
_cell_angle_beta   90.00000000
_cell_angle_gamma   90.00000000
_symmetry_Int_Tables_number   1
_chemical_formula_structural   TbH16C24NO8
_chemical_formula_sum   'Tb4 H64 C96 N4 O32'
_cell_volume   3498.93928293
_cell_formula_units_Z   4
loop_
 _symmetry_equiv_pos_site_id
 _symmetry_equiv_pos_as_xyz
  1  'x, y, z'
loop_
 _atom_site_type_symbol
 _atom_site_label
 _atom_site_symmetry_multiplicity
 _atom_site_fract_x
 _atom_site_fract_y
 _atom_site_fract_z
 _atom_site_occupancy
  Tb  Tb0  1  0.20767000  0.75000000  0.20365000  1
  Tb  Tb1  1  0.29233000  0.25000000  0.70365000  1
  Tb  Tb2  1  0.70767000  0.75000000  0.29635000  1
  Tb  Tb3  1  0.79233000  0.25000000  0.79635000  1
  H  H4  1  0.01830000  0.25000000  0.07970000  1
  H  H5  1  0.02520000  0.67400000  0.45880000  1
  H  H6  1  0.02520000  0.82600000  0.45880000  1
  H  H7  1  0.03350000  0.01100000  0.67950000  1
  H  H8  1  0.03350000  0.48900000  0.67950000  1
  H  H9  1  0.03790000  0.75000000  0.03580000  1
  H  H10  1  0.03850000  0.10650000  0.37010000  1
  H  H11  1  0.03850000  0.39350000  0.37010000  1
  H  H12  1  0.07330000  0.18060000  0.48180000  1
  H  H13  1  0.07330000  0.31940000  0.48180000  1
  H  H14  1  0.14560000  0.75000000  0.70430000  1
  H  H15  1  0.17830000  0.57150000  0.46400000  1
  H  H16  1  0.17830000  0.92850000  0.46400000  1
  H  H17  1  0.18250000  0.75000000  0.41170000  1
  H  H18  1  0.24990000  0.54800000  0.01400000  1
  H  H19  1  0.24990000  0.95200000  0.01400000  1
  H  H20  1  0.25010000  0.04800000  0.51400000  1
  H  H21  1  0.25010000  0.45200000  0.51400000  1
  H  H22  1  0.31750000  0.25000000  0.91170000  1
  H  H23  1  0.32170000  0.07150000  0.96400000  1
  H  H24  1  0.32170000  0.42850000  0.96400000  1
  H  H25  1  0.35440000  0.25000000  0.20430000  1
  H  H26  1  0.42670000  0.68060000  0.98180000  1
  H  H27  1  0.42670000  0.81940000  0.98180000  1
  H  H28  1  0.46150000  0.60650000  0.87010000  1
  H  H29  1  0.46150000  0.89350000  0.87010000  1
  H  H30  1  0.46210000  0.25000000  0.53580000  1
  H  H31  1  0.46650000  0.51100000  0.17950000  1
  H  H32  1  0.46650000  0.98900000  0.17950000  1
  H  H33  1  0.47480000  0.17400000  0.95880000  1
  H  H34  1  0.47480000  0.32600000  0.95880000  1
  H  H35  1  0.48170000  0.75000000  0.57970000  1
  H  H36  1  0.51830000  0.25000000  0.42030000  1
  H  H37  1  0.52520000  0.67400000  0.04120000  1
  H  H38  1  0.52520000  0.82600000  0.04120000  1
  H  H39  1  0.53350000  0.01100000  0.82050000  1
  H  H40  1  0.53350000  0.48900000  0.82050000  1
  H  H41  1  0.53790000  0.75000000  0.46420000  1
  H  H42  1  0.53850000  0.10650000  0.12990000  1
  H  H43  1  0.53850000  0.39350000  0.12990000  1
  H  H44  1  0.57330000  0.18060000  0.01820000  1
  H  H45  1  0.57330000  0.31940000  0.01820000  1
  H  H46  1  0.64560000  0.75000000  0.79570000  1
  H  H47  1  0.67830000  0.57150000  0.03600000  1
  H  H48  1  0.67830000  0.92850000  0.03600000  1
  H  H49  1  0.68250000  0.75000000  0.08830000  1
  H  H50  1  0.74990000  0.54800000  0.48600000  1
  H  H51  1  0.74990000  0.95200000  0.48600000  1
  H  H52  1  0.75010000  0.04800000  0.98600000  1
  H  H53  1  0.75010000  0.45200000  0.98600000  1
  H  H54  1  0.81750000  0.25000000  0.58830000  1
  H  H55  1  0.82170000  0.07150000  0.53600000  1
  H  H56  1  0.82170000  0.42850000  0.53600000  1
  H  H57  1  0.85440000  0.25000000  0.29570000  1
  H  H58  1  0.92670000  0.68060000  0.51820000  1
  H  H59  1  0.92670000  0.81940000  0.51820000  1
  H  H60  1  0.96150000  0.60650000  0.62990000  1
  H  H61  1  0.96150000  0.89350000  0.62990000  1
  H  H62  1  0.96210000  0.25000000  0.96420000  1
  H  H63  1  0.96650000  0.51100000  0.32050000  1
  H  H64  1  0.96650000  0.98900000  0.32050000  1
  H  H65  1  0.97480000  0.17400000  0.54120000  1
  H  H66  1  0.97480000  0.32600000  0.54120000  1
  H  H67  1  0.98170000  0.75000000  0.92030000  1
  C  C68  1  0.01400000  0.67670000  0.50890000  1
  C  C69  1  0.01400000  0.82330000  0.50890000  1
  C  C70  1  0.01960000  0.57580000  0.60670000  1
  C  C71  1  0.01960000  0.92420000  0.60670000  1
  C  C72  1  0.04440000  0.25000000  0.97710000  1
  C  C73  1  0.06230000  0.50470000  0.63600000  1
  C  C74  1  0.06230000  0.99530000  0.63600000  1
  C  C75  1  0.06460000  0.60040000  0.54240000  1
  C  C76  1  0.06460000  0.89960000  0.54240000  1
  C  C77  1  0.07870000  0.25000000  0.04560000  1
  C  C78  1  0.10650000  0.25000000  0.84860000  1
  C  C79  1  0.13500000  0.25000000  0.92850000  1
  C  C80  1  0.14640000  0.04280000  0.60170000  1
  C  C81  1  0.14640000  0.45720000  0.60170000  1
  C  C82  1  0.14920000  0.55490000  0.50720000  1
  C  C83  1  0.14920000  0.94510000  0.50720000  1
  C  C84  1  0.18780000  0.11790000  0.63240000  1
  C  C85  1  0.18780000  0.38210000  0.63240000  1
  C  C86  1  0.19180000  0.01740000  0.53720000  1
  C  C87  1  0.19180000  0.48260000  0.53720000  1
  C  C88  1  0.20200000  0.25000000  0.06580000  1
  C  C89  1  0.20840000  0.75000000  0.51410000  1
  C  C90  1  0.23030000  0.25000000  0.14270000  1
  C  C91  1  0.24210000  0.75000000  0.44640000  1
  C  C92  1  0.25790000  0.25000000  0.94640000  1
  C  C93  1  0.26970000  0.75000000  0.64270000  1
  C  C94  1  0.29160000  0.25000000  0.01410000  1
  C  C95  1  0.29800000  0.75000000  0.56580000  1
  C  C96  1  0.30820000  0.51740000  0.03720000  1
  C  C97  1  0.30820000  0.98260000  0.03720000  1
  C  C98  1  0.31220000  0.61790000  0.13240000  1
  C  C99  1  0.31220000  0.88210000  0.13240000  1
  C  C100  1  0.35080000  0.05490000  0.00720000  1
  C  C101  1  0.35080000  0.44510000  0.00720000  1
  C  C102  1  0.35360000  0.54280000  0.10170000  1
  C  C103  1  0.35360000  0.95720000  0.10170000  1
  C  C104  1  0.36500000  0.75000000  0.42850000  1
  C  C105  1  0.39350000  0.75000000  0.34860000  1
  C  C106  1  0.42130000  0.75000000  0.54560000  1
  C  C107  1  0.43540000  0.10040000  0.04240000  1
  C  C108  1  0.43540000  0.39960000  0.04240000  1
  C  C109  1  0.43770000  0.00470000  0.13600000  1
  C  C110  1  0.43770000  0.49530000  0.13600000  1
  C  C111  1  0.45560000  0.75000000  0.47710000  1
  C  C112  1  0.48040000  0.07580000  0.10670000  1
  C  C113  1  0.48040000  0.42420000  0.10670000  1
  C  C114  1  0.48600000  0.17670000  0.00890000  1
  C  C115  1  0.48600000  0.32330000  0.00890000  1
  C  C116  1  0.51400000  0.67670000  0.99110000  1
  C  C117  1  0.51400000  0.82330000  0.99110000  1
  C  C118  1  0.51960000  0.57580000  0.89330000  1
  C  C119  1  0.51960000  0.92420000  0.89330000  1
  C  C120  1  0.54440000  0.25000000  0.52290000  1
  C  C121  1  0.56230000  0.50470000  0.86400000  1
  C  C122  1  0.56230000  0.99530000  0.86400000  1
  C  C123  1  0.56460000  0.60040000  0.95760000  1
  C  C124  1  0.56460000  0.89960000  0.95760000  1
  C  C125  1  0.57870000  0.25000000  0.45440000  1
  C  C126  1  0.60650000  0.25000000  0.65140000  1
  C  C127  1  0.63500000  0.25000000  0.57150000  1
  C  C128  1  0.64640000  0.04280000  0.89830000  1
  C  C129  1  0.64640000  0.45720000  0.89830000  1
  C  C130  1  0.64920000  0.55490000  0.99280000  1
  C  C131  1  0.64920000  0.94510000  0.99280000  1
  C  C132  1  0.68780000  0.11790000  0.86760000  1
  C  C133  1  0.68780000  0.38210000  0.86760000  1
  C  C134  1  0.69180000  0.01740000  0.96280000  1
  C  C135  1  0.69180000  0.48260000  0.96280000  1
  C  C136  1  0.70200000  0.25000000  0.43420000  1
  C  C137  1  0.70840000  0.75000000  0.98590000  1
  C  C138  1  0.73030000  0.25000000  0.35730000  1
  C  C139  1  0.74210000  0.75000000  0.05360000  1
  C  C140  1  0.75790000  0.25000000  0.55360000  1
  C  C141  1  0.76970000  0.75000000  0.85730000  1
  C  C142  1  0.79160000  0.25000000  0.48590000  1
  C  C143  1  0.79800000  0.75000000  0.93420000  1
  C  C144  1  0.80820000  0.51740000  0.46280000  1
  C  C145  1  0.80820000  0.98260000  0.46280000  1
  C  C146  1  0.81220000  0.61790000  0.36760000  1
  C  C147  1  0.81220000  0.88210000  0.36760000  1
  C  C148  1  0.85080000  0.05490000  0.49280000  1
  C  C149  1  0.85080000  0.44510000  0.49280000  1
  C  C150  1  0.85360000  0.54280000  0.39830000  1
  C  C151  1  0.85360000  0.95720000  0.39830000  1
  C  C152  1  0.86500000  0.75000000  0.07150000  1
  C  C153  1  0.89350000  0.75000000  0.15140000  1
  C  C154  1  0.92130000  0.75000000  0.95440000  1
  C  C155  1  0.93540000  0.10040000  0.45760000  1
  C  C156  1  0.93540000  0.39960000  0.45760000  1
  C  C157  1  0.93770000  0.00470000  0.36400000  1
  C  C158  1  0.93770000  0.49530000  0.36400000  1
  C  C159  1  0.95560000  0.75000000  0.02290000  1
  C  C160  1  0.98040000  0.07580000  0.39330000  1
  C  C161  1  0.98040000  0.42420000  0.39330000  1
  C  C162  1  0.98600000  0.17670000  0.49110000  1
  C  C163  1  0.98600000  0.32330000  0.49110000  1
  N  N164  1  0.07750000  0.75000000  0.53670000  1
  N  N165  1  0.42250000  0.25000000  0.03670000  1
  N  N166  1  0.57750000  0.75000000  0.96330000  1
  N  N167  1  0.92250000  0.25000000  0.46330000  1
  O  O168  1  0.01000000  0.75000000  0.16400000  1
  O  O169  1  0.13490000  0.14800000  0.68650000  1
  O  O170  1  0.13490000  0.35200000  0.68650000  1
  O  O171  1  0.14790000  0.25000000  0.18510000  1
  O  O172  1  0.15050000  0.75000000  0.66170000  1
  O  O173  1  0.18920000  0.25000000  0.80590000  1
  O  O174  1  0.22010000  0.65550000  0.10680000  1
  O  O175  1  0.22010000  0.84450000  0.10680000  1
  O  O176  1  0.27990000  0.15550000  0.60680000  1
  O  O177  1  0.27990000  0.34450000  0.60680000  1
  O  O178  1  0.31080000  0.75000000  0.30590000  1
  O  O179  1  0.34950000  0.25000000  0.16170000  1
  O  O180  1  0.35210000  0.75000000  0.68510000  1
  O  O181  1  0.36510000  0.64800000  0.18650000  1
  O  O182  1  0.36510000  0.85200000  0.18650000  1
  O  O183  1  0.49000000  0.25000000  0.66400000  1
  O  O184  1  0.51000000  0.75000000  0.33600000  1
  O  O185  1  0.63490000  0.14800000  0.81350000  1
  O  O186  1  0.63490000  0.35200000  0.81350000  1
  O  O187  1  0.64790000  0.25000000  0.31490000  1
  O  O188  1  0.65050000  0.75000000  0.83830000  1
  O  O189  1  0.68920000  0.25000000  0.69410000  1
  O  O190  1  0.72010000  0.65550000  0.39320000  1
  O  O191  1  0.72010000  0.84450000  0.39320000  1
  O  O192  1  0.77990000  0.15550000  0.89320000  1
  O  O193  1  0.77990000  0.34450000  0.89320000  1
  O  O194  1  0.81080000  0.75000000  0.19410000  1
  O  O195  1  0.84950000  0.25000000  0.33830000  1
  O  O196  1  0.85210000  0.75000000  0.81490000  1
  O  O197  1  0.86510000  0.64800000  0.31350000  1
  O  O198  1  0.86510000  0.85200000  0.31350000  1
  O  O199  1  0.99000000  0.25000000  0.83600000  1
