# generated using pymatgen
data_MgH2(CO2)2
_symmetry_space_group_name_H-M   'P 1'
_cell_length_a   9.81790000
_cell_length_b   11.28880000
_cell_length_c   14.54650000
_cell_angle_alpha   91.62200000
_cell_angle_beta   90.00000000
_cell_angle_gamma   90.00000000
_symmetry_Int_Tables_number   1
_chemical_formula_structural   MgH2(CO2)2
_chemical_formula_sum   'Mg12 H24 C24 O48'
_cell_volume   1611.57620559
_cell_formula_units_Z   12
loop_
 _symmetry_equiv_pos_site_id
 _symmetry_equiv_pos_as_xyz
  1  'x, y, z'
loop_
 _atom_site_type_symbol
 _atom_site_label
 _atom_site_symmetry_multiplicity
 _atom_site_fract_x
 _atom_site_fract_y
 _atom_site_fract_z
 _atom_site_occupancy
  Mg  Mg0  1  0.00000000  0.00000000  0.00000000  1
  Mg  Mg1  1  0.00000000  0.50000000  0.00000000  1
  Mg  Mg2  1  0.08127000  0.75611000  0.13497000  1
  Mg  Mg3  1  0.10880000  0.26039000  0.68958000  1
  Mg  Mg4  1  0.39120000  0.76039000  0.18958000  1
  Mg  Mg5  1  0.41873000  0.25611000  0.63497000  1
  Mg  Mg6  1  0.50000000  0.00000000  0.50000000  1
  Mg  Mg7  1  0.50000000  0.50000000  0.50000000  1
  Mg  Mg8  1  0.58127000  0.74389000  0.36503000  1
  Mg  Mg9  1  0.60880000  0.23961000  0.81042000  1
  Mg  Mg10  1  0.89120000  0.73961000  0.31042000  1
  Mg  Mg11  1  0.91873000  0.24389000  0.86503000  1
  H  H12  1  0.03610000  0.52450000  0.73630000  1
  H  H13  1  0.11750000  0.05460000  0.54570000  1
  H  H14  1  0.15920000  0.30410000  0.06900000  1
  H  H15  1  0.19260000  0.02000000  0.76900000  1
  H  H16  1  0.20370000  0.49240000  0.51340000  1
  H  H17  1  0.24210000  0.86750000  0.36750000  1
  H  H18  1  0.25790000  0.36750000  0.86750000  1
  H  H19  1  0.29630000  0.99240000  0.01340000  1
  H  H20  1  0.30740000  0.52000000  0.26900000  1
  H  H21  1  0.34080000  0.80410000  0.56900000  1
  H  H22  1  0.38250000  0.55460000  0.04570000  1
  H  H23  1  0.46390000  0.02450000  0.23630000  1
  H  H24  1  0.53610000  0.97550000  0.76370000  1
  H  H25  1  0.61750000  0.44540000  0.95430000  1
  H  H26  1  0.65920000  0.19590000  0.43100000  1
  H  H27  1  0.69260000  0.48000000  0.73100000  1
  H  H28  1  0.70370000  0.00760000  0.98660000  1
  H  H29  1  0.74210000  0.63250000  0.13250000  1
  H  H30  1  0.75790000  0.13250000  0.63250000  1
  H  H31  1  0.79630000  0.50760000  0.48660000  1
  H  H32  1  0.80740000  0.98000000  0.23100000  1
  H  H33  1  0.84080000  0.69590000  0.93100000  1
  H  H34  1  0.88250000  0.94540000  0.45430000  1
  H  H35  1  0.96390000  0.47550000  0.26370000  1
  C  C36  1  0.01490000  0.48130000  0.78954000  1
  C  C37  1  0.10120000  0.25870000  0.02939000  1
  C  C38  1  0.13060000  0.04860000  0.81452000  1
  C  C39  1  0.17290000  0.83280000  0.32984000  1
  C  C40  1  0.21110000  0.07420000  0.55241000  1
  C  C41  1  0.22220000  0.43050000  0.55441000  1
  C  C42  1  0.27780000  0.93050000  0.05441000  1
  C  C43  1  0.28890000  0.57420000  0.05241000  1
  C  C44  1  0.32710000  0.33280000  0.82984000  1
  C  C45  1  0.36940000  0.54860000  0.31452000  1
  C  C46  1  0.39880000  0.75870000  0.52939000  1
  C  C47  1  0.48510000  0.98130000  0.28954000  1
  C  C48  1  0.51490000  0.01870000  0.71046000  1
  C  C49  1  0.60120000  0.24130000  0.47061000  1
  C  C50  1  0.63060000  0.45140000  0.68548000  1
  C  C51  1  0.67290000  0.66720000  0.17016000  1
  C  C52  1  0.71110000  0.42580000  0.94759000  1
  C  C53  1  0.72220000  0.06950000  0.94559000  1
  C  C54  1  0.77780000  0.56950000  0.44559000  1
  C  C55  1  0.78890000  0.92580000  0.44759000  1
  C  C56  1  0.82710000  0.16720000  0.67016000  1
  C  C57  1  0.86940000  0.95140000  0.18548000  1
  C  C58  1  0.89880000  0.74130000  0.97061000  1
  C  C59  1  0.98510000  0.51870000  0.21046000  1
  O  O60  1  0.00110000  0.53833000  0.86243000  1
  O  O61  1  0.00304000  0.36967000  0.77961000  1
  O  O62  1  0.02584000  0.31579000  0.97420000  1
  O  O63  1  0.06111000  0.81435000  0.36673000  1
  O  O64  1  0.08000000  0.15051000  0.80322000  1
  O  O65  1  0.10530000  0.15010000  0.03593000  1
  O  O66  1  0.10690000  0.98297000  0.87895000  1
  O  O67  1  0.12366000  0.38826000  0.59508000  1
  O  O68  1  0.15341000  0.89878000  0.06225000  1
  O  O69  1  0.20321000  0.80957000  0.24630000  1
  O  O70  1  0.20690000  0.51828000  0.00353000  1
  O  O71  1  0.24154000  0.15608000  0.61125000  1
  O  O72  1  0.25846000  0.65608000  0.11125000  1
  O  O73  1  0.29310000  0.01828000  0.50353000  1
  O  O74  1  0.29679000  0.30957000  0.74630000  1
  O  O75  1  0.34659000  0.39878000  0.56225000  1
  O  O76  1  0.37634000  0.88826000  0.09508000  1
  O  O77  1  0.39310000  0.48297000  0.37895000  1
  O  O78  1  0.39470000  0.65010000  0.53593000  1
  O  O79  1  0.42000000  0.65051000  0.30322000  1
  O  O80  1  0.43889000  0.31435000  0.86673000  1
  O  O81  1  0.47416000  0.81579000  0.47420000  1
  O  O82  1  0.49696000  0.86967000  0.27961000  1
  O  O83  1  0.49890000  0.03833000  0.36243000  1
  O  O84  1  0.50110000  0.96167000  0.63757000  1
  O  O85  1  0.50304000  0.13033000  0.72039000  1
  O  O86  1  0.52584000  0.18421000  0.52580000  1
  O  O87  1  0.56111000  0.68565000  0.13327000  1
  O  O88  1  0.58000000  0.34949000  0.69678000  1
  O  O89  1  0.60530000  0.34990000  0.46407000  1
  O  O90  1  0.60690000  0.51703000  0.62105000  1
  O  O91  1  0.62366000  0.11174000  0.90492000  1
  O  O92  1  0.65341000  0.60122000  0.43775000  1
  O  O93  1  0.70321000  0.69043000  0.25370000  1
  O  O94  1  0.70690000  0.98172000  0.49647000  1
  O  O95  1  0.74154000  0.34392000  0.88875000  1
  O  O96  1  0.75846000  0.84392000  0.38875000  1
  O  O97  1  0.79310000  0.48172000  0.99647000  1
  O  O98  1  0.79679000  0.19043000  0.75370000  1
  O  O99  1  0.84659000  0.10122000  0.93775000  1
  O  O100  1  0.87634000  0.61174000  0.40492000  1
  O  O101  1  0.89310000  0.01703000  0.12105000  1
  O  O102  1  0.89470000  0.84990000  0.96407000  1
  O  O103  1  0.92000000  0.84949000  0.19678000  1
  O  O104  1  0.93889000  0.18565000  0.63327000  1
  O  O105  1  0.97416000  0.68421000  0.02580000  1
  O  O106  1  0.99696000  0.63033000  0.22039000  1
  O  O107  1  0.99890000  0.46167000  0.13757000  1
