# generated using pymatgen
data_CoHC4O3
_symmetry_space_group_name_H-M   'P 1'
_cell_length_a   6.81050000
_cell_length_b   15.12520000
_cell_length_c   15.12520396
_cell_angle_alpha   117.78846634
_cell_angle_beta   98.63231634
_cell_angle_gamma   98.63220000
_symmetry_Int_Tables_number   1
_chemical_formula_structural   CoHC4O3
_chemical_formula_sum   'Co6 H6 C24 O18'
_cell_volume   1318.91406946
_cell_formula_units_Z   6
loop_
 _symmetry_equiv_pos_site_id
 _symmetry_equiv_pos_as_xyz
  1  'x, y, z'
loop_
 _atom_site_type_symbol
 _atom_site_label
 _atom_site_symmetry_multiplicity
 _atom_site_fract_x
 _atom_site_fract_y
 _atom_site_fract_z
 _atom_site_occupancy
  Co  Co0  1  0.39060000  0.58310000  0.28370000  1
  Co  Co1  1  0.80750000  0.41690000  0.70060000  1
  Co  Co2  1  0.80750000  0.70060000  0.41690000  1
  Co  Co3  1  0.10690000  0.29940000  0.71630000  1
  Co  Co4  1  0.10690000  0.71630000  0.29940000  1
  Co  Co5  1  0.39060000  0.28370000  0.58310000  1
  H  H6  1  0.54320000  0.00000000  0.43060000  1
  H  H7  1  0.72990000  0.48585000  0.48585000  1
  H  H8  1  0.24405000  0.51415000  0.00000000  1
  H  H9  1  0.11260000  0.56940000  0.56940000  1
  H  H10  1  0.54320000  0.43060000  0.00000000  1
  H  H11  1  0.24405000  0.00000000  0.51415000  1
  C  C12  1  0.50990000  0.56020000  0.46640000  1
  C  C13  1  0.94970000  0.43980000  0.90620000  1
  C  C14  1  0.59360000  0.49860000  0.49860000  1
  C  C15  1  0.09500000  0.50140000  0.00000000  1
  C  C16  1  0.56400000  0.81410000  0.36060000  1
  C  C17  1  0.74990000  0.18590000  0.54650000  1
  C  C18  1  0.67785000  1.00000000  0.44425000  1
  C  C19  1  0.73280000  0.90590000  0.41670000  1
  C  C20  1  0.82690000  0.09410000  0.51080000  1
  C  C21  1  0.94970000  0.90620000  0.43980000  1
  C  C22  1  0.04350000  0.09380000  0.53360000  1
  C  C23  1  0.74990000  0.54650000  0.18590000  1
  C  C24  1  0.20340000  0.45350000  0.63940000  1
  C  C25  1  0.09500000  1.00000000  0.50140000  1
  C  C26  1  0.67785000  0.44425000  0.00000000  1
  C  C27  1  0.23360000  0.55575000  0.55575000  1
  C  C28  1  0.82690000  0.51080000  0.09410000  1
  C  C29  1  0.31610000  0.48920000  0.58330000  1
  C  C30  1  0.20340000  0.63940000  0.45350000  1
  C  C31  1  0.56400000  0.36060000  0.81410000  1
  C  C32  1  0.31610000  0.58330000  0.48920000  1
  C  C33  1  0.73280000  0.41670000  0.90590000  1
  C  C34  1  0.04350000  0.53360000  0.09380000  1
  C  C35  1  0.50990000  0.46640000  0.56020000  1
  O  O36  1  0.38380000  0.81940000  0.32920000  1
  O  O37  1  0.56440000  0.18060000  0.50980000  1
  O  O38  1  0.57850000  0.57930000  0.39660000  1
  O  O39  1  0.99920000  0.42070000  0.81730000  1
  O  O40  1  0.60020000  0.72620000  0.34380000  1
  O  O41  1  0.87400000  0.27380000  0.61760000  1
  O  O42  1  0.56440000  0.50980000  0.18060000  1
  O  O43  1  0.05460000  0.49020000  0.67080000  1
  O  O44  1  0.05460000  0.67080000  0.49020000  1
  O  O45  1  0.38380000  0.32920000  0.81940000  1
  O  O46  1  0.99920000  0.81730000  0.42070000  1
  O  O47  1  0.18190000  0.18270000  0.60340000  1
  O  O48  1  0.87400000  0.61760000  0.27380000  1
  O  O49  1  0.25640000  0.38240000  0.65620000  1
  O  O50  1  0.25640000  0.65620000  0.38240000  1
  O  O51  1  0.60020000  0.34380000  0.72620000  1
  O  O52  1  0.18190000  0.60340000  0.18270000  1
  O  O53  1  0.57850000  0.39660000  0.57930000  1
