# generated using pymatgen
data_Eu2H15C30(N3O4)3
_symmetry_space_group_name_H-M   'P 1'
_cell_length_a   12.53721069
_cell_length_b   12.53721069
_cell_length_c   17.41640000
_cell_angle_alpha   69.12401699
_cell_angle_beta   69.12401699
_cell_angle_gamma   69.23857239
_symmetry_Int_Tables_number   1
_chemical_formula_structural   Eu2H15C30(N3O4)3
_chemical_formula_sum   'Eu4 H30 C60 N18 O24'
_cell_volume   2307.34917222
_cell_formula_units_Z   2
loop_
 _symmetry_equiv_pos_site_id
 _symmetry_equiv_pos_as_xyz
  1  'x, y, z'
loop_
 _atom_site_type_symbol
 _atom_site_label
 _atom_site_symmetry_multiplicity
 _atom_site_fract_x
 _atom_site_fract_y
 _atom_site_fract_z
 _atom_site_occupancy
  C  C0  1  0.88250000  0.51210000  0.81210000  1
  C  C1  1  0.51210000  0.88250000  0.31210000  1
  C  C2  1  0.39050000  0.17050000  0.74470000  1
  C  C3  1  0.17050000  0.39050000  0.24470000  1
  C  C4  1  0.06180000  0.59460000  0.20890000  1
  C  C5  1  0.59460000  0.06180000  0.70890000  1
  C  C6  1  0.89050000  0.52650000  0.89240000  1
  C  C7  1  0.52650000  0.89050000  0.39240000  1
  C  C8  1  0.40090000  0.17210000  0.82020000  1
  C  C9  1  0.17210000  0.40090000  0.32020000  1
  C  C10  1  0.06260000  0.60300000  0.28600000  1
  C  C11  1  0.60300000  0.06260000  0.78600000  1
  C  C12  1  0.29260000  0.22400000  0.88460000  1
  C  C13  1  0.22400000  0.29260000  0.38460000  1
  C  C14  1  0.50830000  0.11930000  0.84200000  1
  C  C15  1  0.11930000  0.50830000  0.34200000  1
  C  C16  1  0.99890000  0.82390000  0.26620000  1
  C  C17  1  0.82390000  0.99890000  0.76620000  1
  C  C18  1  0.66280000  0.36960000  0.68310000  1
  C  C19  1  0.36960000  0.66280000  0.18310000  1
  C  C20  1  0.92110000  0.72110000  0.38610000  1
  C  C21  1  0.72110000  0.92110000  0.88610000  1
  C  C22  1  0.58230000  0.16390000  0.36840000  1
  C  C23  1  0.16390000  0.58230000  0.86840000  1
  C  C24  1  0.60000000  0.27980000  0.30620000  1
  C  C25  1  0.27980000  0.60000000  0.80620000  1
  C  C26  1  0.50230000  0.37890000  0.30570000  1
  C  C27  1  0.37890000  0.50230000  0.80570000  1
  C  C28  1  0.51460000  0.48540000  0.25000000  1
  C  C29  1  0.70680000  0.29320000  0.25000000  1
  C  C30  1  0.29320000  0.70680000  0.75000000  1
  C  C31  1  0.48540000  0.51460000  0.75000000  1
  C  C32  1  0.62110000  0.49770000  0.19430000  1
  C  C33  1  0.49770000  0.62110000  0.69430000  1
  C  C34  1  0.72020000  0.40000000  0.19380000  1
  C  C35  1  0.40000000  0.72020000  0.69380000  1
  C  C36  1  0.83610000  0.41770000  0.13160000  1
  C  C37  1  0.41770000  0.83610000  0.63160000  1
  C  C38  1  0.27890000  0.07890000  0.11390000  1
  C  C39  1  0.07890000  0.27890000  0.61390000  1
  C  C40  1  0.63040000  0.33720000  0.81690000  1
  C  C41  1  0.33720000  0.63040000  0.31690000  1
  C  C42  1  0.17610000  0.00110000  0.23380000  1
  C  C43  1  0.00110000  0.17610000  0.73380000  1
  C  C44  1  0.88070000  0.49170000  0.65800000  1
  C  C45  1  0.49170000  0.88070000  0.15800000  1
  C  C46  1  0.77600000  0.70740000  0.61540000  1
  C  C47  1  0.70740000  0.77600000  0.11540000  1
  C  C48  1  0.39700000  0.93740000  0.21400000  1
  C  C49  1  0.93740000  0.39700000  0.71400000  1
  C  C50  1  0.82790000  0.59910000  0.67980000  1
  C  C51  1  0.59910000  0.82790000  0.17980000  1
  C  C52  1  0.47350000  0.10950000  0.60760000  1
  C  C53  1  0.10950000  0.47350000  0.10760000  1
  C  C54  1  0.40540000  0.93820000  0.29110000  1
  C  C55  1  0.93820000  0.40540000  0.79110000  1
  C  C56  1  0.82950000  0.60950000  0.75530000  1
  C  C57  1  0.60950000  0.82950000  0.25530000  1
  C  C58  1  0.48790000  0.11750000  0.68790000  1
  C  C59  1  0.11750000  0.48790000  0.18790000  1
  Eu  Eu60  1  0.31700000  0.09084000  0.50393000  1
  Eu  Eu61  1  0.09084000  0.31700000  0.00393000  1
  Eu  Eu62  1  0.90916000  0.68300000  0.99607000  1
  Eu  Eu63  1  0.68300000  0.90916000  0.49607000  1
  H  H64  1  0.79470000  0.68190000  0.76870000  1
  H  H65  1  0.68190000  0.79470000  0.26870000  1
  H  H66  1  0.02450000  0.65950000  0.17210000  1
  H  H67  1  0.65950000  0.02450000  0.67210000  1
  H  H68  1  0.04580000  0.84560000  0.21120000  1
  H  H69  1  0.84560000  0.04580000  0.71120000  1
  H  H70  1  0.65680000  0.40300000  0.62730000  1
  H  H71  1  0.40300000  0.65680000  0.12730000  1
  H  H72  1  0.90300000  0.65720000  0.43110000  1
  H  H73  1  0.65720000  0.90300000  0.93110000  1
  H  H74  1  0.51630000  0.12210000  0.89220000  1
  H  H75  1  0.12210000  0.51630000  0.39220000  1
  H  H76  1  0.42910000  0.37210000  0.34320000  1
  H  H77  1  0.37210000  0.42910000  0.84320000  1
  H  H78  1  0.22790000  0.77210000  0.75000000  1
  H  H79  1  0.77210000  0.22790000  0.25000000  1
  H  H80  1  0.62790000  0.57090000  0.15680000  1
  H  H81  1  0.57090000  0.62790000  0.65680000  1
  H  H82  1  0.87790000  0.48370000  0.60780000  1
  H  H83  1  0.48370000  0.87790000  0.10780000  1
  H  H84  1  0.34280000  0.09700000  0.06890000  1
  H  H85  1  0.09700000  0.34280000  0.56890000  1
  H  H86  1  0.59700000  0.34320000  0.87270000  1
  H  H87  1  0.34320000  0.59700000  0.37270000  1
  H  H88  1  0.15440000  0.95420000  0.28880000  1
  H  H89  1  0.95420000  0.15440000  0.78880000  1
  H  H90  1  0.34050000  0.97550000  0.32790000  1
  H  H91  1  0.97550000  0.34050000  0.82790000  1
  H  H92  1  0.31810000  0.20530000  0.73130000  1
  H  H93  1  0.20530000  0.31810000  0.23130000  1
  N  N94  1  0.99860000  0.71120000  0.31080000  1
  N  N95  1  0.71120000  0.99860000  0.81080000  1
  N  N96  1  0.74330000  0.27770000  0.70580000  1
  N  N97  1  0.27770000  0.74330000  0.20580000  1
  N  N98  1  0.92580000  0.89780000  0.30950000  1
  N  N99  1  0.89780000  0.92580000  0.80950000  1
  N  N100  1  0.87420000  0.83120000  0.38830000  1
  N  N101  1  0.83120000  0.87420000  0.88830000  1
  N  N102  1  0.58690000  0.41310000  0.75000000  1
  N  N103  1  0.41310000  0.58690000  0.25000000  1
  N  N104  1  0.16880000  0.12580000  0.11170000  1
  N  N105  1  0.12580000  0.16880000  0.61170000  1
  N  N106  1  0.10220000  0.07420000  0.19050000  1
  N  N107  1  0.07420000  0.10220000  0.69050000  1
  N  N108  1  0.72230000  0.25670000  0.79420000  1
  N  N109  1  0.25670000  0.72230000  0.29420000  1
  N  N110  1  0.28880000  0.00140000  0.18920000  1
  N  N111  1  0.00140000  0.28880000  0.68920000  1
  O  O112  1  0.25200000  0.19360000  0.37150000  1
  O  O113  1  0.19360000  0.25200000  0.87150000  1
  O  O114  1  0.43370000  0.94190000  0.43940000  1
  O  O115  1  0.94190000  0.43370000  0.93940000  1
  O  O116  1  0.84550000  0.62450000  0.90690000  1
  O  O117  1  0.62450000  0.84550000  0.40690000  1
  O  O118  1  0.30820000  0.23620000  0.94810000  1
  O  O119  1  0.23620000  0.30820000  0.44810000  1
  O  O120  1  0.47860000  0.16020000  0.40830000  1
  O  O121  1  0.16020000  0.47860000  0.90830000  1
  O  O122  1  0.32790000  0.92190000  0.62490000  1
  O  O123  1  0.92190000  0.32790000  0.12490000  1
  O  O124  1  0.07810000  0.67210000  0.87510000  1
  O  O125  1  0.67210000  0.07810000  0.37510000  1
  O  O126  1  0.83980000  0.52140000  0.09170000  1
  O  O127  1  0.52140000  0.83980000  0.59170000  1
  O  O128  1  0.76380000  0.69180000  0.55190000  1
  O  O129  1  0.69180000  0.76380000  0.05190000  1
  O  O130  1  0.37550000  0.15450000  0.59310000  1
  O  O131  1  0.15450000  0.37550000  0.09310000  1
  O  O132  1  0.05810000  0.56630000  0.06060000  1
  O  O133  1  0.56630000  0.05810000  0.56060000  1
  O  O134  1  0.80640000  0.74800000  0.12850000  1
  O  O135  1  0.74800000  0.80640000  0.62850000  1
