# generated using pymatgen
data_AgH8(CN)2
_symmetry_space_group_name_H-M   'P 1'
_cell_length_a   6.29560000
_cell_length_b   7.40974477
_cell_length_c   7.40974477
_cell_angle_alpha   90.52872811
_cell_angle_beta   107.41162495
_cell_angle_gamma   107.41162495
_symmetry_Int_Tables_number   1
_chemical_formula_structural   AgH8(CN)2
_chemical_formula_sum   'Ag2 H16 C4 N4'
_cell_volume   312.84790595
_cell_formula_units_Z   2
loop_
 _symmetry_equiv_pos_site_id
 _symmetry_equiv_pos_as_xyz
  1  'x, y, z'
loop_
 _atom_site_type_symbol
 _atom_site_label
 _atom_site_symmetry_multiplicity
 _atom_site_fract_x
 _atom_site_fract_y
 _atom_site_fract_z
 _atom_site_occupancy
  Ag  Ag0  1  1.00000000  0.50000000  0.50000000  1
  Ag  Ag1  1  0.50000000  0.50000000  0.50000000  1
  C  C2  1  0.54610000  0.52680000  0.10600000  1
  C  C3  1  0.04610000  0.10600000  0.52680000  1
  C  C4  1  0.45390000  0.47320000  0.89400000  1
  C  C5  1  0.95390000  0.89400000  0.47320000  1
  H  H6  1  0.57730000  0.66240000  0.13200000  1
  H  H7  1  0.07730000  0.13200000  0.66240000  1
  H  H8  1  0.69330000  0.50030000  0.15690000  1
  H  H9  1  0.19330000  0.15690000  0.50030000  1
  H  H10  1  0.24360000  0.44530000  0.15210000  1
  H  H11  1  0.74360000  0.15210000  0.44530000  1
  H  H12  1  0.64440000  0.70220000  0.81980000  1
  H  H13  1  0.14440000  0.81980000  0.70220000  1
  H  H14  1  0.35560000  0.29780000  0.18020000  1
  H  H15  1  0.85560000  0.18020000  0.29780000  1
  H  H16  1  0.75640000  0.55470000  0.84790000  1
  H  H17  1  0.25640000  0.84790000  0.55470000  1
  H  H18  1  0.30670000  0.49970000  0.84310000  1
  H  H19  1  0.80670000  0.84310000  0.49970000  1
  H  H20  1  0.42270000  0.33760000  0.86800000  1
  H  H21  1  0.92270000  0.86800000  0.33760000  1
  N  N22  1  0.38140000  0.42340000  0.20260000  1
  N  N23  1  0.88140000  0.20260000  0.42340000  1
  N  N24  1  0.61860000  0.57660000  0.79740000  1
  N  N25  1  0.11860000  0.79740000  0.57660000  1
