# generated using pymatgen
data_TbH3(C3O2)3
_symmetry_space_group_name_H-M   'P 1'
_cell_length_a   10.87240000
_cell_length_b   10.99240000
_cell_length_c   15.62180000
_cell_angle_alpha   90.00000000
_cell_angle_beta   90.00000000
_cell_angle_gamma   100.70200000
_symmetry_Int_Tables_number   1
_chemical_formula_structural   TbH3(C3O2)3
_chemical_formula_sum   'Tb4 H12 C36 O24'
_cell_volume   1834.54584696
_cell_formula_units_Z   4
loop_
 _symmetry_equiv_pos_site_id
 _symmetry_equiv_pos_as_xyz
  1  'x, y, z'
loop_
 _atom_site_type_symbol
 _atom_site_label
 _atom_site_symmetry_multiplicity
 _atom_site_fract_x
 _atom_site_fract_y
 _atom_site_fract_z
 _atom_site_occupancy
  Tb  Tb0  1  0.85757000  0.60438000  0.89825000  1
  Tb  Tb1  1  0.64243000  0.89562000  0.39825000  1
  Tb  Tb2  1  0.35757000  0.10438000  0.60175000  1
  Tb  Tb3  1  0.14243000  0.39562000  0.10175000  1
  H  H4  1  0.94760000  0.67930000  0.26640000  1
  H  H5  1  0.90040000  0.09070000  0.54690000  1
  H  H6  1  0.81440000  0.22110000  0.18490000  1
  H  H7  1  0.68560000  0.27890000  0.68490000  1
  H  H8  1  0.59960000  0.40930000  0.04690000  1
  H  H9  1  0.55240000  0.82070000  0.76640000  1
  H  H10  1  0.44760000  0.17930000  0.23360000  1
  H  H11  1  0.40040000  0.59070000  0.95310000  1
  H  H12  1  0.31440000  0.72110000  0.31510000  1
  H  H13  1  0.18560000  0.77890000  0.81510000  1
  H  H14  1  0.09960000  0.90930000  0.45310000  1
  H  H15  1  0.05240000  0.32070000  0.73360000  1
  C  C16  1  0.99650000  0.20120000  0.63730000  1
  C  C17  1  0.98280000  0.28440000  0.70180000  1
  C  C18  1  0.89230000  0.14670000  0.59010000  1
  C  C19  1  0.87730000  0.83140000  0.37740000  1
  C  C20  1  0.86730000  0.31430000  0.71970000  1
  C  C21  1  0.85710000  0.40470000  0.78970000  1
  C  C22  1  0.83780000  0.38140000  0.05610000  1
  C  C23  1  0.77490000  0.17650000  0.60790000  1
  C  C24  1  0.76350000  0.25960000  0.67280000  1
  C  C25  1  0.73650000  0.24040000  0.17280000  1
  C  C26  1  0.72510000  0.32350000  0.10790000  1
  C  C27  1  0.66220000  0.11860000  0.55610000  1
  C  C28  1  0.64290000  0.09530000  0.28970000  1
  C  C29  1  0.63270000  0.18570000  0.21970000  1
  C  C30  1  0.62270000  0.66860000  0.87740000  1
  C  C31  1  0.60770000  0.35330000  0.09010000  1
  C  C32  1  0.51720000  0.21560000  0.20180000  1
  C  C33  1  0.50350000  0.29880000  0.13730000  1
  C  C34  1  0.49650000  0.70120000  0.86270000  1
  C  C35  1  0.48280000  0.78440000  0.79820000  1
  C  C36  1  0.39230000  0.64670000  0.90990000  1
  C  C37  1  0.37730000  0.33140000  0.12260000  1
  C  C38  1  0.36730000  0.81430000  0.78030000  1
  C  C39  1  0.35710000  0.90470000  0.71030000  1
  C  C40  1  0.33780000  0.88140000  0.44390000  1
  C  C41  1  0.27490000  0.67650000  0.89210000  1
  C  C42  1  0.26350000  0.75960000  0.82720000  1
  C  C43  1  0.23650000  0.74040000  0.32720000  1
  C  C44  1  0.22510000  0.82350000  0.39210000  1
  C  C45  1  0.16220000  0.61860000  0.94390000  1
  C  C46  1  0.14290000  0.59530000  0.21030000  1
  C  C47  1  0.13270000  0.68570000  0.28030000  1
  C  C48  1  0.12270000  0.16860000  0.62260000  1
  C  C49  1  0.10770000  0.85330000  0.40990000  1
  C  C50  1  0.01720000  0.71560000  0.29820000  1
  C  C51  1  0.00350000  0.79880000  0.36270000  1
  O  O52  1  0.95110000  0.44120000  0.83610000  1
  O  O53  1  0.93500000  0.33540000  0.06200000  1
  O  O54  1  0.86500000  0.90680000  0.43540000  1
  O  O55  1  0.82820000  0.47320000  0.01090000  1
  O  O56  1  0.78900000  0.78520000  0.33010000  1
  O  O57  1  0.75770000  0.44700000  0.79880000  1
  O  O58  1  0.74230000  0.05300000  0.29880000  1
  O  O59  1  0.71100000  0.71480000  0.83010000  1
  O  O60  1  0.67180000  0.02680000  0.51090000  1
  O  O61  1  0.63500000  0.59320000  0.93540000  1
  O  O62  1  0.56500000  0.16460000  0.56200000  1
  O  O63  1  0.54890000  0.05880000  0.33610000  1
  O  O64  1  0.45110000  0.94120000  0.66390000  1
  O  O65  1  0.43500000  0.83540000  0.43800000  1
  O  O66  1  0.36500000  0.40680000  0.06460000  1
  O  O67  1  0.32820000  0.97320000  0.48910000  1
  O  O68  1  0.28900000  0.28520000  0.16990000  1
  O  O69  1  0.25770000  0.94700000  0.70120000  1
  O  O70  1  0.24230000  0.55300000  0.20120000  1
  O  O71  1  0.21100000  0.21480000  0.66990000  1
  O  O72  1  0.17180000  0.52680000  0.98910000  1
  O  O73  1  0.13500000  0.09320000  0.56460000  1
  O  O74  1  0.06500000  0.66460000  0.93800000  1
  O  O75  1  0.04890000  0.55880000  0.16390000  1
