# generated using pymatgen
data_Zn3H26C36(IN2)6
_symmetry_space_group_name_H-M   'P 1'
_cell_length_a   14.81410000
_cell_length_b   18.81540499
_cell_length_c   31.42660000
_cell_angle_alpha   99.90953639
_cell_angle_beta   90.00000000
_cell_angle_gamma   113.18301643
_symmetry_Int_Tables_number   1
_chemical_formula_structural   Zn3H26C36(IN2)6
_chemical_formula_sum   'Zn12 H104 C144 I24 N48'
_cell_volume   7909.95143722
_cell_formula_units_Z   4
loop_
 _symmetry_equiv_pos_site_id
 _symmetry_equiv_pos_as_xyz
  1  'x, y, z'
loop_
 _atom_site_type_symbol
 _atom_site_label
 _atom_site_symmetry_multiplicity
 _atom_site_fract_x
 _atom_site_fract_y
 _atom_site_fract_z
 _atom_site_occupancy
  C  C0  1  0.58980000  0.96720000  0.44460000  1
  C  C1  1  0.37740000  0.96720000  0.94460000  1
  C  C2  1  0.64770000  0.96400000  0.05480000  1
  C  C3  1  0.31630000  0.96400000  0.55480000  1
  C  C4  1  0.86200000  0.93440000  0.97650000  1
  C  C5  1  0.07240000  0.93440000  0.47650000  1
  C  C6  1  0.56210000  0.93300000  0.48060000  1
  C  C7  1  0.37090000  0.93300000  0.98060000  1
  C  C8  1  0.53100000  0.93120000  0.40620000  1
  C  C9  1  0.40020000  0.93120000  0.90620000  1
  C  C10  1  0.92860000  0.92200000  0.95020000  1
  C  C11  1  0.99340000  0.92200000  0.45020000  1
  C  C12  1  0.73480000  0.89300000  0.03010000  1
  C  C13  1  0.15820000  0.89300000  0.53010000  1
  C  C14  1  0.80780000  0.88020000  0.00110000  1
  C  C15  1  0.07240000  0.88020000  0.50110000  1
  C  C16  1  0.47330000  0.86920000  0.47720000  1
  C  C17  1  0.39590000  0.86920000  0.97720000  1
  C  C18  1  0.44050000  0.86860000  0.40730000  1
  C  C19  1  0.42810000  0.86860000  0.90730000  1
  C  C20  1  0.63870000  0.86280000  0.08510000  1
  C  C21  1  0.22410000  0.86280000  0.58510000  1
  C  C22  1  0.54820000  0.83440000  0.15330000  1
  C  C23  1  0.28620000  0.83440000  0.65330000  1
  C  C24  1  0.60200000  0.81400000  0.11960000  1
  C  C25  1  0.21200000  0.81400000  0.61960000  1
  C  C26  1  0.82130000  0.81100000  0.99690000  1
  C  C27  1  0.98970000  0.81100000  0.49690000  1
  C  C28  1  0.89010000  0.79920000  0.97010000  1
  C  C29  1  0.90910000  0.79920000  0.47010000  1
  C  C30  1  0.50940000  0.78280000  0.17920000  1
  C  C31  1  0.27340000  0.78280000  0.67920000  1
  C  C32  1  0.85740000  0.77400000  0.84490000  1
  C  C33  1  0.91660000  0.77400000  0.34490000  1
  C  C34  1  0.61700000  0.74900000  0.11900000  1
  C  C35  1  0.13200000  0.74900000  0.61900000  1
  C  C36  1  0.78550000  0.73320000  0.81230000  1
  C  C37  1  0.94770000  0.73320000  0.31230000  1
  C  C38  1  0.57640000  0.70180000  0.15020000  1
  C  C39  1  0.12540000  0.70180000  0.65020000  1
  C  C40  1  0.75350000  0.68980000  0.33110000  1
  C  C41  1  0.93630000  0.68980000  0.83110000  1
  C  C42  1  0.38890000  0.68140000  0.74730000  1
  C  C43  1  0.29250000  0.68140000  0.24730000  1
  C  C44  1  0.47600000  0.67120000  0.74450000  1
  C  C45  1  0.19520000  0.67120000  0.24450000  1
  C  C46  1  0.79070000  0.66580000  0.78650000  1
  C  C47  1  0.87510000  0.66580000  0.28650000  1
  C  C48  1  0.77620000  0.64700000  0.29580000  1
  C  C49  1  0.87080000  0.64700000  0.79580000  1
  C  C50  1  0.37010000  0.63640000  0.40190000  1
  C  C51  1  0.26630000  0.63640000  0.90190000  1
  C  C52  1  0.37890000  0.62580000  0.85570000  1
  C  C53  1  0.24690000  0.62580000  0.35570000  1
  C  C54  1  0.71480000  0.62020000  0.74990000  1
  C  C55  1  0.90540000  0.62020000  0.24990000  1
  C  C56  1  0.47980000  0.60820000  0.71600000  1
  C  C57  1  0.12840000  0.60820000  0.21600000  1
  C  C58  1  0.56950000  0.59400000  0.71610000  1
  C  C59  1  0.02450000  0.59400000  0.21610000  1
  C  C60  1  0.39140000  0.57840000  0.37500000  1
  C  C61  1  0.18700000  0.57840000  0.87500000  1
  C  C62  1  0.31100000  0.57380000  0.69440000  1
  C  C63  1  0.26280000  0.57380000  0.19440000  1
  C  C64  1  0.31130000  0.56800000  0.82860000  1
  C  C65  1  0.25670000  0.56800000  0.32860000  1
  C  C66  1  0.39480000  0.55980000  0.69070000  1
  C  C67  1  0.16500000  0.55980000  0.19070000  1
  C  C68  1  0.33160000  0.54380000  0.33760000  1
  C  C69  1  0.21220000  0.54380000  0.83760000  1
  C  C70  1  0.65520000  0.52160000  0.69320000  1
  C  C71  1  0.86640000  0.52160000  0.19320000  1
  C  C72  1  0.34480000  0.47840000  0.30680000  1
  C  C73  1  0.13360000  0.47840000  0.80680000  1
  C  C74  1  0.66840000  0.45620000  0.66240000  1
  C  C75  1  0.78780000  0.45620000  0.16240000  1
  C  C76  1  0.60520000  0.44020000  0.30930000  1
  C  C77  1  0.83500000  0.44020000  0.80930000  1
  C  C78  1  0.68870000  0.43200000  0.17140000  1
  C  C79  1  0.74330000  0.43200000  0.67140000  1
  C  C80  1  0.68900000  0.42620000  0.30560000  1
  C  C81  1  0.73720000  0.42620000  0.80560000  1
  C  C82  1  0.60860000  0.42160000  0.62500000  1
  C  C83  1  0.81300000  0.42160000  0.12500000  1
  C  C84  1  0.43050000  0.40600000  0.28390000  1
  C  C85  1  0.97550000  0.40600000  0.78390000  1
  C  C86  1  0.52020000  0.39180000  0.28400000  1
  C  C87  1  0.87160000  0.39180000  0.78400000  1
  C  C88  1  0.28520000  0.37980000  0.25010000  1
  C  C89  1  0.09460000  0.37980000  0.75010000  1
  C  C90  1  0.62110000  0.37420000  0.14430000  1
  C  C91  1  0.75310000  0.37420000  0.64430000  1
  C  C92  1  0.62990000  0.36360000  0.59810000  1
  C  C93  1  0.73370000  0.36360000  0.09810000  1
  C  C94  1  0.22380000  0.35300000  0.70420000  1
  C  C95  1  0.12920000  0.35300000  0.20420000  1
  C  C96  1  0.20930000  0.33420000  0.21350000  1
  C  C97  1  0.12490000  0.33420000  0.71350000  1
  C  C98  1  0.52400000  0.32880000  0.25550000  1
  C  C99  1  0.80480000  0.32880000  0.75550000  1
  C  C100  1  0.61110000  0.31860000  0.25270000  1
  C  C101  1  0.70750000  0.31860000  0.75270000  1
  C  C102  1  0.24650000  0.31020000  0.66890000  1
  C  C103  1  0.06370000  0.31020000  0.16890000  1
  C  C104  1  0.42360000  0.29820000  0.84980000  1
  C  C105  1  0.87460000  0.29820000  0.34980000  1
  C  C106  1  0.21450000  0.26680000  0.18770000  1
  C  C107  1  0.05230000  0.26680000  0.68770000  1
  C  C108  1  0.38300000  0.25100000  0.88100000  1
  C  C109  1  0.86800000  0.25100000  0.38100000  1
  C  C110  1  0.14260000  0.22600000  0.15510000  1
  C  C111  1  0.08340000  0.22600000  0.65510000  1
  C  C112  1  0.49060000  0.21720000  0.82080000  1
  C  C113  1  0.72660000  0.21720000  0.32080000  1
  C  C114  1  0.10990000  0.20080000  0.02990000  1
  C  C115  1  0.09090000  0.20080000  0.52990000  1
  C  C116  1  0.17870000  0.18900000  0.00310000  1
  C  C117  1  0.01030000  0.18900000  0.50310000  1
  C  C118  1  0.39800000  0.18600000  0.88040000  1
  C  C119  1  0.78800000  0.18600000  0.38040000  1
  C  C120  1  0.45180000  0.16560000  0.84670000  1
  C  C121  1  0.71380000  0.16560000  0.34670000  1
  C  C122  1  0.36130000  0.13720000  0.91490000  1
  C  C123  1  0.77590000  0.13720000  0.41490000  1
  C  C124  1  0.55950000  0.13140000  0.59270000  1
  C  C125  1  0.57190000  0.13140000  0.09270000  1
  C  C126  1  0.52670000  0.13080000  0.52280000  1
  C  C127  1  0.60410000  0.13080000  0.02280000  1
  C  C128  1  0.19220000  0.11980000  0.99890000  1
  C  C129  1  0.92760000  0.11980000  0.49890000  1
  C  C130  1  0.26520000  0.10700000  0.96990000  1
  C  C131  1  0.84180000  0.10700000  0.46990000  1
  C  C132  1  0.07140000  0.07800000  0.04980000  1
  C  C133  1  0.00660000  0.07800000  0.54980000  1
  C  C134  1  0.46900000  0.06880000  0.59380000  1
  C  C135  1  0.59980000  0.06880000  0.09380000  1
  C  C136  1  0.43790000  0.06700000  0.51940000  1
  C  C137  1  0.62910000  0.06700000  0.01940000  1
  C  C138  1  0.13800000  0.06560000  0.02350000  1
  C  C139  1  0.92760000  0.06560000  0.52350000  1
  C  C140  1  0.35230000  0.03600000  0.94520000  1
  C  C141  1  0.68370000  0.03600000  0.44520000  1
  C  C142  1  0.41020000  0.03280000  0.55540000  1
  C  C143  1  0.62260000  0.03280000  0.05540000  1
  H  H144  1  0.85220000  0.98180000  0.97810000  1
  H  H145  1  0.12960000  0.98180000  0.47810000  1
  H  H146  1  0.72540000  0.97820000  0.00500000  1
  H  H147  1  0.25280000  0.97820000  0.50500000  1
  H  H148  1  0.96560000  0.96040000  0.93390000  1
  H  H149  1  0.99480000  0.96040000  0.43390000  1
  H  H150  1  0.60290000  0.95280000  0.50690000  1
  H  H151  1  0.34990000  0.95280000  0.00690000  1
  H  H152  1  0.55170000  0.94840000  0.37980000  1
  H  H153  1  0.39670000  0.94840000  0.87980000  1
  H  H154  1  0.54010000  0.88260000  0.15730000  1
  H  H155  1  0.34250000  0.88260000  0.65730000  1
  H  H156  1  0.44940000  0.84680000  0.88170000  1
  H  H157  1  0.39740000  0.84680000  0.38170000  1
  H  H158  1  0.45470000  0.84540000  0.50190000  1
  H  H159  1  0.39070000  0.84540000  0.00190000  1
  H  H160  1  0.85620000  0.82100000  0.86130000  1
  H  H161  1  0.96480000  0.82100000  0.36130000  1
  H  H162  1  0.46450000  0.79200000  0.19870000  1
  H  H163  1  0.32750000  0.79200000  0.69870000  1
  H  H164  1  0.78330000  0.77160000  0.01240000  1
  H  H165  1  0.98830000  0.77160000  0.51240000  1
  H  H166  1  0.85190000  0.75180000  0.46790000  1
  H  H167  1  0.89990000  0.75180000  0.96790000  1
  H  H168  1  0.73380000  0.74920000  0.80720000  1
  H  H169  1  0.01540000  0.74920000  0.30720000  1
  H  H170  1  0.65520000  0.73440000  0.09780000  1
  H  H171  1  0.07920000  0.73440000  0.59780000  1
  H  H172  1  0.38690000  0.72400000  0.76780000  1
  H  H173  1  0.33710000  0.72400000  0.26780000  1
  H  H174  1  0.53310000  0.70760000  0.76220000  1
  H  H175  1  0.17450000  0.70760000  0.26220000  1
  H  H176  1  0.68720000  0.67460000  0.33840000  1
  H  H177  1  0.98740000  0.67460000  0.83840000  1
  H  H178  1  0.40840000  0.65960000  0.42870000  1
  H  H179  1  0.25120000  0.65960000  0.92870000  1
  H  H180  1  0.58540000  0.65420000  0.14870000  1
  H  H181  1  0.06880000  0.65420000  0.64870000  1
  H  H182  1  0.44530000  0.64300000  0.84840000  1
  H  H183  1  0.19770000  0.64300000  0.34840000  1
  H  H184  1  0.72500000  0.60480000  0.27760000  1
  H  H185  1  0.87980000  0.60480000  0.77760000  1
  H  H186  1  0.44350000  0.56400000  0.38210000  1
  H  H187  1  0.12050000  0.56400000  0.88210000  1
  H  H188  1  0.76980000  0.54600000  0.22930000  1
  H  H189  1  0.77620000  0.54600000  0.72930000  1
  H  H190  1  0.32960000  0.54300000  0.80320000  1
  H  H191  1  0.21340000  0.54300000  0.30320000  1
  H  H192  1  0.28540000  0.53920000  0.17640000  1
  H  H193  1  0.25380000  0.53920000  0.67640000  1
  H  H194  1  0.39450000  0.51620000  0.67020000  1
  H  H195  1  0.12170000  0.51620000  0.17020000  1
  H  H196  1  0.60550000  0.48380000  0.32980000  1
  H  H197  1  0.87830000  0.48380000  0.82980000  1
  H  H198  1  0.71460000  0.46080000  0.82360000  1
  H  H199  1  0.74620000  0.46080000  0.32360000  1
  H  H200  1  0.67040000  0.45700000  0.19680000  1
  H  H201  1  0.78660000  0.45700000  0.69680000  1
  H  H202  1  0.23020000  0.45400000  0.77070000  1
  H  H203  1  0.22380000  0.45400000  0.27070000  1
  H  H204  1  0.55650000  0.43600000  0.61790000  1
  H  H205  1  0.87950000  0.43600000  0.11790000  1
  H  H206  1  0.27500000  0.39520000  0.72240000  1
  H  H207  1  0.12020000  0.39520000  0.22240000  1
  H  H208  1  0.55470000  0.35700000  0.15160000  1
  H  H209  1  0.80230000  0.35700000  0.65160000  1
  H  H210  1  0.41460000  0.34580000  0.85130000  1
  H  H211  1  0.93120000  0.34580000  0.35130000  1
  H  H212  1  0.59160000  0.34040000  0.57130000  1
  H  H213  1  0.74880000  0.34040000  0.07130000  1
  H  H214  1  0.31280000  0.32540000  0.66160000  1
  H  H215  1  0.01260000  0.32540000  0.16160000  1
  H  H216  1  0.46690000  0.29240000  0.23780000  1
  H  H217  1  0.82550000  0.29240000  0.73780000  1
  H  H218  1  0.61310000  0.27600000  0.23220000  1
  H  H219  1  0.66290000  0.27600000  0.73220000  1
  H  H220  1  0.34480000  0.26560000  0.90220000  1
  H  H221  1  0.92080000  0.26560000  0.40220000  1
  H  H222  1  0.26620000  0.25080000  0.19280000  1
  H  H223  1  0.98460000  0.25080000  0.69280000  1
  H  H224  1  0.14810000  0.24820000  0.53210000  1
  H  H225  1  0.10010000  0.24820000  0.03210000  1
  H  H226  1  0.21670000  0.22840000  0.98760000  1
  H  H227  1  0.01170000  0.22840000  0.48760000  1
  H  H228  1  0.53550000  0.20800000  0.80130000  1
  H  H229  1  0.67250000  0.20800000  0.30130000  1
  H  H230  1  0.14380000  0.17900000  0.13870000  1
  H  H231  1  0.03520000  0.17900000  0.63870000  1
  H  H232  1  0.54530000  0.15460000  0.49810000  1
  H  H233  1  0.60930000  0.15460000  0.99810000  1
  H  H234  1  0.55060000  0.15320000  0.11830000  1
  H  H235  1  0.60260000  0.15320000  0.61830000  1
  H  H236  1  0.45990000  0.11740000  0.84270000  1
  H  H237  1  0.65750000  0.11740000  0.34270000  1
  H  H238  1  0.44830000  0.05160000  0.62020000  1
  H  H239  1  0.60330000  0.05160000  0.12020000  1
  H  H240  1  0.39710000  0.04720000  0.49310000  1
  H  H241  1  0.65010000  0.04720000  0.99310000  1
  H  H242  1  0.03440000  0.03960000  0.06610000  1
  H  H243  1  0.00520000  0.03960000  0.56610000  1
  H  H244  1  0.27460000  0.02180000  0.99500000  1
  H  H245  1  0.74720000  0.02180000  0.49500000  1
  H  H246  1  0.14780000  0.01820000  0.02190000  1
  H  H247  1  0.87040000  0.01820000  0.52190000  1
  I  I248  1  0.81587000  0.94876000  0.37269000  1
  I  I249  1  0.13289000  0.94876000  0.87269000  1
  I  I250  1  0.62763000  0.78562000  0.89854000  1
  I  I251  1  0.15799000  0.78562000  0.39854000  1
  I  I252  1  0.54017000  0.74938000  0.30299000  1
  I  I253  1  0.20921000  0.74938000  0.80299000  1
  I  I254  1  0.63945000  0.74826000  0.43776000  1
  I  I255  1  0.10881000  0.74826000  0.93776000  1
  I  I256  1  0.45039000  0.70214000  0.00958000  1
  I  I257  1  0.25175000  0.70214000  0.50958000  1
  I  I258  1  0.50836000  0.53444000  0.20894000  1
  I  I259  1  0.02608000  0.53444000  0.70894000  1
  I  I260  1  0.49164000  0.46556000  0.79106000  1
  I  I261  1  0.97392000  0.46556000  0.29106000  1
  I  I262  1  0.54961000  0.29786000  0.99042000  1
  I  I263  1  0.74825000  0.29786000  0.49042000  1
  I  I264  1  0.36055000  0.25174000  0.56224000  1
  I  I265  1  0.89119000  0.25174000  0.06224000  1
  I  I266  1  0.45983000  0.25062000  0.69701000  1
  I  I267  1  0.79079000  0.25062000  0.19701000  1
  I  I268  1  0.37237000  0.21438000  0.10146000  1
  I  I269  1  0.84201000  0.21438000  0.60146000  1
  I  I270  1  0.18413000  0.05124000  0.62731000  1
  I  I271  1  0.86711000  0.05124000  0.12731000  1
  N  N272  1  0.70630000  0.95080000  0.02580000  1
  N  N273  1  0.24450000  0.95080000  0.52580000  1
  N  N274  1  0.61020000  0.92080000  0.08550000  1
  N  N275  1  0.31060000  0.92080000  0.58550000  1
  N  N276  1  0.91030000  0.85300000  0.44730000  1
  N  N277  1  0.94270000  0.85300000  0.94730000  1
  N  N278  1  0.70260000  0.84760000  0.05970000  1
  N  N279  1  0.14500000  0.84760000  0.55970000  1
  N  N280  1  0.42620000  0.83900000  0.94240000  1
  N  N281  1  0.41280000  0.83900000  0.44240000  1
  N  N282  1  0.82550000  0.75340000  0.35530000  1
  N  N283  1  0.92790000  0.75340000  0.85530000  1
  N  N284  1  0.52750000  0.72100000  0.18050000  1
  N  N285  1  0.19350000  0.72100000  0.68050000  1
  N  N286  1  0.35930000  0.66220000  0.89380000  1
  N  N287  1  0.30290000  0.66220000  0.39380000  1
  N  N288  1  0.64030000  0.64100000  0.74710000  1
  N  N289  1  0.00070000  0.64100000  0.24710000  1
  N  N290  1  0.32720000  0.63360000  0.22220000  1
  N  N291  1  0.30640000  0.63360000  0.72220000  1
  N  N292  1  0.72680000  0.55960000  0.72510000  1
  N  N293  1  0.83280000  0.55960000  0.22510000  1
  N  N294  1  0.57510000  0.53280000  0.68760000  1
  N  N295  1  0.95770000  0.53280000  0.18760000  1
  N  N296  1  0.42490000  0.46720000  0.31240000  1
  N  N297  1  0.04230000  0.46720000  0.81240000  1
  N  N298  1  0.27320000  0.44040000  0.27490000  1
  N  N299  1  0.16720000  0.44040000  0.77490000  1
  N  N300  1  0.67280000  0.36640000  0.77780000  1
  N  N301  1  0.69360000  0.36640000  0.27780000  1
  N  N302  1  0.35970000  0.35900000  0.25290000  1
  N  N303  1  0.99930000  0.35900000  0.75290000  1
  N  N304  1  0.64070000  0.33780000  0.10620000  1
  N  N305  1  0.69710000  0.33780000  0.60620000  1
  N  N306  1  0.47250000  0.27900000  0.81950000  1
  N  N307  1  0.80650000  0.27900000  0.31950000  1
  N  N308  1  0.17450000  0.24660000  0.64470000  1
  N  N309  1  0.07210000  0.24660000  0.14470000  1
  N  N310  1  0.57380000  0.16100000  0.05760000  1
  N  N311  1  0.58720000  0.16100000  0.55760000  1
  N  N312  1  0.29740000  0.15240000  0.94030000  1
  N  N313  1  0.85500000  0.15240000  0.44030000  1
  N  N314  1  0.08970000  0.14700000  0.55270000  1
  N  N315  1  0.05730000  0.14700000  0.05270000  1
  N  N316  1  0.38980000  0.07920000  0.91450000  1
  N  N317  1  0.68940000  0.07920000  0.41450000  1
  N  N318  1  0.29370000  0.04920000  0.97420000  1
  N  N319  1  0.75550000  0.04920000  0.47420000  1
  Zn  Zn320  1  0.79202000  0.82710000  0.40357000  1
  Zn  Zn321  1  0.03508000  0.82710000  0.90357000  1
  Zn  Zn322  1  0.46744000  0.74606000  0.93736000  1
  Zn  Zn323  1  0.27862000  0.74606000  0.43736000  1
  Zn  Zn324  1  0.47587000  0.65782000  0.22915000  1
  Zn  Zn325  1  0.18195000  0.65782000  0.72915000  1
  Zn  Zn326  1  0.52413000  0.34218000  0.77085000  1
  Zn  Zn327  1  0.81805000  0.34218000  0.27085000  1
  Zn  Zn328  1  0.53256000  0.25394000  0.06264000  1
  Zn  Zn329  1  0.72138000  0.25394000  0.56264000  1
  Zn  Zn330  1  0.20798000  0.17290000  0.59643000  1
  Zn  Zn331  1  0.96492000  0.17290000  0.09643000  1
