# generated using pymatgen
data_ZnP2H3O8
_symmetry_space_group_name_H-M   'P 1'
_cell_length_a   10.42000000
_cell_length_b   10.45230000
_cell_length_c   11.62210000
_cell_angle_alpha   90.00000000
_cell_angle_beta   90.00000000
_cell_angle_gamma   90.00000000
_symmetry_Int_Tables_number   1
_chemical_formula_structural   ZnP2H3O8
_chemical_formula_sum   'Zn4 P8 H12 O32'
_cell_volume   1265.79738215
_cell_formula_units_Z   4
loop_
 _symmetry_equiv_pos_site_id
 _symmetry_equiv_pos_as_xyz
  1  'x, y, z'
loop_
 _atom_site_type_symbol
 _atom_site_label
 _atom_site_symmetry_multiplicity
 _atom_site_fract_x
 _atom_site_fract_y
 _atom_site_fract_z
 _atom_site_occupancy
  Zn  Zn0  1  0.05313000  0.29936000  0.88124000  1
  Zn  Zn1  1  0.44687000  0.70064000  0.38124000  1
  Zn  Zn2  1  0.55313000  0.20064000  0.11876000  1
  Zn  Zn3  1  0.94687000  0.79936000  0.61876000  1
  P  P4  1  0.01320000  0.07240000  0.69940000  1
  P  P5  1  0.18770000  0.83990000  0.45510000  1
  P  P6  1  0.31230000  0.16010000  0.95510000  1
  P  P7  1  0.48680000  0.92760000  0.19940000  1
  P  P8  1  0.51320000  0.42760000  0.30060000  1
  P  P9  1  0.68770000  0.66010000  0.54490000  1
  P  P10  1  0.81230000  0.33990000  0.04490000  1
  P  P11  1  0.98680000  0.57240000  0.80060000  1
  H  H12  1  0.05300000  0.14900000  0.52800000  1
  H  H13  1  0.23600000  0.00500000  0.84000000  1
  H  H14  1  0.23700000  0.97600000  0.58700000  1
  H  H15  1  0.26300000  0.02400000  0.08700000  1
  H  H16  1  0.26400000  0.99500000  0.34000000  1
  H  H17  1  0.44700000  0.85100000  0.02800000  1
  H  H18  1  0.55300000  0.35100000  0.47200000  1
  H  H19  1  0.73600000  0.49500000  0.16000000  1
  H  H20  1  0.73700000  0.52400000  0.41300000  1
  H  H21  1  0.76300000  0.47600000  0.91300000  1
  H  H22  1  0.76400000  0.50500000  0.66000000  1
  H  H23  1  0.94700000  0.64900000  0.97200000  1
  O  O24  1  0.01760000  0.63470000  0.91610000  1
  O  O25  1  0.02140000  0.66290000  0.70560000  1
  O  O26  1  0.04530000  0.81030000  0.48010000  1
  O  O27  1  0.06060000  0.45110000  0.79510000  1
  O  O28  1  0.15450000  0.04480000  0.69920000  1
  O  O29  1  0.18800000  0.94640000  0.36490000  1
  O  O30  1  0.23710000  0.27340000  0.91160000  1
  O  O31  1  0.24480000  0.11460000  0.06170000  1
  O  O32  1  0.25520000  0.88540000  0.56170000  1
  O  O33  1  0.26290000  0.72660000  0.41160000  1
  O  O34  1  0.31200000  0.05360000  0.86490000  1
  O  O35  1  0.34550000  0.95520000  0.19920000  1
  O  O36  1  0.43940000  0.54890000  0.29510000  1
  O  O37  1  0.45470000  0.18970000  0.98010000  1
  O  O38  1  0.47860000  0.33710000  0.20560000  1
  O  O39  1  0.48240000  0.36530000  0.41610000  1
  O  O40  1  0.51760000  0.86530000  0.08390000  1
  O  O41  1  0.52140000  0.83710000  0.29440000  1
  O  O42  1  0.54530000  0.68970000  0.51990000  1
  O  O43  1  0.56060000  0.04890000  0.20490000  1
  O  O44  1  0.65450000  0.45520000  0.30080000  1
  O  O45  1  0.68800000  0.55360000  0.63510000  1
  O  O46  1  0.73710000  0.22660000  0.08840000  1
  O  O47  1  0.74480000  0.38540000  0.93830000  1
  O  O48  1  0.75520000  0.61460000  0.43830000  1
  O  O49  1  0.76290000  0.77340000  0.58840000  1
  O  O50  1  0.81200000  0.44640000  0.13510000  1
  O  O51  1  0.84550000  0.54480000  0.80080000  1
  O  O52  1  0.93940000  0.95110000  0.70490000  1
  O  O53  1  0.95470000  0.31030000  0.01990000  1
  O  O54  1  0.97860000  0.16290000  0.79440000  1
  O  O55  1  0.98240000  0.13470000  0.58390000  1
