# generated using pymatgen
data_ZnH6C16O9
_symmetry_space_group_name_H-M   'P 1'
_cell_length_a   7.45895192
_cell_length_b   7.45895192
_cell_length_c   25.67400000
_cell_angle_alpha   90.00000000
_cell_angle_beta   90.00000000
_cell_angle_gamma   100.14976574
_symmetry_Int_Tables_number   1
_chemical_formula_structural   ZnH6C16O9
_chemical_formula_sum   'Zn2 H12 C32 O18'
_cell_volume   1406.04400706
_cell_formula_units_Z   2
loop_
 _symmetry_equiv_pos_site_id
 _symmetry_equiv_pos_as_xyz
  1  'x, y, z'
loop_
 _atom_site_type_symbol
 _atom_site_label
 _atom_site_symmetry_multiplicity
 _atom_site_fract_x
 _atom_site_fract_y
 _atom_site_fract_z
 _atom_site_occupancy
  C  C0  1  0.67720000  0.29120000  0.29580000  1
  C  C1  1  0.29120000  0.67720000  0.70420000  1
  C  C2  1  0.67320000  0.24880000  0.11310000  1
  C  C3  1  0.24880000  0.67320000  0.88690000  1
  C  C4  1  0.59590000  0.28630000  0.16140000  1
  C  C5  1  0.28630000  0.59590000  0.83860000  1
  C  C6  1  0.74040000  0.14040000  0.39120000  1
  C  C7  1  0.14040000  0.74040000  0.60880000  1
  C  C8  1  0.77820000  0.05120000  0.44140000  1
  C  C9  1  0.05120000  0.77820000  0.55860000  1
  C  C10  1  0.67160000  0.10540000  0.29980000  1
  C  C11  1  0.10540000  0.67160000  0.70020000  1
  C  C12  1  0.53740000  0.20620000  0.06930000  1
  C  C13  1  0.20620000  0.53740000  0.93070000  1
  C  C14  1  0.70050000  0.03430000  0.34740000  1
  C  C15  1  0.03430000  0.70050000  0.65260000  1
  C  C16  1  0.29950000  0.96570000  0.84740000  1
  C  C17  1  0.96570000  0.29950000  0.15260000  1
  C  C18  1  0.46260000  0.79380000  0.56930000  1
  C  C19  1  0.79380000  0.46260000  0.43070000  1
  C  C20  1  0.32840000  0.89460000  0.79980000  1
  C  C21  1  0.89460000  0.32840000  0.20020000  1
  C  C22  1  0.22180000  0.94880000  0.94140000  1
  C  C23  1  0.94880000  0.22180000  0.05860000  1
  C  C24  1  0.25960000  0.85960000  0.89120000  1
  C  C25  1  0.85960000  0.25960000  0.10880000  1
  C  C26  1  0.40410000  0.71370000  0.66140000  1
  C  C27  1  0.71370000  0.40410000  0.33860000  1
  C  C28  1  0.32680000  0.75120000  0.61310000  1
  C  C29  1  0.75120000  0.32680000  0.38690000  1
  C  C30  1  0.32280000  0.70880000  0.79580000  1
  C  C31  1  0.70880000  0.32280000  0.20420000  1
  H  H32  1  0.47170000  0.28630000  0.16430000  1
  H  H33  1  0.28630000  0.47170000  0.83570000  1
  H  H34  1  0.64880000  0.03060000  0.27070000  1
  H  H35  1  0.03060000  0.64880000  0.72930000  1
  H  H36  1  0.69290000  0.90890000  0.35040000  1
  H  H37  1  0.90890000  0.69290000  0.64960000  1
  H  H38  1  0.30710000  0.09110000  0.85040000  1
  H  H39  1  0.09110000  0.30710000  0.14960000  1
  H  H40  1  0.35120000  0.96940000  0.77070000  1
  H  H41  1  0.96940000  0.35120000  0.22930000  1
  H  H42  1  0.52830000  0.71370000  0.66430000  1
  H  H43  1  0.71370000  0.52830000  0.33570000  1
  O  O44  1  0.62680000  0.37320000  0.25000000  1
  O  O45  1  0.37320000  0.62680000  0.75000000  1
  O  O46  1  0.85610000  0.13010000  0.02430000  1
  O  O47  1  0.13010000  0.85610000  0.97570000  1
  O  O48  1  0.52520000  0.33680000  0.03781000  1
  O  O49  1  0.33680000  0.52520000  0.96219000  1
  O  O50  1  0.71030000  0.88450000  0.44400000  1
  O  O51  1  0.88450000  0.71030000  0.55600000  1
  O  O52  1  0.56270000  0.94370000  0.56830000  1
  O  O53  1  0.94370000  0.56270000  0.43170000  1
  O  O54  1  0.43730000  0.05630000  0.06830000  1
  O  O55  1  0.05630000  0.43730000  0.93170000  1
  O  O56  1  0.28970000  0.11550000  0.94400000  1
  O  O57  1  0.11550000  0.28970000  0.05600000  1
  O  O58  1  0.47480000  0.66320000  0.53781000  1
  O  O59  1  0.66320000  0.47480000  0.46219000  1
  O  O60  1  0.14390000  0.86990000  0.52430000  1
  O  O61  1  0.86990000  0.14390000  0.47570000  1
  Zn  Zn62  1  0.28686000  0.28686000  1.00000000  1
  Zn  Zn63  1  0.71314000  0.71314000  0.50000000  1
