# generated using pymatgen
data_La2H9C21(NO4)3
_symmetry_space_group_name_H-M   'P 1'
_cell_length_a   8.12410000
_cell_length_b   15.66160000
_cell_length_c   30.38430000
_cell_angle_alpha   90.00000000
_cell_angle_beta   90.00000000
_cell_angle_gamma   90.00000000
_symmetry_Int_Tables_number   1
_chemical_formula_structural   La2H9C21(NO4)3
_chemical_formula_sum   'La8 H36 C84 N12 O48'
_cell_volume   3865.98908707
_cell_formula_units_Z   4
loop_
 _symmetry_equiv_pos_site_id
 _symmetry_equiv_pos_as_xyz
  1  'x, y, z'
loop_
 _atom_site_type_symbol
 _atom_site_label
 _atom_site_symmetry_multiplicity
 _atom_site_fract_x
 _atom_site_fract_y
 _atom_site_fract_z
 _atom_site_occupancy
  La  La0  1  0.93440000  0.70363000  0.90879000  1
  La  La1  1  0.93440000  0.70363000  0.59121000  1
  La  La2  1  0.56560000  0.20363000  0.40879000  1
  La  La3  1  0.56560000  0.20363000  0.09121000  1
  La  La4  1  0.43440000  0.79637000  0.90879000  1
  La  La5  1  0.43440000  0.79637000  0.59121000  1
  La  La6  1  0.06560000  0.29637000  0.40879000  1
  La  La7  1  0.06560000  0.29637000  0.09121000  1
  H  H8  1  0.99310000  0.94630000  0.88940000  1
  H  H9  1  0.99310000  0.94630000  0.61060000  1
  H  H10  1  0.97060000  0.25390000  0.25000000  1
  H  H11  1  0.88750000  0.84390000  0.45230000  1
  H  H12  1  0.88750000  0.84390000  0.04770000  1
  H  H13  1  0.78390000  0.52300000  0.49200000  1
  H  H14  1  0.78390000  0.52300000  0.00800000  1
  H  H15  1  0.78040000  0.57070000  0.81460000  1
  H  H16  1  0.78040000  0.57070000  0.68540000  1
  H  H17  1  0.71960000  0.07070000  0.31460000  1
  H  H18  1  0.71960000  0.07070000  0.18540000  1
  H  H19  1  0.71610000  0.02300000  0.99200000  1
  H  H20  1  0.71610000  0.02300000  0.50800000  1
  H  H21  1  0.61250000  0.34390000  0.95230000  1
  H  H22  1  0.61250000  0.34390000  0.54770000  1
  H  H23  1  0.52940000  0.75390000  0.75000000  1
  H  H24  1  0.50690000  0.44630000  0.38940000  1
  H  H25  1  0.50690000  0.44630000  0.11060000  1
  H  H26  1  0.49310000  0.55370000  0.88940000  1
  H  H27  1  0.49310000  0.55370000  0.61060000  1
  H  H28  1  0.47060000  0.24610000  0.25000000  1
  H  H29  1  0.38750000  0.65610000  0.45230000  1
  H  H30  1  0.38750000  0.65610000  0.04770000  1
  H  H31  1  0.28390000  0.97700000  0.49200000  1
  H  H32  1  0.28390000  0.97700000  0.00800000  1
  H  H33  1  0.28040000  0.92930000  0.81460000  1
  H  H34  1  0.28040000  0.92930000  0.68540000  1
  H  H35  1  0.21960000  0.42930000  0.31460000  1
  H  H36  1  0.21960000  0.42930000  0.18540000  1
  H  H37  1  0.21610000  0.47700000  0.99200000  1
  H  H38  1  0.21610000  0.47700000  0.50800000  1
  H  H39  1  0.11250000  0.15610000  0.95230000  1
  H  H40  1  0.11250000  0.15610000  0.54770000  1
  H  H41  1  0.02940000  0.74610000  0.75000000  1
  H  H42  1  0.00690000  0.05370000  0.38940000  1
  H  H43  1  0.00690000  0.05370000  0.11060000  1
  C  C44  1  0.97120000  0.98660000  0.91202000  1
  C  C45  1  0.97120000  0.98660000  0.58798000  1
  C  C46  1  0.95950000  0.89120000  0.44872000  1
  C  C47  1  0.95950000  0.89120000  0.05128000  1
  C  C48  1  0.91080000  0.09950000  0.97823000  1
  C  C49  1  0.91080000  0.09950000  0.52177000  1
  C  C50  1  0.90360000  0.20800000  0.33154000  1
  C  C51  1  0.90360000  0.20800000  0.16846000  1
  C  C52  1  0.90230000  0.20470000  0.25000000  1
  C  C53  1  0.89110000  0.15860000  0.48368000  1
  C  C54  1  0.89110000  0.15860000  0.01632000  1
  C  C55  1  0.85200000  0.16850000  0.28936000  1
  C  C56  1  0.85200000  0.16850000  0.21064000  1
  C  C57  1  0.83920000  0.97190000  0.93974000  1
  C  C58  1  0.83920000  0.97190000  0.56026000  1
  C  C59  1  0.80790000  0.03050000  0.97300000  1
  C  C60  1  0.80790000  0.03050000  0.52700000  1
  C  C61  1  0.76760000  0.39380000  0.43579000  1
  C  C62  1  0.76760000  0.39380000  0.06421000  1
  C  C63  1  0.75440000  0.09560000  0.28766000  1
  C  C64  1  0.75440000  0.09560000  0.21234000  1
  C  C65  1  0.74560000  0.59560000  0.78766000  1
  C  C66  1  0.74560000  0.59560000  0.71234000  1
  C  C67  1  0.73240000  0.89380000  0.93579000  1
  C  C68  1  0.73240000  0.89380000  0.56421000  1
  C  C69  1  0.69210000  0.53050000  0.47300000  1
  C  C70  1  0.69210000  0.53050000  0.02700000  1
  C  C71  1  0.66080000  0.47190000  0.43974000  1
  C  C72  1  0.66080000  0.47190000  0.06026000  1
  C  C73  1  0.64800000  0.66850000  0.78936000  1
  C  C74  1  0.64800000  0.66850000  0.71064000  1
  C  C75  1  0.60890000  0.65860000  0.98368000  1
  C  C76  1  0.60890000  0.65860000  0.51632000  1
  C  C77  1  0.59770000  0.70470000  0.75000000  1
  C  C78  1  0.59640000  0.70800000  0.83154000  1
  C  C79  1  0.59640000  0.70800000  0.66846000  1
  C  C80  1  0.58920000  0.59950000  0.47823000  1
  C  C81  1  0.58920000  0.59950000  0.02177000  1
  C  C82  1  0.54050000  0.39120000  0.94872000  1
  C  C83  1  0.54050000  0.39120000  0.55128000  1
  C  C84  1  0.52880000  0.48660000  0.41202000  1
  C  C85  1  0.52880000  0.48660000  0.08798000  1
  C  C86  1  0.47120000  0.51340000  0.91202000  1
  C  C87  1  0.47120000  0.51340000  0.58798000  1
  C  C88  1  0.45950000  0.60880000  0.44872000  1
  C  C89  1  0.45950000  0.60880000  0.05128000  1
  C  C90  1  0.41080000  0.40050000  0.97823000  1
  C  C91  1  0.41080000  0.40050000  0.52177000  1
  C  C92  1  0.40360000  0.29200000  0.33154000  1
  C  C93  1  0.40360000  0.29200000  0.16846000  1
  C  C94  1  0.40230000  0.29530000  0.25000000  1
  C  C95  1  0.39110000  0.34140000  0.48368000  1
  C  C96  1  0.39110000  0.34140000  0.01632000  1
  C  C97  1  0.35200000  0.33150000  0.28936000  1
  C  C98  1  0.35200000  0.33150000  0.21064000  1
  C  C99  1  0.33920000  0.52810000  0.93974000  1
  C  C100  1  0.33920000  0.52810000  0.56026000  1
  C  C101  1  0.30790000  0.46950000  0.97300000  1
  C  C102  1  0.30790000  0.46950000  0.52700000  1
  C  C103  1  0.26760000  0.10620000  0.43579000  1
  C  C104  1  0.26760000  0.10620000  0.06421000  1
  C  C105  1  0.25440000  0.40440000  0.28766000  1
  C  C106  1  0.25440000  0.40440000  0.21234000  1
  C  C107  1  0.24560000  0.90440000  0.78766000  1
  C  C108  1  0.24560000  0.90440000  0.71234000  1
  C  C109  1  0.23240000  0.60620000  0.93579000  1
  C  C110  1  0.23240000  0.60620000  0.56421000  1
  C  C111  1  0.19210000  0.96950000  0.47300000  1
  C  C112  1  0.19210000  0.96950000  0.02700000  1
  C  C113  1  0.16080000  0.02810000  0.43974000  1
  C  C114  1  0.16080000  0.02810000  0.06026000  1
  C  C115  1  0.14800000  0.83150000  0.78936000  1
  C  C116  1  0.14800000  0.83150000  0.71064000  1
  C  C117  1  0.10890000  0.84140000  0.98368000  1
  C  C118  1  0.10890000  0.84140000  0.51632000  1
  C  C119  1  0.09770000  0.79530000  0.75000000  1
  C  C120  1  0.09640000  0.79200000  0.83154000  1
  C  C121  1  0.09640000  0.79200000  0.66846000  1
  C  C122  1  0.08920000  0.90050000  0.47823000  1
  C  C123  1  0.08920000  0.90050000  0.02177000  1
  C  C124  1  0.04050000  0.10880000  0.94872000  1
  C  C125  1  0.04050000  0.10880000  0.55128000  1
  C  C126  1  0.02880000  0.01340000  0.41202000  1
  C  C127  1  0.02880000  0.01340000  0.08798000  1
  N  N128  1  0.93060000  0.94530000  0.41547000  1
  N  N129  1  0.93060000  0.94530000  0.08453000  1
  N  N130  1  0.79290000  0.55870000  0.75000000  1
  N  N131  1  0.70710000  0.05870000  0.25000000  1
  N  N132  1  0.56940000  0.44530000  0.91547000  1
  N  N133  1  0.56940000  0.44530000  0.58453000  1
  N  N134  1  0.43060000  0.55470000  0.41547000  1
  N  N135  1  0.43060000  0.55470000  0.08453000  1
  N  N136  1  0.29290000  0.94130000  0.75000000  1
  N  N137  1  0.20710000  0.44130000  0.25000000  1
  N  N138  1  0.06940000  0.05470000  0.91547000  1
  N  N139  1  0.06940000  0.05470000  0.58453000  1
  O  O140  1  0.99410000  0.78980000  0.97534000  1
  O  O141  1  0.99410000  0.78980000  0.52466000  1
  O  O142  1  0.98880000  0.73390000  0.82957000  1
  O  O143  1  0.98880000  0.73390000  0.67043000  1
  O  O144  1  0.88970000  0.38950000  0.46119000  1
  O  O145  1  0.88970000  0.38950000  0.03881000  1
  O  O146  1  0.84460000  0.18400000  0.36796000  1
  O  O147  1  0.84460000  0.18400000  0.13204000  1
  O  O148  1  0.76110000  0.15130000  0.46137000  1
  O  O149  1  0.76110000  0.15130000  0.03863000  1
  O  O150  1  0.75820000  0.83870000  0.90625000  1
  O  O151  1  0.75820000  0.83870000  0.59375000  1
  O  O152  1  0.74180000  0.33870000  0.40625000  1
  O  O153  1  0.74180000  0.33870000  0.09375000  1
  O  O154  1  0.73890000  0.65130000  0.96137000  1
  O  O155  1  0.73890000  0.65130000  0.53863000  1
  O  O156  1  0.65540000  0.68400000  0.86796000  1
  O  O157  1  0.65540000  0.68400000  0.63204000  1
  O  O158  1  0.61030000  0.88950000  0.96119000  1
  O  O159  1  0.61030000  0.88950000  0.53881000  1
  O  O160  1  0.51120000  0.23390000  0.32957000  1
  O  O161  1  0.51120000  0.23390000  0.17043000  1
  O  O162  1  0.50590000  0.28980000  0.47534000  1
  O  O163  1  0.50590000  0.28980000  0.02466000  1
  O  O164  1  0.49410000  0.71020000  0.97534000  1
  O  O165  1  0.49410000  0.71020000  0.52466000  1
  O  O166  1  0.48880000  0.76610000  0.82957000  1
  O  O167  1  0.48880000  0.76610000  0.67043000  1
  O  O168  1  0.38970000  0.11050000  0.46119000  1
  O  O169  1  0.38970000  0.11050000  0.03881000  1
  O  O170  1  0.34460000  0.31600000  0.36796000  1
  O  O171  1  0.34460000  0.31600000  0.13204000  1
  O  O172  1  0.26110000  0.34870000  0.46137000  1
  O  O173  1  0.26110000  0.34870000  0.03863000  1
  O  O174  1  0.25820000  0.66130000  0.90625000  1
  O  O175  1  0.25820000  0.66130000  0.59375000  1
  O  O176  1  0.24180000  0.16130000  0.40625000  1
  O  O177  1  0.24180000  0.16130000  0.09375000  1
  O  O178  1  0.23890000  0.84870000  0.96137000  1
  O  O179  1  0.23890000  0.84870000  0.53863000  1
  O  O180  1  0.15540000  0.81600000  0.86796000  1
  O  O181  1  0.15540000  0.81600000  0.63204000  1
  O  O182  1  0.11030000  0.61050000  0.96119000  1
  O  O183  1  0.11030000  0.61050000  0.53881000  1
  O  O184  1  0.01120000  0.26610000  0.32957000  1
  O  O185  1  0.01120000  0.26610000  0.17043000  1
  O  O186  1  0.00590000  0.21020000  0.47534000  1
  O  O187  1  0.00590000  0.21020000  0.02466000  1
