# generated using pymatgen
data_Fe3H28C50O13
_symmetry_space_group_name_H-M   'P 1'
_cell_length_a   20.52270000
_cell_length_b   20.52270000
_cell_length_c   20.52270000
_cell_angle_alpha   107.11900000
_cell_angle_beta   107.11900000
_cell_angle_gamma   107.11900000
_symmetry_Int_Tables_number   1
_chemical_formula_structural   Fe3H28C50O13
_chemical_formula_sum   'Fe9 H84 C150 O39'
_cell_volume   7175.12285053
_cell_formula_units_Z   3
loop_
 _symmetry_equiv_pos_site_id
 _symmetry_equiv_pos_as_xyz
  1  'x, y, z'
loop_
 _atom_site_type_symbol
 _atom_site_label
 _atom_site_symmetry_multiplicity
 _atom_site_fract_x
 _atom_site_fract_y
 _atom_site_fract_z
 _atom_site_occupancy
  Fe  Fe0  1  0.62879000  0.62879000  0.17543000  1
  Fe  Fe1  1  0.17543000  0.62879000  0.62879000  1
  Fe  Fe2  1  0.47589000  0.57489000  0.02415000  1
  Fe  Fe3  1  0.02415000  0.57489000  0.47589000  1
  Fe  Fe4  1  0.57489000  0.47589000  0.02415000  1
  Fe  Fe5  1  0.02415000  0.47589000  0.57489000  1
  Fe  Fe6  1  0.62879000  0.17543000  0.62879000  1
  Fe  Fe7  1  0.57489000  0.02415000  0.47589000  1
  Fe  Fe8  1  0.47589000  0.02415000  0.57489000  1
  H  H9  1  0.96910000  0.96910000  0.65090000  1
  H  H10  1  0.65090000  0.96910000  0.96910000  1
  H  H11  1  0.78810000  0.94780000  0.16520000  1
  H  H12  1  0.16520000  0.94780000  0.78810000  1
  H  H13  1  0.38980000  0.91910000  0.26720000  1
  H  H14  1  0.26720000  0.91910000  0.38980000  1
  H  H15  1  0.58870000  0.89350000  0.00010000  1
  H  H16  1  0.00010000  0.89350000  0.58870000  1
  H  H17  1  0.28010000  0.85330000  0.15710000  1
  H  H18  1  0.15710000  0.85330000  0.28010000  1
  H  H19  1  0.73570000  0.83680000  0.17800000  1
  H  H20  1  0.17800000  0.83680000  0.73570000  1
  H  H21  1  0.60000000  0.82730000  0.47780000  1
  H  H22  1  0.47780000  0.82730000  0.60000000  1
  H  H23  1  0.18810000  0.79710000  0.06560000  1
  H  H24  1  0.06560000  0.79710000  0.18810000  1
  H  H25  1  0.94780000  0.78810000  0.16520000  1
  H  H26  1  0.16520000  0.78810000  0.94780000  1
  H  H27  1  0.53620000  0.78380000  0.01260000  1
  H  H28  1  0.01260000  0.78380000  0.53620000  1
  H  H29  1  0.63140000  0.73610000  0.50910000  1
  H  H30  1  0.50910000  0.73610000  0.63140000  1
  H  H31  1  0.83680000  0.73570000  0.17800000  1
  H  H32  1  0.17800000  0.73570000  0.83680000  1
  H  H33  1  0.67335000  0.67335000  0.55060000  1
  H  H34  1  0.55060000  0.67335000  0.67335000  1
  H  H35  1  0.96910000  0.65090000  0.96910000  1
  H  H36  1  0.52380000  0.64880000  0.32380000  1
  H  H37  1  0.32380000  0.64880000  0.52380000  1
  H  H38  1  0.45150000  0.64190000  0.39280000  1
  H  H39  1  0.39280000  0.64190000  0.45150000  1
  H  H40  1  0.73610000  0.63140000  0.50910000  1
  H  H41  1  0.50910000  0.63140000  0.73610000  1
  H  H42  1  0.82730000  0.60000000  0.47780000  1
  H  H43  1  0.47780000  0.60000000  0.82730000  1
  H  H44  1  0.34000000  0.59460000  0.14000000  1
  H  H45  1  0.14000000  0.59460000  0.34000000  1
  H  H46  1  0.89350000  0.58870000  0.00010000  1
  H  H47  1  0.00010000  0.58870000  0.89350000  1
  H  H48  1  0.26740000  0.58550000  0.20760000  1
  H  H49  1  0.20760000  0.58550000  0.26740000  1
  H  H50  1  0.67335000  0.55060000  0.67335000  1
  H  H51  1  0.78380000  0.53620000  0.01260000  1
  H  H52  1  0.01260000  0.53620000  0.78380000  1
  H  H53  1  0.64880000  0.52380000  0.32380000  1
  H  H54  1  0.32380000  0.52380000  0.64880000  1
  H  H55  1  0.73610000  0.50910000  0.63140000  1
  H  H56  1  0.63140000  0.50910000  0.73610000  1
  H  H57  1  0.82730000  0.47780000  0.60000000  1
  H  H58  1  0.60000000  0.47780000  0.82730000  1
  H  H59  1  0.64190000  0.45150000  0.39280000  1
  H  H60  1  0.39280000  0.45150000  0.64190000  1
  H  H61  1  0.64190000  0.39280000  0.45150000  1
  H  H62  1  0.45150000  0.39280000  0.64190000  1
  H  H63  1  0.91910000  0.38980000  0.26720000  1
  H  H64  1  0.26720000  0.38980000  0.91910000  1
  H  H65  1  0.59460000  0.34000000  0.14000000  1
  H  H66  1  0.14000000  0.34000000  0.59460000  1
  H  H67  1  0.64880000  0.32380000  0.52380000  1
  H  H68  1  0.52380000  0.32380000  0.64880000  1
  H  H69  1  0.85330000  0.28010000  0.15710000  1
  H  H70  1  0.15710000  0.28010000  0.85330000  1
  H  H71  1  0.58550000  0.26740000  0.20760000  1
  H  H72  1  0.20760000  0.26740000  0.58550000  1
  H  H73  1  0.91910000  0.26720000  0.38980000  1
  H  H74  1  0.38980000  0.26720000  0.91910000  1
  H  H75  1  0.58550000  0.20760000  0.26740000  1
  H  H76  1  0.26740000  0.20760000  0.58550000  1
  H  H77  1  0.79710000  0.18810000  0.06560000  1
  H  H78  1  0.06560000  0.18810000  0.79710000  1
  H  H79  1  0.83680000  0.17800000  0.73570000  1
  H  H80  1  0.73570000  0.17800000  0.83680000  1
  H  H81  1  0.94780000  0.16520000  0.78810000  1
  H  H82  1  0.78810000  0.16520000  0.94780000  1
  H  H83  1  0.85330000  0.15710000  0.28010000  1
  H  H84  1  0.28010000  0.15710000  0.85330000  1
  H  H85  1  0.59460000  0.14000000  0.34000000  1
  H  H86  1  0.34000000  0.14000000  0.59460000  1
  H  H87  1  0.79710000  0.06560000  0.18810000  1
  H  H88  1  0.18810000  0.06560000  0.79710000  1
  H  H89  1  0.78380000  0.01260000  0.53620000  1
  H  H90  1  0.53620000  0.01260000  0.78380000  1
  H  H91  1  0.89350000  0.00010000  0.58870000  1
  H  H92  1  0.58870000  0.00010000  0.89350000  1
  C  C93  1  0.41070000  0.96680000  0.41070000  1
  C  C94  1  0.69380000  0.93210000  0.08170000  1
  C  C95  1  0.08170000  0.93210000  0.69380000  1
  C  C96  1  0.33950000  0.92620000  0.33950000  1
  C  C97  1  0.73690000  0.91447000  0.13423000  1
  C  C98  1  0.13423000  0.91447000  0.73690000  1
  C  C99  1  0.34253000  0.90590000  0.26977000  1
  C  C100  1  0.26977000  0.90590000  0.34253000  1
  C  C101  1  0.52980000  0.90490000  0.52980000  1
  C  C102  1  0.61870000  0.88210000  0.03640000  1
  C  C103  1  0.03640000  0.88210000  0.61870000  1
  C  C104  1  0.27749000  0.86680000  0.20441000  1
  C  C105  1  0.20441000  0.86680000  0.27749000  1
  C  C106  1  0.70580000  0.84820000  0.14190000  1
  C  C107  1  0.14190000  0.84820000  0.70580000  1
  C  C108  1  0.20795000  0.84700000  0.20795000  1
  C  C109  1  0.54460000  0.84349000  0.54460000  1
  C  C110  1  0.58740000  0.81690000  0.04350000  1
  C  C111  1  0.04350000  0.81690000  0.58740000  1
  C  C112  1  0.58497000  0.81184000  0.51249000  1
  C  C113  1  0.51249000  0.81184000  0.58497000  1
  C  C114  1  0.13645000  0.80640000  0.13645000  1
  C  C115  1  0.63110000  0.79955000  0.09665000  1
  C  C116  1  0.09665000  0.79955000  0.63110000  1
  C  C117  1  0.14180000  0.77730000  0.06900000  1
  C  C118  1  0.06900000  0.77730000  0.14180000  1
  C  C119  1  0.60358000  0.75747000  0.53085000  1
  C  C120  1  0.53085000  0.75747000  0.60358000  1
  C  C121  1  0.91447000  0.73690000  0.13423000  1
  C  C122  1  0.13423000  0.73690000  0.91447000  1
  C  C123  1  0.58122000  0.73456000  0.58122000  1
  C  C124  1  0.59990000  0.73140000  0.10480000  1
  C  C125  1  0.10480000  0.73140000  0.59990000  1
  C  C126  1  0.07980000  0.71950000  0.00640000  1
  C  C127  1  0.00640000  0.71950000  0.07980000  1
  C  C128  1  0.84820000  0.70580000  0.14190000  1
  C  C129  1  0.14190000  0.70580000  0.84820000  1
  C  C130  1  0.93210000  0.69380000  0.08170000  1
  C  C131  1  0.08170000  0.69380000  0.93210000  1
  C  C132  1  0.01175000  0.69040000  0.01175000  1
  C  C133  1  0.60804000  0.68107000  0.60804000  1
  C  C134  1  0.65671000  0.65671000  0.58375000  1
  C  C135  1  0.58375000  0.65671000  0.65671000  1
  C  C136  1  0.47180000  0.63640000  0.30030000  1
  C  C137  1  0.30030000  0.63640000  0.47180000  1
  C  C138  1  0.42860000  0.63170000  0.34130000  1
  C  C139  1  0.34130000  0.63170000  0.42860000  1
  C  C140  1  0.79955000  0.63110000  0.09665000  1
  C  C141  1  0.09665000  0.63110000  0.79955000  1
  C  C142  1  0.43900000  0.62300000  0.22530000  1
  C  C143  1  0.22530000  0.62300000  0.43900000  1
  C  C144  1  0.88210000  0.61870000  0.03640000  1
  C  C145  1  0.03640000  0.61870000  0.88210000  1
  C  C146  1  0.48200000  0.61550000  0.18050000  1
  C  C147  1  0.18050000  0.61550000  0.48200000  1
  C  C148  1  0.35260000  0.61220000  0.30690000  1
  C  C149  1  0.30690000  0.61220000  0.35260000  1
  C  C150  1  0.68107000  0.60804000  0.60804000  1
  C  C151  1  0.60804000  0.60804000  0.68107000  1
  C  C152  1  0.36260000  0.60400000  0.19140000  1
  C  C153  1  0.19140000  0.60400000  0.36260000  1
  C  C154  1  0.75747000  0.60358000  0.53085000  1
  C  C155  1  0.53085000  0.60358000  0.75747000  1
  C  C156  1  0.73140000  0.59990000  0.10480000  1
  C  C157  1  0.10480000  0.59990000  0.73140000  1
  C  C158  1  0.31950000  0.59850000  0.23130000  1
  C  C159  1  0.23130000  0.59850000  0.31950000  1
  C  C160  1  0.81690000  0.58740000  0.04350000  1
  C  C161  1  0.04350000  0.58740000  0.81690000  1
  C  C162  1  0.81184000  0.58497000  0.51249000  1
  C  C163  1  0.51249000  0.58497000  0.81184000  1
  C  C164  1  0.65671000  0.58375000  0.65671000  1
  C  C165  1  0.73456000  0.58122000  0.58122000  1
  C  C166  1  0.58122000  0.58122000  0.73456000  1
  C  C167  1  0.84349000  0.54460000  0.54460000  1
  C  C168  1  0.54460000  0.54460000  0.84349000  1
  C  C169  1  0.75747000  0.53085000  0.60358000  1
  C  C170  1  0.60358000  0.53085000  0.75747000  1
  C  C171  1  0.90490000  0.52980000  0.52980000  1
  C  C172  1  0.52980000  0.52980000  0.90490000  1
  C  C173  1  0.81184000  0.51249000  0.58497000  1
  C  C174  1  0.58497000  0.51249000  0.81184000  1
  C  C175  1  0.61550000  0.48200000  0.18050000  1
  C  C176  1  0.18050000  0.48200000  0.61550000  1
  C  C177  1  0.63640000  0.47180000  0.30030000  1
  C  C178  1  0.30030000  0.47180000  0.63640000  1
  C  C179  1  0.62300000  0.43900000  0.22530000  1
  C  C180  1  0.22530000  0.43900000  0.62300000  1
  C  C181  1  0.63170000  0.42860000  0.34130000  1
  C  C182  1  0.34130000  0.42860000  0.63170000  1
  C  C183  1  0.96680000  0.41070000  0.41070000  1
  C  C184  1  0.41070000  0.41070000  0.96680000  1
  C  C185  1  0.60400000  0.36260000  0.19140000  1
  C  C186  1  0.19140000  0.36260000  0.60400000  1
  C  C187  1  0.61220000  0.35260000  0.30690000  1
  C  C188  1  0.30690000  0.35260000  0.61220000  1
  C  C189  1  0.90590000  0.34253000  0.26977000  1
  C  C190  1  0.26977000  0.34253000  0.90590000  1
  C  C191  1  0.63170000  0.34130000  0.42860000  1
  C  C192  1  0.42860000  0.34130000  0.63170000  1
  C  C193  1  0.92620000  0.33950000  0.33950000  1
  C  C194  1  0.33950000  0.33950000  0.92620000  1
  C  C195  1  0.59850000  0.31950000  0.23130000  1
  C  C196  1  0.23130000  0.31950000  0.59850000  1
  C  C197  1  0.61220000  0.30690000  0.35260000  1
  C  C198  1  0.35260000  0.30690000  0.61220000  1
  C  C199  1  0.63640000  0.30030000  0.47180000  1
  C  C200  1  0.47180000  0.30030000  0.63640000  1
  C  C201  1  0.86680000  0.27749000  0.20441000  1
  C  C202  1  0.20441000  0.27749000  0.86680000  1
  C  C203  1  0.90590000  0.26977000  0.34253000  1
  C  C204  1  0.34253000  0.26977000  0.90590000  1
  C  C205  1  0.59850000  0.23130000  0.31950000  1
  C  C206  1  0.31950000  0.23130000  0.59850000  1
  C  C207  1  0.62300000  0.22530000  0.43900000  1
  C  C208  1  0.43900000  0.22530000  0.62300000  1
  C  C209  1  0.84700000  0.20795000  0.20795000  1
  C  C210  1  0.20795000  0.20795000  0.84700000  1
  C  C211  1  0.86680000  0.20441000  0.27749000  1
  C  C212  1  0.27749000  0.20441000  0.86680000  1
  C  C213  1  0.60400000  0.19140000  0.36260000  1
  C  C214  1  0.36260000  0.19140000  0.60400000  1
  C  C215  1  0.61550000  0.18050000  0.48200000  1
  C  C216  1  0.48200000  0.18050000  0.61550000  1
  C  C217  1  0.84820000  0.14190000  0.70580000  1
  C  C218  1  0.70580000  0.14190000  0.84820000  1
  C  C219  1  0.77730000  0.14180000  0.06900000  1
  C  C220  1  0.06900000  0.14180000  0.77730000  1
  C  C221  1  0.80640000  0.13645000  0.13645000  1
  C  C222  1  0.13645000  0.13645000  0.80640000  1
  C  C223  1  0.91447000  0.13423000  0.73690000  1
  C  C224  1  0.73690000  0.13423000  0.91447000  1
  C  C225  1  0.73140000  0.10480000  0.59990000  1
  C  C226  1  0.59990000  0.10480000  0.73140000  1
  C  C227  1  0.79955000  0.09665000  0.63110000  1
  C  C228  1  0.63110000  0.09665000  0.79955000  1
  C  C229  1  0.93210000  0.08170000  0.69380000  1
  C  C230  1  0.69380000  0.08170000  0.93210000  1
  C  C231  1  0.71950000  0.07980000  0.00640000  1
  C  C232  1  0.00640000  0.07980000  0.71950000  1
  C  C233  1  0.77730000  0.06900000  0.14180000  1
  C  C234  1  0.14180000  0.06900000  0.77730000  1
  C  C235  1  0.81690000  0.04350000  0.58740000  1
  C  C236  1  0.58740000  0.04350000  0.81690000  1
  C  C237  1  0.88210000  0.03640000  0.61870000  1
  C  C238  1  0.61870000  0.03640000  0.88210000  1
  C  C239  1  0.69040000  0.01175000  0.01175000  1
  C  C240  1  0.01175000  0.01175000  0.69040000  1
  C  C241  1  0.71950000  0.00640000  0.07980000  1
  C  C242  1  0.07980000  0.00640000  0.71950000  1
  O  O243  1  0.47021000  0.98330000  0.40249000  1
  O  O244  1  0.40249000  0.98330000  0.47021000  1
  O  O245  1  0.55906000  0.93079000  0.49115000  1
  O  O246  1  0.49115000  0.93079000  0.55906000  1
  O  O247  1  0.63895000  0.72063000  0.15641000  1
  O  O248  1  0.15641000  0.72063000  0.63895000  1
  O  O249  1  0.53699000  0.68594000  0.05777000  1
  O  O250  1  0.05777000  0.68594000  0.53699000  1
  O  O251  1  0.72063000  0.63895000  0.15641000  1
  O  O252  1  0.15641000  0.63895000  0.72063000  1
  O  O253  1  0.54768000  0.63221000  0.21031000  1
  O  O254  1  0.21031000  0.63221000  0.54768000  1
  O  O255  1  0.44588000  0.59602000  0.10920000  1
  O  O256  1  0.10920000  0.59602000  0.44588000  1
  O  O257  1  0.56079000  0.56079000  0.07392000  1
  O  O258  1  0.07392000  0.56079000  0.56079000  1
  O  O259  1  0.93079000  0.55906000  0.49115000  1
  O  O260  1  0.49115000  0.55906000  0.93079000  1
  O  O261  1  0.63221000  0.54768000  0.21031000  1
  O  O262  1  0.21031000  0.54768000  0.63221000  1
  O  O263  1  0.68594000  0.53699000  0.05777000  1
  O  O264  1  0.05777000  0.53699000  0.68594000  1
  O  O265  1  0.93079000  0.49115000  0.55906000  1
  O  O266  1  0.55906000  0.49115000  0.93079000  1
  O  O267  1  0.98330000  0.47021000  0.40249000  1
  O  O268  1  0.40249000  0.47021000  0.98330000  1
  O  O269  1  0.59602000  0.44588000  0.10920000  1
  O  O270  1  0.10920000  0.44588000  0.59602000  1
  O  O271  1  0.98330000  0.40249000  0.47021000  1
  O  O272  1  0.47021000  0.40249000  0.98330000  1
  O  O273  1  0.63221000  0.21031000  0.54768000  1
  O  O274  1  0.54768000  0.21031000  0.63221000  1
  O  O275  1  0.72063000  0.15641000  0.63895000  1
  O  O276  1  0.63895000  0.15641000  0.72063000  1
  O  O277  1  0.59602000  0.10920000  0.44588000  1
  O  O278  1  0.44588000  0.10920000  0.59602000  1
  O  O279  1  0.56079000  0.07392000  0.56079000  1
  O  O280  1  0.68594000  0.05777000  0.53699000  1
  O  O281  1  0.53699000  0.05777000  0.68594000  1
