# generated using pymatgen
data_ZnH10(C2N)4
_symmetry_space_group_name_H-M   'P 1'
_cell_length_a   14.73086044
_cell_length_b   14.73070000
_cell_length_c   14.73070000
_cell_angle_alpha   109.47100000
_cell_angle_beta   109.47144127
_cell_angle_gamma   109.47144127
_symmetry_Int_Tables_number   1
_chemical_formula_structural   ZnH10(C2N)4
_chemical_formula_sum   'Zn6 H60 C48 N24'
_cell_volume   2460.66114514
_cell_formula_units_Z   6
loop_
 _symmetry_equiv_pos_site_id
 _symmetry_equiv_pos_as_xyz
  1  'x, y, z'
loop_
 _atom_site_type_symbol
 _atom_site_label
 _atom_site_symmetry_multiplicity
 _atom_site_fract_x
 _atom_site_fract_y
 _atom_site_fract_z
 _atom_site_occupancy
  Zn  Zn0  1  0.25000000  0.75000000  0.50000000  1
  Zn  Zn1  1  0.50000000  0.25000000  0.75000000  1
  Zn  Zn2  1  0.25000000  0.50000000  0.75000000  1
  Zn  Zn3  1  0.75000000  0.50000000  0.25000000  1
  Zn  Zn4  1  0.50000000  0.75000000  0.25000000  1
  Zn  Zn5  1  0.75000000  0.25000000  0.50000000  1
  H  H6  1  0.74913000  0.25218000  0.77270000  1
  H  H7  1  0.49055000  0.75240000  0.52819000  1
  H  H8  1  0.50273000  0.88969000  0.55410000  1
  H  H9  1  0.61466000  0.11887000  0.67752000  1
  H  H10  1  0.11897000  0.64529000  0.22146000  1
  H  H11  1  0.47368000  0.35471000  0.57617000  1
  H  H12  1  0.35471000  0.57617000  0.47368000  1
  H  H13  1  0.77854000  0.42383000  0.89751000  1
  H  H14  1  0.30714000  0.92632000  0.43753000  1
  H  H15  1  0.37506000  0.08064000  0.51618000  1
  H  H16  1  0.35471000  0.47368000  0.57617000  1
  H  H17  1  0.88103000  0.52632000  0.10249000  1
  H  H18  1  0.50724000  0.50946000  0.74503000  1
  H  H19  1  0.23339000  0.99305000  0.48815000  1
  H  H20  1  0.08933000  0.52556000  0.34814000  1
  H  H21  1  0.95339000  0.46673000  0.22341000  1
  H  H22  1  0.56390000  0.48542000  0.86264000  1
  H  H23  1  0.42383000  0.89751000  0.77854000  1
  H  H24  1  0.52632000  0.10249000  0.88103000  1
  H  H25  1  0.48701000  0.56326000  0.86607000  1
  H  H26  1  0.95728000  0.44957000  0.34403000  1
  H  H27  1  0.10249000  0.88103000  0.52632000  1
  H  H28  1  0.22146000  0.11897000  0.64529000  1
  H  H29  1  0.71793000  0.63233000  0.15258000  1
  H  H30  1  0.07174000  0.38193000  0.50991000  1
  H  H31  1  0.42383000  0.77854000  0.89751000  1
  H  H32  1  0.64529000  0.22146000  0.11897000  1
  H  H33  1  0.43523000  0.29141000  0.91799000  1
  H  H34  1  0.01027000  0.24224000  0.49672000  1
  H  H35  1  0.12083000  0.68029000  0.61527000  1
  H  H36  1  0.25286000  0.77179000  0.75121000  1
  H  H37  1  0.75121000  0.77179000  0.25286000  1
  H  H38  1  0.61528000  0.68030000  0.12084000  1
  H  H39  1  0.49671000  0.24224000  0.01026000  1
  H  H40  1  0.91799000  0.29141000  0.43523000  1
  H  H41  1  0.11897000  0.22146000  0.64529000  1
  H  H42  1  0.89751000  0.77854000  0.42383000  1
  H  H43  1  0.50991000  0.38193000  0.07174000  1
  H  H44  1  0.15258000  0.63233000  0.71793000  1
  H  H45  1  0.52632000  0.88103000  0.10249000  1
  H  H46  1  0.64529000  0.11897000  0.22146000  1
  H  H47  1  0.34403000  0.44956000  0.95728000  1
  H  H48  1  0.86606000  0.56326000  0.48700000  1
  H  H49  1  0.77854000  0.89751000  0.42383000  1
  H  H50  1  0.88103000  0.10249000  0.52632000  1
  H  H51  1  0.86264000  0.48542000  0.56390000  1
  H  H52  1  0.22341000  0.46672000  0.95338000  1
  H  H53  1  0.34814000  0.52557000  0.08934000  1
  H  H54  1  0.48814000  0.99304000  0.23338000  1
  H  H55  1  0.74503000  0.50946000  0.50724000  1
  H  H56  1  0.10249000  0.52632000  0.88103000  1
  H  H57  1  0.57617000  0.47368000  0.35471000  1
  H  H58  1  0.51618000  0.08063000  0.37506000  1
  H  H59  1  0.43754000  0.92633000  0.30715000  1
  H  H60  1  0.47368000  0.57617000  0.35471000  1
  H  H61  1  0.89751000  0.42383000  0.77854000  1
  H  H62  1  0.22146000  0.64529000  0.11897000  1
  H  H63  1  0.57617000  0.35471000  0.47368000  1
  H  H64  1  0.56486000  0.83163000  0.47585000  1
  H  H65  1  0.72062000  0.15522000  0.63419000  1
  C  C66  1  0.49230000  0.81020000  0.49230000  1
  C  C67  1  0.38530000  0.75340000  0.38530000  1
  C  C68  1  0.68210000  0.18980000  0.68210000  1
  C  C69  1  0.63190000  0.24660000  0.63190000  1
  C  C70  1  0.21270000  0.68050000  0.26780000  1
  C  C71  1  0.53220000  0.31950000  0.58730000  1
  C  C72  1  0.31790000  1.00000000  0.50770000  1
  C  C73  1  0.31950000  0.58730000  0.53220000  1
  C  C74  1  0.73220000  0.41270000  0.94490000  1
  C  C75  1  0.36810000  1.00000000  0.61470000  1
  C  C76  1  0.31950000  0.53220000  0.58730000  1
  C  C77  1  0.78730000  0.46780000  0.05510000  1
  C  C78  1  0.49230000  0.49230000  0.81020000  1
  C  C79  1  0.00000000  0.50770000  0.31790000  1
  C  C80  1  0.41270000  0.94490000  0.73220000  1
  C  C81  1  0.46780000  0.05510000  0.78730000  1
  C  C82  1  0.38530000  0.38530000  0.75340000  1
  C  C83  1  1.00000000  0.61470000  0.36810000  1
  C  C84  1  0.24660000  0.63190000  0.63190000  1
  C  C85  1  0.61470000  0.36810000  1.00000000  1
  C  C86  1  0.05510000  0.78730000  0.46780000  1
  C  C87  1  0.26780000  0.21270000  0.68050000  1
  C  C88  1  0.21270000  0.26780000  0.68050000  1
  C  C89  1  0.94490000  0.73220000  0.41270000  1
  C  C90  1  0.18980000  0.68210000  0.68210000  1
  C  C91  1  0.50770000  0.31790000  1.00000000  1
  C  C92  1  0.68210000  0.68210000  0.18980000  1
  C  C93  1  1.00000000  0.31790000  0.50770000  1
  C  C94  1  0.41270000  0.73220000  0.94490000  1
  C  C95  1  0.68050000  0.26780000  0.21270000  1
  C  C96  1  0.46780000  0.78730000  0.05510000  1
  C  C97  1  0.68050000  0.21270000  0.26780000  1
  C  C98  1  0.63190000  0.63190000  0.24660000  1
  C  C99  1  1.00000000  0.36810000  0.61470000  1
  C  C100  1  0.36810000  0.61470000  1.00000000  1
  C  C101  1  0.75340000  0.38530000  0.38530000  1
  C  C102  1  0.73220000  0.94490000  0.41270000  1
  C  C103  1  0.78730000  0.05510000  0.46780000  1
  C  C104  1  0.31790000  0.50770000  1.00000000  1
  C  C105  1  0.81020000  0.49230000  0.49230000  1
  C  C106  1  0.05510000  0.46780000  0.78730000  1
  C  C107  1  0.58730000  0.53220000  0.31950000  1
  C  C108  1  0.61470000  1.00000000  0.36810000  1
  C  C109  1  0.53220000  0.58730000  0.31950000  1
  C  C110  1  0.94490000  0.41270000  0.73220000  1
  C  C111  1  0.50770000  1.00000000  0.31790000  1
  C  C112  1  0.26780000  0.68050000  0.21270000  1
  C  C113  1  0.58730000  0.31950000  0.53220000  1
  N  N114  1  0.28640000  0.72690000  0.37870000  1
  N  N115  1  0.55950000  0.27310000  0.65180000  1
  N  N116  1  0.34820000  0.90770000  0.62130000  1
  N  N117  1  0.44050000  0.09230000  0.71360000  1
  N  N118  1  0.27310000  0.65180000  0.55950000  1
  N  N119  1  0.62130000  0.34820000  0.90770000  1
  N  N120  1  0.09230000  0.71360000  0.44050000  1
  N  N121  1  0.37870000  0.28640000  0.72690000  1
  N  N122  1  0.27310000  0.55950000  0.65180000  1
  N  N123  1  0.71360000  0.44050000  0.09230000  1
  N  N124  1  0.28640000  0.37870000  0.72690000  1
  N  N125  1  0.90770000  0.62130000  0.34820000  1
  N  N126  1  0.34820000  0.62130000  0.90770000  1
  N  N127  1  0.72690000  0.37870000  0.28640000  1
  N  N128  1  0.09230000  0.44050000  0.71360000  1
  N  N129  1  0.65180000  0.55950000  0.27310000  1
  N  N130  1  0.44050000  0.71360000  0.09230000  1
  N  N131  1  0.72690000  0.28640000  0.37870000  1
  N  N132  1  0.55950000  0.65180000  0.27310000  1
  N  N133  1  0.90770000  0.34820000  0.62130000  1
  N  N134  1  0.62130000  0.90770000  0.34820000  1
  N  N135  1  0.71360000  0.09230000  0.44050000  1
  N  N136  1  0.37870000  0.72690000  0.28640000  1
  N  N137  1  0.65180000  0.27310000  0.55950000  1
