# generated using pymatgen
data_VH4C8O5
_symmetry_space_group_name_H-M   'P 1'
_cell_length_a   12.04740000
_cell_length_b   12.29661977
_cell_length_c   12.29661977
_cell_angle_alpha   76.11528802
_cell_angle_beta   60.66820379
_cell_angle_gamma   60.66820379
_symmetry_Int_Tables_number   1
_chemical_formula_structural   VH4C8O5
_chemical_formula_sum   'V4 H16 C32 O20'
_cell_volume   1384.51005204
_cell_formula_units_Z   4
loop_
 _symmetry_equiv_pos_site_id
 _symmetry_equiv_pos_as_xyz
  1  'x, y, z'
loop_
 _atom_site_type_symbol
 _atom_site_label
 _atom_site_symmetry_multiplicity
 _atom_site_fract_x
 _atom_site_fract_y
 _atom_site_fract_z
 _atom_site_occupancy
  C  C0  1  0.79560000  0.00000000  0.00000000  1
  C  C1  1  0.56310000  0.00000000  0.00000000  1
  C  C2  1  0.43690000  0.00000000  0.00000000  1
  C  C3  1  0.20440000  0.00000000  0.00000000  1
  C  C4  1  0.95440000  0.50000000  0.50000000  1
  C  C5  1  0.54560000  0.50000000  0.50000000  1
  C  C6  1  0.31310000  0.50000000  0.50000000  1
  C  C7  1  0.18690000  0.50000000  0.50000000  1
  C  C8  1  0.16972000  0.39032000  0.52784000  1
  C  C9  1  0.05342000  0.39032000  0.52784000  1
  C  C10  1  0.77842000  0.02784000  0.89032000  1
  C  C11  1  0.66212000  0.02784000  0.89032000  1
  C  C12  1  0.55626000  0.39032000  0.47216000  1
  C  C13  1  0.43996000  0.39032000  0.47216000  1
  C  C14  1  0.44756000  0.97216000  0.89032000  1
  C  C15  1  0.33126000  0.97216000  0.89032000  1
  C  C16  1  0.04060000  0.27500000  0.54860000  1
  C  C17  1  0.88580000  0.04860000  0.77500000  1
  C  C18  1  0.68440000  0.27500000  0.45140000  1
  C  C19  1  0.33920000  0.95140000  0.77500000  1
  C  C20  1  0.06560000  0.04860000  0.22500000  1
  C  C21  1  0.41080000  0.72500000  0.54860000  1
  C  C22  1  0.70940000  0.95140000  0.22500000  1
  C  C23  1  0.86420000  0.72500000  0.45140000  1
  C  C24  1  0.31004000  0.02784000  0.10968000  1
  C  C25  1  0.19374000  0.02784000  0.10968000  1
  C  C26  1  0.41874000  0.60968000  0.52784000  1
  C  C27  1  0.30244000  0.60968000  0.52784000  1
  C  C28  1  0.69658000  0.97216000  0.10968000  1
  C  C29  1  0.58028000  0.97216000  0.10968000  1
  C  C30  1  0.08788000  0.60968000  0.47216000  1
  C  C31  1  0.97158000  0.60968000  0.47216000  1
  H  H32  1  0.88190000  0.00000000  0.00000000  1
  H  H33  1  0.11810000  0.00000000  0.00000000  1
  H  H34  1  0.86810000  0.50000000  0.50000000  1
  H  H35  1  0.63190000  0.50000000  0.50000000  1
  H  H36  1  0.24320000  0.30890000  0.54850000  1
  H  H37  1  0.64940000  0.04850000  0.80890000  1
  H  H38  1  0.44790000  0.30890000  0.45150000  1
  H  H39  1  0.54170000  0.95150000  0.80890000  1
  H  H40  1  0.55240000  0.07260000  0.57260000  1
  H  H41  1  0.37500000  0.07260000  0.42740000  1
  H  H42  1  0.87500000  0.92740000  0.57260000  1
  H  H43  1  0.19760000  0.92740000  0.42740000  1
  H  H44  1  0.30210000  0.04850000  0.19110000  1
  H  H45  1  0.20830000  0.69110000  0.54850000  1
  H  H46  1  0.50680000  0.95150000  0.19110000  1
  H  H47  1  0.10060000  0.69110000  0.45150000  1
  O  O48  1  0.09380000  0.19150000  0.61490000  1
  O  O49  1  0.84980000  0.11490000  0.69150000  1
  O  O50  1  0.76090000  0.26230000  0.50030000  1
  O  O51  1  0.22650000  0.00030000  0.76230000  1
  O  O52  1  0.97680000  0.26230000  0.49970000  1
  O  O53  1  0.01120000  0.99970000  0.76230000  1
  O  O54  1  0.71470000  0.19150000  0.38510000  1
  O  O55  1  0.45870000  0.88510000  0.69150000  1
  O  O56  1  0.62360000  0.00140000  0.50140000  1
  O  O57  1  0.37500000  0.00140000  0.49860000  1
  O  O58  1  0.87500000  0.99860000  0.50140000  1
  O  O59  1  0.12640000  0.99860000  0.49860000  1
  O  O60  1  0.03530000  0.11490000  0.30850000  1
  O  O61  1  0.29130000  0.80850000  0.61490000  1
  O  O62  1  0.77320000  0.00030000  0.23770000  1
  O  O63  1  0.73880000  0.73770000  0.50030000  1
  O  O64  1  0.98910000  0.99970000  0.23770000  1
  O  O65  1  0.52350000  0.73770000  0.49970000  1
  O  O66  1  0.65620000  0.88510000  0.30850000  1
  O  O67  1  0.90020000  0.80850000  0.38510000  1
  V  V68  1  0.93671000  0.12658000  0.50000000  1
  V  V69  1  0.18671000  1.00000000  0.62658000  1
  V  V70  1  0.81329000  1.00000000  0.37342000  1
  V  V71  1  0.56329000  0.87342000  0.50000000  1
