# generated using pymatgen
data_FeH12(CN2)12
_symmetry_space_group_name_H-M   'P 1'
_cell_length_a   8.14460000
_cell_length_b   8.85150000
_cell_length_c   20.26030000
_cell_angle_alpha   90.00000000
_cell_angle_beta   90.00000000
_cell_angle_gamma   90.06100000
_symmetry_Int_Tables_number   1
_chemical_formula_structural   FeH12(CN2)12
_chemical_formula_sum   'Fe2 H24 C24 N48'
_cell_volume   1460.60323879
_cell_formula_units_Z   2
loop_
 _symmetry_equiv_pos_site_id
 _symmetry_equiv_pos_as_xyz
  1  'x, y, z'
loop_
 _atom_site_type_symbol
 _atom_site_label
 _atom_site_symmetry_multiplicity
 _atom_site_fract_x
 _atom_site_fract_y
 _atom_site_fract_z
 _atom_site_occupancy
  Fe  Fe0  1  0.00000000  0.00000000  0.00000000  1
  Fe  Fe1  1  0.50000000  0.50000000  0.50000000  1
  H  H2  1  0.99700000  0.20500000  0.86800000  1
  H  H3  1  0.97400000  0.16600000  0.14800000  1
  H  H4  1  0.96900000  0.67300000  0.64680000  1
  H  H5  1  0.93900000  0.65000000  0.33960000  1
  H  H6  1  0.89700000  0.35500000  0.50070000  1
  H  H7  1  0.81800000  0.53300000  0.00300000  1
  H  H8  1  0.68200000  0.96700000  0.50300000  1
  H  H9  1  0.60300000  0.14500000  0.00070000  1
  H  H10  1  0.56100000  0.85000000  0.83960000  1
  H  H11  1  0.53100000  0.82700000  0.14680000  1
  H  H12  1  0.52600000  0.33400000  0.64800000  1
  H  H13  1  0.50300000  0.29500000  0.36800000  1
  H  H14  1  0.49700000  0.70500000  0.63200000  1
  H  H15  1  0.47400000  0.66600000  0.35200000  1
  H  H16  1  0.46900000  0.17300000  0.85320000  1
  H  H17  1  0.43900000  0.15000000  0.16040000  1
  H  H18  1  0.39700000  0.85500000  0.99930000  1
  H  H19  1  0.31800000  0.03300000  0.49700000  1
  H  H20  1  0.18200000  0.46700000  0.99700000  1
  H  H21  1  0.10300000  0.64500000  0.49930000  1
  H  H22  1  0.06100000  0.35000000  0.66040000  1
  H  H23  1  0.03100000  0.32700000  0.35320000  1
  H  H24  1  0.02600000  0.83400000  0.85200000  1
  H  H25  1  0.00300000  0.79500000  0.13200000  1
  C  C26  1  0.91340000  0.85430000  0.86310000  1
  C  C27  1  0.90330000  0.81640000  0.12520000  1
  C  C28  1  0.85830000  0.66270000  0.63430000  1
  C  C29  1  0.84740000  0.63240000  0.35420000  1
  C  C30  1  0.81950000  0.28150000  0.50149000  1
  C  C31  1  0.80040000  0.43680000  0.00200000  1
  C  C32  1  0.69960000  0.06320000  0.50200000  1
  C  C33  1  0.68050000  0.21850000  0.00149000  1
  C  C34  1  0.65260000  0.86760000  0.85420000  1
  C  C35  1  0.64170000  0.83730000  0.13430000  1
  C  C36  1  0.59670000  0.68360000  0.62520000  1
  C  C37  1  0.58660000  0.64570000  0.36310000  1
  C  C38  1  0.41340000  0.35430000  0.63690000  1
  C  C39  1  0.40330000  0.31640000  0.37480000  1
  C  C40  1  0.35830000  0.16270000  0.86570000  1
  C  C41  1  0.34740000  0.13240000  0.14580000  1
  C  C42  1  0.31950000  0.78150000  0.99851000  1
  C  C43  1  0.30040000  0.93680000  0.49800000  1
  C  C44  1  0.19960000  0.56320000  0.99800000  1
  C  C45  1  0.18050000  0.71850000  0.49851000  1
  C  C46  1  0.15260000  0.36760000  0.64580000  1
  C  C47  1  0.14170000  0.33730000  0.36570000  1
  C  C48  1  0.09670000  0.18360000  0.87480000  1
  C  C49  1  0.08660000  0.14570000  0.13690000  1
  N  N50  1  0.99630000  0.93020000  0.50117000  1
  N  N51  1  0.91470000  0.33600000  0.00416000  1
  N  N52  1  0.85700000  0.90450000  0.91870000  1
  N  N53  1  0.85100000  0.88570000  0.07345000  1
  N  N54  1  0.84900000  0.13100000  0.50120000  1
  N  N55  1  0.83750000  0.19580000  0.00365000  1
  N  N56  1  0.82170000  0.77450000  0.75661000  1
  N  N57  1  0.81910000  0.60190000  0.57841000  1
  N  N58  1  0.81200000  0.58770000  0.41400000  1
  N  N59  1  0.80800000  0.72390000  0.22924000  1
  N  N60  1  0.79100000  0.83100000  0.82140000  1
  N  N61  1  0.77680000  0.78360000  0.16446000  1
  N  N62  1  0.72320000  0.71640000  0.66446000  1
  N  N63  1  0.70900000  0.66900000  0.32140000  1
  N  N64  1  0.69200000  0.77610000  0.72924000  1
  N  N65  1  0.68800000  0.91230000  0.91400000  1
  N  N66  1  0.68090000  0.89810000  0.07841000  1
  N  N67  1  0.67830000  0.72550000  0.25661000  1
  N  N68  1  0.66250000  0.30420000  0.50365000  1
  N  N69  1  0.65100000  0.36900000  0.00120000  1
  N  N70  1  0.64900000  0.61430000  0.57345000  1
  N  N71  1  0.64300000  0.59550000  0.41870000  1
  N  N72  1  0.58530000  0.16400000  0.50416000  1
  N  N73  1  0.50370000  0.56980000  0.00117000  1
  N  N74  1  0.49630000  0.43020000  0.99883000  1
  N  N75  1  0.41470000  0.83600000  0.49584000  1
  N  N76  1  0.35700000  0.40450000  0.58130000  1
  N  N77  1  0.35100000  0.38570000  0.42655000  1
  N  N78  1  0.34900000  0.63100000  0.99880000  1
  N  N79  1  0.33750000  0.69580000  0.49635000  1
  N  N80  1  0.32170000  0.27450000  0.74339000  1
  N  N81  1  0.31910000  0.10190000  0.92159000  1
  N  N82  1  0.31200000  0.08770000  0.08600000  1
  N  N83  1  0.30800000  0.22390000  0.27076000  1
  N  N84  1  0.29100000  0.33100000  0.67860000  1
  N  N85  1  0.27680000  0.28360000  0.33554000  1
  N  N86  1  0.22320000  0.21640000  0.83554000  1
  N  N87  1  0.20900000  0.16900000  0.17860000  1
  N  N88  1  0.19200000  0.27610000  0.77076000  1
  N  N89  1  0.18800000  0.41230000  0.58600000  1
  N  N90  1  0.18090000  0.39810000  0.42159000  1
  N  N91  1  0.17830000  0.22550000  0.24339000  1
  N  N92  1  0.16250000  0.80420000  0.99635000  1
  N  N93  1  0.15100000  0.86900000  0.49880000  1
  N  N94  1  0.14900000  0.11430000  0.92655000  1
  N  N95  1  0.14300000  0.09550000  0.08130000  1
  N  N96  1  0.08530000  0.66400000  0.99584000  1
  N  N97  1  0.00370000  0.06980000  0.49883000  1
