# generated using pymatgen
data_CuC2N
_symmetry_space_group_name_H-M   'P 1'
_cell_length_a   7.40810000
_cell_length_b   8.55450000
_cell_length_c   8.58056815
_cell_angle_alpha   119.89955306
_cell_angle_beta   114.66681730
_cell_angle_gamma   90.00000000
_symmetry_Int_Tables_number   1
_chemical_formula_structural   CuC2N
_chemical_formula_sum   'Cu4 C8 N4'
_cell_volume   413.17552752
_cell_formula_units_Z   4
loop_
 _symmetry_equiv_pos_site_id
 _symmetry_equiv_pos_as_xyz
  1  'x, y, z'
loop_
 _atom_site_type_symbol
 _atom_site_label
 _atom_site_symmetry_multiplicity
 _atom_site_fract_x
 _atom_site_fract_y
 _atom_site_fract_z
 _atom_site_occupancy
  C  C0  1  0.73540000  0.80830000  0.91720000  1
  C  C1  1  0.23540000  0.10890000  0.91720000  1
  C  C2  1  0.70120000  0.38055000  0.53370000  1
  C  C3  1  0.20120000  0.15315000  0.53370000  1
  C  C4  1  0.29880000  0.61945000  0.46630000  1
  C  C5  1  0.79880000  0.84685000  0.46630000  1
  C  C6  1  0.26460000  0.19170000  0.08280000  1
  C  C7  1  0.76460000  0.89110000  0.08280000  1
  Cu  Cu8  1  0.68184000  0.63677000  0.63522000  1
  Cu  Cu9  1  0.18184000  0.99845000  0.63522000  1
  Cu  Cu10  1  0.31816000  0.36323000  0.36478000  1
  Cu  Cu11  1  0.81816000  0.00155000  0.36478000  1
  N  N12  1  0.25270000  0.75637000  0.51414000  1
  N  N13  1  0.75270000  0.75777000  0.51414000  1
  N  N14  1  0.74730000  0.24363000  0.48586000  1
  N  N15  1  0.24730000  0.24223000  0.48586000  1
