# generated using pymatgen
data_ErH4(CO2)4
_symmetry_space_group_name_H-M   'P 1'
_cell_length_a   8.57750000
_cell_length_b   13.31150000
_cell_length_c   18.09390000
_cell_angle_alpha   90.00000000
_cell_angle_beta   90.00000000
_cell_angle_gamma   90.00000000
_symmetry_Int_Tables_number   1
_chemical_formula_structural   ErH4(CO2)4
_chemical_formula_sum   'Er8 H32 C32 O64'
_cell_volume   2065.95048734
_cell_formula_units_Z   8
loop_
 _symmetry_equiv_pos_site_id
 _symmetry_equiv_pos_as_xyz
  1  'x, y, z'
loop_
 _atom_site_type_symbol
 _atom_site_label
 _atom_site_symmetry_multiplicity
 _atom_site_fract_x
 _atom_site_fract_y
 _atom_site_fract_z
 _atom_site_occupancy
  Er  Er0  1  0.74736000  0.87458000  0.89898000  1
  Er  Er1  1  0.74764000  0.37509000  0.89380000  1
  Er  Er2  1  0.24764000  0.87509000  0.60620000  1
  Er  Er3  1  0.24736000  0.37458000  0.60102000  1
  Er  Er4  1  0.74736000  0.62542000  0.39898000  1
  Er  Er5  1  0.74764000  0.12491000  0.39380000  1
  Er  Er6  1  0.24764000  0.62491000  0.10620000  1
  Er  Er7  1  0.24736000  0.12542000  0.10102000  1
  H  H8  1  0.05720000  0.26430000  0.97370000  1
  H  H9  1  0.05280000  0.74960000  0.97250000  1
  H  H10  1  0.45160000  0.50170000  0.97130000  1
  H  H11  1  0.45850000  0.00280000  0.96800000  1
  H  H12  1  0.73060000  0.61750000  0.93690000  1
  H  H13  1  0.79190000  0.11980000  0.93590000  1
  H  H14  1  0.10550000  0.94050000  0.79270000  1
  H  H15  1  0.42220000  0.80120000  0.79210000  1
  H  H16  1  0.92220000  0.30120000  0.70790000  1
  H  H17  1  0.60550000  0.44050000  0.70730000  1
  H  H18  1  0.29190000  0.61980000  0.56410000  1
  H  H19  1  0.23060000  0.11750000  0.56310000  1
  H  H20  1  0.95850000  0.50280000  0.53200000  1
  H  H21  1  0.95160000  0.00170000  0.52870000  1
  H  H22  1  0.55280000  0.24960000  0.52750000  1
  H  H23  1  0.55720000  0.76430000  0.52630000  1
  H  H24  1  0.05720000  0.23570000  0.47370000  1
  H  H25  1  0.05280000  0.75040000  0.47250000  1
  H  H26  1  0.45160000  0.99830000  0.47130000  1
  H  H27  1  0.45850000  0.49720000  0.46800000  1
  H  H28  1  0.73060000  0.88250000  0.43690000  1
  H  H29  1  0.79190000  0.38020000  0.43590000  1
  H  H30  1  0.10550000  0.55950000  0.29270000  1
  H  H31  1  0.42220000  0.69880000  0.29210000  1
  H  H32  1  0.92220000  0.19880000  0.20790000  1
  H  H33  1  0.60550000  0.05950000  0.20730000  1
  H  H34  1  0.29190000  0.88020000  0.06410000  1
  H  H35  1  0.23060000  0.38250000  0.06310000  1
  H  H36  1  0.95850000  0.99720000  0.03200000  1
  H  H37  1  0.95160000  0.49830000  0.02870000  1
  H  H38  1  0.55280000  0.25040000  0.02750000  1
  H  H39  1  0.55720000  0.73570000  0.02630000  1
  C  C40  1  0.03280000  0.99310000  0.99320000  1
  C  C41  1  0.47940000  0.74680000  0.98980000  1
  C  C42  1  0.02510000  0.50090000  0.98950000  1
  C  C43  1  0.47970000  0.25140000  0.98810000  1
  C  C44  1  0.73710000  0.61860000  0.88450000  1
  C  C45  1  0.78590000  0.12170000  0.88350000  1
  C  C46  1  0.47500000  0.85420000  0.76750000  1
  C  C47  1  0.03910000  0.89520000  0.76700000  1
  C  C48  1  0.53910000  0.39520000  0.73300000  1
  C  C49  1  0.97500000  0.35420000  0.73250000  1
  C  C50  1  0.28590000  0.62170000  0.61650000  1
  C  C51  1  0.23710000  0.11860000  0.61550000  1
  C  C52  1  0.97970000  0.75140000  0.51190000  1
  C  C53  1  0.52510000  0.00090000  0.51050000  1
  C  C54  1  0.97940000  0.24680000  0.51020000  1
  C  C55  1  0.53280000  0.49310000  0.50680000  1
  C  C56  1  0.03280000  0.50690000  0.49320000  1
  C  C57  1  0.47940000  0.75320000  0.48980000  1
  C  C58  1  0.02510000  0.99910000  0.48950000  1
  C  C59  1  0.47970000  0.24860000  0.48810000  1
  C  C60  1  0.73710000  0.88140000  0.38450000  1
  C  C61  1  0.78590000  0.37830000  0.38350000  1
  C  C62  1  0.47500000  0.64580000  0.26750000  1
  C  C63  1  0.03910000  0.60480000  0.26700000  1
  C  C64  1  0.53910000  0.10480000  0.23300000  1
  C  C65  1  0.97500000  0.14580000  0.23250000  1
  C  C66  1  0.28590000  0.87830000  0.11650000  1
  C  C67  1  0.23710000  0.38140000  0.11550000  1
  C  C68  1  0.97970000  0.74860000  0.01190000  1
  C  C69  1  0.52510000  0.49910000  0.01050000  1
  C  C70  1  0.97940000  0.25320000  0.01020000  1
  C  C71  1  0.53280000  0.00690000  0.00680000  1
  O  O72  1  0.84670000  0.77980000  0.99820000  1
  O  O73  1  0.65040000  0.45940000  0.99710000  1
  O  O74  1  0.84790000  0.28920000  0.99710000  1
  O  O75  1  0.66160000  0.96710000  0.99660000  1
  O  O76  1  0.51890000  0.79410000  0.93610000  1
  O  O77  1  0.99230000  0.94680000  0.93430000  1
  O  O78  1  0.98360000  0.46280000  0.92810000  1
  O  O79  1  0.52690000  0.28410000  0.92710000  1
  O  O80  1  0.80410000  0.20760000  0.85250000  1
  O  O81  1  0.76180000  0.04330000  0.85230000  1
  O  O82  1  0.71810000  0.54150000  0.85220000  1
  O  O83  1  0.76670000  0.70570000  0.85200000  1
  O  O84  1  0.90900000  0.86600000  0.79890000  1
  O  O85  1  0.57950000  0.88640000  0.79680000  1
  O  O86  1  0.91850000  0.38110000  0.79570000  1
  O  O87  1  0.57610000  0.36780000  0.79150000  1
  O  O88  1  0.07610000  0.86780000  0.70850000  1
  O  O89  1  0.41850000  0.88110000  0.70430000  1
  O  O90  1  0.07950000  0.38640000  0.70320000  1
  O  O91  1  0.40900000  0.36600000  0.70110000  1
  O  O92  1  0.26670000  0.20570000  0.64800000  1
  O  O93  1  0.21810000  0.04150000  0.64780000  1
  O  O94  1  0.26180000  0.54330000  0.64770000  1
  O  O95  1  0.30410000  0.70760000  0.64750000  1
  O  O96  1  0.02690000  0.78410000  0.57290000  1
  O  O97  1  0.48360000  0.96280000  0.57190000  1
  O  O98  1  0.49230000  0.44680000  0.56570000  1
  O  O99  1  0.01890000  0.29410000  0.56390000  1
  O  O100  1  0.16160000  0.46710000  0.50340000  1
  O  O101  1  0.15040000  0.95940000  0.50290000  1
  O  O102  1  0.34790000  0.78920000  0.50290000  1
  O  O103  1  0.34670000  0.27980000  0.50180000  1
  O  O104  1  0.84670000  0.72020000  0.49820000  1
  O  O105  1  0.84790000  0.21080000  0.49710000  1
  O  O106  1  0.65040000  0.04060000  0.49710000  1
  O  O107  1  0.66160000  0.53290000  0.49660000  1
  O  O108  1  0.51890000  0.70590000  0.43610000  1
  O  O109  1  0.99230000  0.55320000  0.43430000  1
  O  O110  1  0.98360000  0.03720000  0.42810000  1
  O  O111  1  0.52690000  0.21590000  0.42710000  1
  O  O112  1  0.80410000  0.29240000  0.35250000  1
  O  O113  1  0.76180000  0.45670000  0.35230000  1
  O  O114  1  0.71810000  0.95850000  0.35220000  1
  O  O115  1  0.76670000  0.79430000  0.35200000  1
  O  O116  1  0.90900000  0.63400000  0.29890000  1
  O  O117  1  0.57950000  0.61360000  0.29680000  1
  O  O118  1  0.91850000  0.11890000  0.29570000  1
  O  O119  1  0.57610000  0.13220000  0.29150000  1
  O  O120  1  0.07610000  0.63220000  0.20850000  1
  O  O121  1  0.41850000  0.61890000  0.20430000  1
  O  O122  1  0.07950000  0.11360000  0.20320000  1
  O  O123  1  0.40900000  0.13400000  0.20110000  1
  O  O124  1  0.26670000  0.29430000  0.14800000  1
  O  O125  1  0.21810000  0.45850000  0.14780000  1
  O  O126  1  0.26180000  0.95670000  0.14770000  1
  O  O127  1  0.30410000  0.79240000  0.14750000  1
  O  O128  1  0.02690000  0.71590000  0.07290000  1
  O  O129  1  0.48360000  0.53720000  0.07190000  1
  O  O130  1  0.49230000  0.05320000  0.06570000  1
  O  O131  1  0.01890000  0.20590000  0.06390000  1
  O  O132  1  0.16160000  0.03290000  0.00340000  1
  O  O133  1  0.34790000  0.71080000  0.00290000  1
  O  O134  1  0.15040000  0.54060000  0.00290000  1
  O  O135  1  0.34670000  0.22020000  0.00180000  1
