# generated using pymatgen
data_Cu7H12C16(ClO11)2
_symmetry_space_group_name_H-M   'P 1'
_cell_length_a   10.03880000
_cell_length_b   10.34130000
_cell_length_c   14.22910000
_cell_angle_alpha   92.44900000
_cell_angle_beta   90.00000000
_cell_angle_gamma   90.00000000
_symmetry_Int_Tables_number   1
_chemical_formula_structural   Cu7H12C16(ClO11)2
_chemical_formula_sum   'Cu14 H24 C32 Cl4 O44'
_cell_volume   1475.83405504
_cell_formula_units_Z   2
loop_
 _symmetry_equiv_pos_site_id
 _symmetry_equiv_pos_as_xyz
  1  'x, y, z'
loop_
 _atom_site_type_symbol
 _atom_site_label
 _atom_site_symmetry_multiplicity
 _atom_site_fract_x
 _atom_site_fract_y
 _atom_site_fract_z
 _atom_site_occupancy
  Cu  Cu0  1  0.88663000  0.79468000  0.22647000  1
  Cu  Cu1  1  0.76710000  0.07140000  0.21314000  1
  Cu  Cu2  1  0.75301000  0.07550000  0.71752000  1
  Cu  Cu3  1  0.74228000  0.56415000  0.71383000  1
  Cu  Cu4  1  0.73466000  0.56056000  0.12302000  1
  Cu  Cu5  1  0.72299000  0.59025000  0.33275000  1
  Cu  Cu6  1  0.59097000  0.34233000  0.21959000  1
  Cu  Cu7  1  0.40903000  0.84233000  0.21959000  1
  Cu  Cu8  1  0.27701000  0.09025000  0.33275000  1
  Cu  Cu9  1  0.26534000  0.06056000  0.12302000  1
  Cu  Cu10  1  0.25772000  0.06415000  0.71383000  1
  Cu  Cu11  1  0.24699000  0.57550000  0.71752000  1
  Cu  Cu12  1  0.23290000  0.57140000  0.21314000  1
  Cu  Cu13  1  0.11337000  0.29468000  0.22647000  1
  H  H14  1  0.99570000  0.28970000  0.54870000  1
  H  H15  1  0.96600000  0.97200000  0.17100000  1
  H  H16  1  0.93730000  0.03090000  0.49560000  1
  H  H17  1  0.92500000  0.56600000  0.25000000  1
  H  H18  1  0.87700000  0.90560000  0.90710000  1
  H  H19  1  0.82410000  0.38850000  0.48220000  1
  H  H20  1  0.68560000  0.74810000  0.94740000  1
  H  H21  1  0.63220000  0.22240000  0.51400000  1
  H  H22  1  0.59300000  0.14700000  0.12900000  1
  H  H23  1  0.57270000  0.10910000  0.93530000  1
  H  H24  1  0.52000000  0.55400000  0.22300000  1
  H  H25  1  0.50490000  0.85170000  0.89420000  1
  H  H26  1  0.49510000  0.35170000  0.89420000  1
  H  H27  1  0.48000000  0.05400000  0.22300000  1
  H  H28  1  0.42730000  0.60910000  0.93530000  1
  H  H29  1  0.40700000  0.64700000  0.12900000  1
  H  H30  1  0.36780000  0.72240000  0.51400000  1
  H  H31  1  0.31440000  0.24810000  0.94740000  1
  H  H32  1  0.17590000  0.88850000  0.48220000  1
  H  H33  1  0.12300000  0.40560000  0.90710000  1
  H  H34  1  0.07500000  0.06600000  0.25000000  1
  H  H35  1  0.06270000  0.53090000  0.49560000  1
  H  H36  1  0.03400000  0.47200000  0.17100000  1
  H  H37  1  0.00430000  0.78970000  0.54870000  1
  C  C38  1  0.99880000  0.08210000  0.63190000  1
  C  C39  1  0.95420000  0.23230000  0.49850000  1
  C  C40  1  0.94720000  0.71610000  0.41840000  1
  C  C41  1  0.91720000  0.10310000  0.54240000  1
  C  C42  1  0.82130000  0.29230000  0.47160000  1
  C  C43  1  0.78270000  0.90280000  0.88440000  1
  C  C44  1  0.77560000  0.25670000  0.37180000  1
  C  C45  1  0.77350000  0.82420000  0.79010000  1
  C  C46  1  0.74430000  0.87680000  0.05800000  1
  C  C47  1  0.72320000  0.23080000  0.54220000  1
  C  C48  1  0.71880000  0.31540000  0.63270000  1
  C  C49  1  0.69210000  0.84400000  0.95850000  1
  C  C50  1  0.59210000  0.03430000  0.89060000  1
  C  C51  1  0.55540000  0.90900000  0.94000000  1
  C  C52  1  0.53020000  0.43210000  0.02620000  1
  C  C53  1  0.51030000  0.05180000  0.80200000  1
  C  C54  1  0.48970000  0.55180000  0.80200000  1
  C  C55  1  0.46980000  0.93210000  0.02620000  1
  C  C56  1  0.44460000  0.40900000  0.94000000  1
  C  C57  1  0.40790000  0.53430000  0.89060000  1
  C  C58  1  0.30790000  0.34400000  0.95850000  1
  C  C59  1  0.28120000  0.81540000  0.63270000  1
  C  C60  1  0.27680000  0.73080000  0.54220000  1
  C  C61  1  0.25570000  0.37680000  0.05800000  1
  C  C62  1  0.22650000  0.32420000  0.79010000  1
  C  C63  1  0.22440000  0.75670000  0.37180000  1
  C  C64  1  0.21730000  0.40280000  0.88440000  1
  C  C65  1  0.17870000  0.79230000  0.47160000  1
  C  C66  1  0.08280000  0.60310000  0.54240000  1
  C  C67  1  0.05280000  0.21610000  0.41840000  1
  C  C68  1  0.04580000  0.73230000  0.49850000  1
  C  C69  1  0.00120000  0.58210000  0.63190000  1
  Cl  Cl70  1  0.89601000  0.48887000  0.02592000  1
  Cl  Cl71  1  0.62501000  0.84339000  0.30988000  1
  Cl  Cl72  1  0.37499000  0.34339000  0.30988000  1
  Cl  Cl73  1  0.10399000  0.98887000  0.02592000  1
  O  O74  1  0.95920000  0.79680000  0.35510000  1
  O  O75  1  0.94190000  0.06020000  0.70880000  1
  O  O76  1  0.92720000  0.97550000  0.23250000  1
  O  O77  1  0.87790000  0.58600000  0.62060000  1
  O  O78  1  0.86190000  0.62780000  0.42290000  1
  O  O79  1  0.84800000  0.61010000  0.22750000  1
  O  O80  1  0.79940000  0.70600000  0.79640000  1
  O  O81  1  0.79210000  0.14290000  0.34200000  1
  O  O82  1  0.79180000  0.78680000  0.10360000  1
  O  O83  1  0.77730000  0.10520000  0.55930000  1
  O  O84  1  0.76050000  0.27010000  0.70800000  1
  O  O85  1  0.74180000  0.88040000  0.71680000  1
  O  O86  1  0.73500000  0.99410000  0.08560000  1
  O  O87  1  0.73360000  0.03200000  0.87340000  1
  O  O88  1  0.72000000  0.34660000  0.32750000  1
  O  O89  1  0.67680000  0.42980000  0.62410000  1
  O  O90  1  0.61310000  0.53020000  0.81060000  1
  O  O91  1  0.61060000  0.52890000  0.22990000  1
  O  O92  1  0.60410000  0.16000000  0.19480000  1
  O  O93  1  0.59390000  0.53780000  0.03380000  1
  O  O94  1  0.56350000  0.09150000  0.72900000  1
  O  O95  1  0.53210000  0.34300000  0.08420000  1
  O  O96  1  0.46790000  0.84300000  0.08420000  1
  O  O97  1  0.43650000  0.59150000  0.72900000  1
  O  O98  1  0.40610000  0.03780000  0.03380000  1
  O  O99  1  0.39590000  0.66000000  0.19480000  1
  O  O100  1  0.38940000  0.02890000  0.22990000  1
  O  O101  1  0.38690000  0.03020000  0.81060000  1
  O  O102  1  0.32320000  0.92980000  0.62410000  1
  O  O103  1  0.28000000  0.84660000  0.32750000  1
  O  O104  1  0.26640000  0.53200000  0.87340000  1
  O  O105  1  0.26500000  0.49410000  0.08560000  1
  O  O106  1  0.25820000  0.38040000  0.71680000  1
  O  O107  1  0.23950000  0.77010000  0.70800000  1
  O  O108  1  0.22270000  0.60520000  0.55930000  1
  O  O109  1  0.20820000  0.28680000  0.10360000  1
  O  O110  1  0.20790000  0.64290000  0.34200000  1
  O  O111  1  0.20060000  0.20600000  0.79640000  1
  O  O112  1  0.15200000  0.11010000  0.22750000  1
  O  O113  1  0.13810000  0.12780000  0.42290000  1
  O  O114  1  0.12210000  0.08600000  0.62060000  1
  O  O115  1  0.07280000  0.47550000  0.23250000  1
  O  O116  1  0.05810000  0.56020000  0.70880000  1
  O  O117  1  0.04080000  0.29680000  0.35510000  1
