# generated using pymatgen
data_CuH8(C5N3)2
_symmetry_space_group_name_H-M   'P 1'
_cell_length_a   6.98600000
_cell_length_b   9.13330000
_cell_length_c   13.55972055
_cell_angle_alpha   109.68084805
_cell_angle_beta   104.92777206
_cell_angle_gamma   90.00000000
_symmetry_Int_Tables_number   1
_chemical_formula_structural   CuH8(C5N3)2
_chemical_formula_sum   'Cu2 H16 C20 N12'
_cell_volume   783.56017368
_cell_formula_units_Z   2
loop_
 _symmetry_equiv_pos_site_id
 _symmetry_equiv_pos_as_xyz
  1  'x, y, z'
loop_
 _atom_site_type_symbol
 _atom_site_label
 _atom_site_symmetry_multiplicity
 _atom_site_fract_x
 _atom_site_fract_y
 _atom_site_fract_z
 _atom_site_occupancy
  C  C0  1  0.19993000  0.95853000  0.21166000  1
  C  C1  1  0.01173000  0.25313000  0.21166000  1
  C  C2  1  0.38610000  0.95890000  0.27220000  1
  C  C3  1  0.88610000  0.31330000  0.27220000  1
  C  C4  1  0.44400000  0.97660000  0.38800000  1
  C  C5  1  0.94400000  0.41140000  0.38800000  1
  C  C6  1  0.30830000  0.98820000  0.44460000  1
  C  C7  1  0.63630000  0.98820000  0.44460000  1
  C  C8  1  0.80830000  0.45640000  0.44460000  1
  C  C9  1  0.13630000  0.45640000  0.44460000  1
  C  C10  1  0.36370000  0.01180000  0.55540000  1
  C  C11  1  0.69170000  0.01180000  0.55540000  1
  C  C12  1  0.86370000  0.54360000  0.55540000  1
  C  C13  1  0.19170000  0.54360000  0.55540000  1
  C  C14  1  0.55600000  0.02340000  0.61200000  1
  C  C15  1  0.05600000  0.58860000  0.61200000  1
  C  C16  1  0.61390000  0.04110000  0.72780000  1
  C  C17  1  0.11390000  0.68670000  0.72780000  1
  C  C18  1  0.48827000  0.04147000  0.78834000  1
  C  C19  1  0.30007000  0.74687000  0.78834000  1
  Cu  Cu20  1  0.00000000  0.00000000  0.00000000  1
  Cu  Cu21  1  0.50000000  0.00000000  1.00000000  1
  H  H22  1  0.15220000  0.27590000  0.23360000  1
  H  H23  1  0.58140000  0.27590000  0.23360000  1
  H  H24  1  0.65220000  0.95770000  0.23360000  1
  H  H25  1  0.08140000  0.95770000  0.23360000  1
  H  H26  1  0.23690000  0.42790000  0.40800000  1
  H  H27  1  0.67110000  0.42790000  0.40800000  1
  H  H28  1  0.73690000  0.98010000  0.40800000  1
  H  H29  1  0.17110000  0.98010000  0.40800000  1
  H  H30  1  0.32890000  0.57210000  0.59200000  1
  H  H31  1  0.76310000  0.57210000  0.59200000  1
  H  H32  1  0.82890000  0.01990000  0.59200000  1
  H  H33  1  0.26310000  0.01990000  0.59200000  1
  H  H34  1  0.41860000  0.72410000  0.76640000  1
  H  H35  1  0.84780000  0.72410000  0.76640000  1
  H  H36  1  0.91860000  0.04230000  0.76640000  1
  H  H37  1  0.34780000  0.04230000  0.76640000  1
  N  N38  1  0.21196000  0.95946000  0.11532000  1
  N  N39  1  0.40336000  0.95946000  0.11532000  1
  N  N40  1  0.71196000  0.15586000  0.11532000  1
  N  N41  1  0.90336000  0.15586000  0.11532000  1
  N  N42  1  0.51173000  0.95853000  0.21166000  1
  N  N43  1  0.69993000  0.25313000  0.21166000  1
  N  N44  1  0.80007000  0.04147000  0.78834000  1
  N  N45  1  0.98827000  0.74687000  0.78834000  1
  N  N46  1  0.59664000  0.04054000  0.88468000  1
  N  N47  1  0.78804000  0.04054000  0.88468000  1
  N  N48  1  0.09664000  0.84414000  0.88468000  1
  N  N49  1  0.28804000  0.84414000  0.88468000  1
