# generated using pymatgen
data_Zn3H12C20(N3O4)2
_symmetry_space_group_name_H-M   'P 1'
_cell_length_a   9.17680000
_cell_length_b   10.90170000
_cell_length_c   11.39610000
_cell_angle_alpha   117.93800000
_cell_angle_beta   100.53500000
_cell_angle_gamma   98.51700000
_symmetry_Int_Tables_number   1
_chemical_formula_structural   Zn3H12C20(N3O4)2
_chemical_formula_sum   'Zn3 H12 C20 N6 O8'
_cell_volume   953.70715407
_cell_formula_units_Z   1
loop_
 _symmetry_equiv_pos_site_id
 _symmetry_equiv_pos_as_xyz
  1  'x, y, z'
loop_
 _atom_site_type_symbol
 _atom_site_label
 _atom_site_symmetry_multiplicity
 _atom_site_fract_x
 _atom_site_fract_y
 _atom_site_fract_z
 _atom_site_occupancy
  Zn  Zn0  1  0.00000000  0.50000000  0.50000000  1
  Zn  Zn1  1  0.30986000  0.37463000  0.37705000  1
  Zn  Zn2  1  0.69014000  0.62537000  0.62295000  1
  H  H3  1  0.11160000  0.41850000  0.81950000  1
  H  H4  1  0.12800000  0.82640000  0.48220000  1
  H  H5  1  0.18970000  0.38160000  0.00210000  1
  H  H6  1  0.21970000  0.99760000  0.42820000  1
  H  H7  1  0.24250000  0.76070000  0.80220000  1
  H  H8  1  0.47650000  0.18880000  0.15100000  1
  H  H9  1  0.52350000  0.81120000  0.84900000  1
  H  H10  1  0.75750000  0.23930000  0.19780000  1
  H  H11  1  0.78030000  0.00240000  0.57180000  1
  H  H12  1  0.81030000  0.61840000  0.99790000  1
  H  H13  1  0.87200000  0.17360000  0.51780000  1
  H  H14  1  0.88840000  0.58150000  0.18050000  1
  C  C15  1  0.04870000  0.47840000  0.11100000  1
  C  C16  1  0.05350000  0.10040000  0.46440000  1
  C  C17  1  0.06670000  0.45090000  0.89160000  1
  C  C18  1  0.07700000  0.89630000  0.49010000  1
  C  C19  1  0.09830000  0.45690000  0.23060000  1
  C  C20  1  0.11200000  0.20950000  0.42790000  1
  C  C21  1  0.11380000  0.42940000  0.00140000  1
  C  C22  1  0.13080000  0.99810000  0.45640000  1
  C  C23  1  0.29550000  0.71000000  0.74140000  1
  C  C24  1  0.45130000  0.73770000  0.76740000  1
  C  C25  1  0.54870000  0.26230000  0.23260000  1
  C  C26  1  0.70450000  0.29000000  0.25860000  1
  C  C27  1  0.86920000  0.00190000  0.54360000  1
  C  C28  1  0.88620000  0.57060000  0.99860000  1
  C  C29  1  0.88800000  0.79050000  0.57210000  1
  C  C30  1  0.90170000  0.54310000  0.76940000  1
  C  C31  1  0.92300000  0.10370000  0.50990000  1
  C  C32  1  0.93330000  0.54910000  0.10840000  1
  C  C33  1  0.94650000  0.89960000  0.53560000  1
  C  C34  1  0.95130000  0.52160000  0.88900000  1
  N  N35  1  0.23220000  0.59670000  0.61250000  1
  N  N36  1  0.34730000  0.55550000  0.56040000  1
  N  N37  1  0.48240000  0.64070000  0.65530000  1
  N  N38  1  0.51760000  0.35930000  0.34470000  1
  N  N39  1  0.65270000  0.44450000  0.43960000  1
  N  N40  1  0.76780000  0.40330000  0.38750000  1
  O  O41  1  0.03160000  0.29100000  0.42240000  1
  O  O42  1  0.03980000  0.50640000  0.32690000  1
  O  O43  1  0.20340000  0.39050000  0.22520000  1
  O  O44  1  0.24150000  0.21370000  0.40360000  1
  O  O45  1  0.75850000  0.78630000  0.59640000  1
  O  O46  1  0.79660000  0.60950000  0.77480000  1
  O  O47  1  0.96020000  0.49360000  0.67310000  1
  O  O48  1  0.96840000  0.70900000  0.57760000  1
