# generated using pymatgen
data_CuAgH20C10S2(NO2)2
_symmetry_space_group_name_H-M   'P 1'
_cell_length_a   15.87300000
_cell_length_b   16.90610000
_cell_length_c   22.82970000
_cell_angle_alpha   90.00000000
_cell_angle_beta   90.00000000
_cell_angle_gamma   90.00000000
_symmetry_Int_Tables_number   1
_chemical_formula_structural   CuAgH20C10S2(NO2)2
_chemical_formula_sum   'Cu12 Ag12 H240 C120 S24 N24 O48'
_cell_volume   6126.36198744
_cell_formula_units_Z   12
loop_
 _symmetry_equiv_pos_site_id
 _symmetry_equiv_pos_as_xyz
  1  'x, y, z'
loop_
 _atom_site_type_symbol
 _atom_site_label
 _atom_site_symmetry_multiplicity
 _atom_site_fract_x
 _atom_site_fract_y
 _atom_site_fract_z
 _atom_site_occupancy
  Cu  Cu0  1  0.04281000  0.88170000  0.49996000  1
  Cu  Cu1  1  0.12426000  0.12156000  0.98875000  1
  Cu  Cu2  1  0.21302000  0.62133000  0.50208000  1
  Cu  Cu3  1  0.28698000  0.37867000  0.00208000  1
  Cu  Cu4  1  0.37574000  0.87844000  0.48875000  1
  Cu  Cu5  1  0.45719000  0.11830000  0.99996000  1
  Cu  Cu6  1  0.54281000  0.61830000  0.50004000  1
  Cu  Cu7  1  0.62426000  0.37844000  0.01125000  1
  Cu  Cu8  1  0.71302000  0.87867000  0.49792000  1
  Cu  Cu9  1  0.78698000  0.12133000  0.99792000  1
  Cu  Cu10  1  0.87574000  0.62156000  0.51125000  1
  Cu  Cu11  1  0.95719000  0.38170000  0.00004000  1
  Ag  Ag12  1  0.10041000  0.69619000  0.18814000  1
  Ag  Ag13  1  0.11278000  0.34802000  0.67756000  1
  Ag  Ag14  1  0.18789000  0.20697000  0.30175000  1
  Ag  Ag15  1  0.31211000  0.79303000  0.80175000  1
  Ag  Ag16  1  0.38722000  0.65198000  0.17756000  1
  Ag  Ag17  1  0.39959000  0.30381000  0.68814000  1
  Ag  Ag18  1  0.60041000  0.80381000  0.81186000  1
  Ag  Ag19  1  0.61278000  0.15198000  0.32244000  1
  Ag  Ag20  1  0.68789000  0.29303000  0.69825000  1
  Ag  Ag21  1  0.81211000  0.70697000  0.19825000  1
  Ag  Ag22  1  0.88722000  0.84802000  0.82244000  1
  Ag  Ag23  1  0.89959000  0.19619000  0.31186000  1
  H  H24  1  0.00200000  0.17730000  0.04020000  1
  H  H25  1  0.00700000  0.54210000  0.26820000  1
  H  H26  1  0.00810000  0.66970000  0.85600000  1
  H  H27  1  0.01070000  0.25700000  0.19050000  1
  H  H28  1  0.01470000  0.67250000  0.33140000  1
  H  H29  1  0.02000000  0.05400000  0.92800000  1
  H  H30  1  0.02400000  0.01800000  0.98600000  1
  H  H31  1  0.02600000  0.05700000  0.48800000  1
  H  H32  1  0.02600000  0.38790000  0.53720000  1
  H  H33  1  0.03340000  0.93150000  0.87320000  1
  H  H34  1  0.03720000  0.75300000  0.68100000  1
  H  H35  1  0.03920000  0.11800000  0.07860000  1
  H  H36  1  0.04910000  0.82900000  0.97030000  1
  H  H37  1  0.04990000  0.03240000  0.28750000  1
  H  H38  1  0.05150000  0.84350000  0.66920000  1
  H  H39  1  0.05660000  0.26900000  0.08850000  1
  H  H40  1  0.05680000  0.13580000  0.40340000  1
  H  H41  1  0.06610000  0.69240000  0.90900000  1
  H  H42  1  0.07020000  0.74150000  0.85080000  1
  H  H43  1  0.08600000  0.28980000  0.41660000  1
  H  H44  1  0.09130000  0.04670000  0.22610000  1
  H  H45  1  0.10600000  0.72660000  0.58920000  1
  H  H46  1  0.11050000  0.87520000  0.88410000  1
  H  H47  1  0.11980000  0.60680000  0.02690000  1
  H  H48  1  0.12380000  0.94650000  0.72010000  1
  H  H49  1  0.12530000  0.07470000  0.38330000  1
  H  H50  1  0.12900000  0.87930000  0.58860000  1
  H  H51  1  0.13120000  0.14470000  0.15350000  1
  H  H52  1  0.13300000  0.94600000  0.97300000  1
  H  H53  1  0.13600000  0.99300000  0.50800000  1
  H  H54  1  0.13970000  0.16410000  0.48770000  1
  H  H55  1  0.13970000  0.31070000  0.47210000  1
  H  H56  1  0.15120000  0.23300000  0.16930000  1
  H  H57  1  0.15400000  0.95900000  0.44780000  1
  H  H58  1  0.15930000  0.73700000  0.32740000  1
  H  H59  1  0.15960000  0.35140000  0.41190000  1
  H  H60  1  0.16460000  0.82170000  0.54810000  1
  H  H61  1  0.17070000  0.84540000  0.09470000  1
  H  H62  1  0.17310000  0.31670000  0.94560000  1
  H  H63  1  0.17350000  0.45980000  0.04380000  1
  H  H64  1  0.17560000  0.64840000  0.34440000  1
  H  H65  1  0.17820000  0.72930000  0.68980000  1
  H  H66  1  0.17950000  0.96330000  0.77550000  1
  H  H67  1  0.18020000  0.33250000  0.81710000  1
  H  H68  1  0.18860000  0.54800000  0.28110000  1
  H  H69  1  0.19140000  0.66480000  0.00730000  1
  H  H70  1  0.19240000  0.49150000  0.98570000  1
  H  H71  1  0.19540000  0.57530000  0.11180000  1
  H  H72  1  0.19890000  0.44180000  0.51350000  1
  H  H73  1  0.20180000  0.81050000  0.66090000  1
  H  H74  1  0.20420000  0.80940000  0.03590000  1
  H  H75  1  0.20590000  0.24930000  0.79250000  1
  H  H76  1  0.20930000  0.10680000  0.46400000  1
  H  H77  1  0.21210000  0.37590000  0.90800000  1
  H  H78  1  0.21600000  0.46890000  0.76820000  1
  H  H79  1  0.21670000  0.51990000  0.21860000  1
  H  H80  1  0.22220000  0.94220000  0.71560000  1
  H  H81  1  0.23370000  0.36480000  0.59400000  1
  H  H82  1  0.23630000  0.22600000  0.90030000  1
  H  H83  1  0.23970000  0.77900000  0.09590000  1
  H  H84  1  0.26030000  0.22100000  0.59590000  1
  H  H85  1  0.26370000  0.77400000  0.40030000  1
  H  H86  1  0.26630000  0.63520000  0.09400000  1
  H  H87  1  0.27780000  0.05780000  0.21560000  1
  H  H88  1  0.28330000  0.48010000  0.71860000  1
  H  H89  1  0.28400000  0.53110000  0.26820000  1
  H  H90  1  0.28790000  0.62410000  0.40800000  1
  H  H91  1  0.29070000  0.89320000  0.96400000  1
  H  H92  1  0.29410000  0.75070000  0.29250000  1
  H  H93  1  0.29580000  0.19060000  0.53590000  1
  H  H94  1  0.29820000  0.18950000  0.16090000  1
  H  H95  1  0.30110000  0.55820000  0.01350000  1
  H  H96  1  0.30460000  0.42470000  0.61180000  1
  H  H97  1  0.30760000  0.50850000  0.48570000  1
  H  H98  1  0.30860000  0.33520000  0.50730000  1
  H  H99  1  0.31140000  0.45200000  0.78110000  1
  H  H100  1  0.31980000  0.66750000  0.31710000  1
  H  H101  1  0.32050000  0.03670000  0.27550000  1
  H  H102  1  0.32180000  0.27070000  0.18980000  1
  H  H103  1  0.32440000  0.35160000  0.84440000  1
  H  H104  1  0.32650000  0.54020000  0.54380000  1
  H  H105  1  0.32690000  0.68330000  0.44560000  1
  H  H106  1  0.32930000  0.15460000  0.59470000  1
  H  H107  1  0.33540000  0.17830000  0.04810000  1
  H  H108  1  0.34040000  0.64860000  0.91190000  1
  H  H109  1  0.34070000  0.26300000  0.82740000  1
  H  H110  1  0.34600000  0.04100000  0.94780000  1
  H  H111  1  0.34880000  0.76700000  0.66930000  1
  H  H112  1  0.36030000  0.68930000  0.97210000  1
  H  H113  1  0.36030000  0.83590000  0.98770000  1
  H  H114  1  0.36400000  0.00700000  0.00800000  1
  H  H115  1  0.36700000  0.05400000  0.47300000  1
  H  H116  1  0.36880000  0.85530000  0.65350000  1
  H  H117  1  0.37100000  0.12070000  0.08860000  1
  H  H118  1  0.37470000  0.92530000  0.88330000  1
  H  H119  1  0.37620000  0.05350000  0.22010000  1
  H  H120  1  0.38020000  0.39320000  0.52690000  1
  H  H121  1  0.38950000  0.12480000  0.38410000  1
  H  H122  1  0.39400000  0.27340000  0.08920000  1
  H  H123  1  0.40870000  0.95330000  0.72610000  1
  H  H124  1  0.41400000  0.71020000  0.91660000  1
  H  H125  1  0.42980000  0.25850000  0.35080000  1
  H  H126  1  0.43390000  0.30760000  0.40900000  1
  H  H127  1  0.44320000  0.86420000  0.90340000  1
  H  H128  1  0.44340000  0.73100000  0.58850000  1
  H  H129  1  0.44850000  0.15650000  0.16920000  1
  H  H130  1  0.45010000  0.96760000  0.78750000  1
  H  H131  1  0.45090000  0.17100000  0.47030000  1
  H  H132  1  0.46080000  0.88200000  0.57860000  1
  H  H133  1  0.46280000  0.24700000  0.18100000  1
  H  H134  1  0.46660000  0.06850000  0.37320000  1
  H  H135  1  0.47400000  0.61210000  0.03720000  1
  H  H136  1  0.47400000  0.94300000  0.98800000  1
  H  H137  1  0.47600000  0.98200000  0.48600000  1
  H  H138  1  0.48000000  0.94600000  0.42800000  1
  H  H139  1  0.48530000  0.32750000  0.83140000  1
  H  H140  1  0.48930000  0.74300000  0.69050000  1
  H  H141  1  0.49190000  0.33030000  0.35600000  1
  H  H142  1  0.49300000  0.45790000  0.76820000  1
  H  H143  1  0.49800000  0.82270000  0.54020000  1
  H  H144  1  0.50200000  0.32270000  0.95980000  1
  H  H145  1  0.50700000  0.95790000  0.73180000  1
  H  H146  1  0.50810000  0.83030000  0.14400000  1
  H  H147  1  0.51070000  0.24300000  0.80950000  1
  H  H148  1  0.51470000  0.82750000  0.66860000  1
  H  H149  1  0.52000000  0.44600000  0.07200000  1
  H  H150  1  0.52400000  0.48200000  0.01400000  1
  H  H151  1  0.52600000  0.11210000  0.46280000  1
  H  H152  1  0.52600000  0.44300000  0.51200000  1
  H  H153  1  0.53340000  0.56850000  0.12680000  1
  H  H154  1  0.53720000  0.74700000  0.31900000  1
  H  H155  1  0.53920000  0.38200000  0.92140000  1
  H  H156  1  0.54910000  0.67100000  0.02970000  1
  H  H157  1  0.54990000  0.46760000  0.71250000  1
  H  H158  1  0.55150000  0.65650000  0.33080000  1
  H  H159  1  0.55660000  0.23100000  0.91150000  1
  H  H160  1  0.55680000  0.36420000  0.59660000  1
  H  H161  1  0.56610000  0.80760000  0.09100000  1
  H  H162  1  0.57020000  0.75850000  0.14920000  1
  H  H163  1  0.58600000  0.21020000  0.58340000  1
  H  H164  1  0.59130000  0.45330000  0.77390000  1
  H  H165  1  0.60600000  0.77340000  0.41080000  1
  H  H166  1  0.61050000  0.62480000  0.11590000  1
  H  H167  1  0.61980000  0.89320000  0.97310000  1
  H  H168  1  0.62380000  0.55350000  0.27990000  1
  H  H169  1  0.62530000  0.42530000  0.61670000  1
  H  H170  1  0.62900000  0.62070000  0.41140000  1
  H  H171  1  0.63120000  0.35530000  0.84650000  1
  H  H172  1  0.63300000  0.55400000  0.02700000  1
  H  H173  1  0.63600000  0.50700000  0.49200000  1
  H  H174  1  0.63970000  0.18930000  0.52790000  1
  H  H175  1  0.63970000  0.33590000  0.51230000  1
  H  H176  1  0.65120000  0.26700000  0.83070000  1
  H  H177  1  0.65400000  0.54100000  0.55220000  1
  H  H178  1  0.65930000  0.76300000  0.67260000  1
  H  H179  1  0.65960000  0.14860000  0.58810000  1
  H  H180  1  0.66460000  0.67830000  0.45190000  1
  H  H181  1  0.67070000  0.65460000  0.90530000  1
  H  H182  1  0.67310000  0.18330000  0.05440000  1
  H  H183  1  0.67350000  0.04020000  0.95620000  1
  H  H184  1  0.67560000  0.85160000  0.65560000  1
  H  H185  1  0.67820000  0.77070000  0.31020000  1
  H  H186  1  0.67950000  0.53670000  0.22450000  1
  H  H187  1  0.68020000  0.16750000  0.18290000  1
  H  H188  1  0.68860000  0.95200000  0.71890000  1
  H  H189  1  0.69140000  0.83520000  0.99270000  1
  H  H190  1  0.69240000  0.00850000  0.01430000  1
  H  H191  1  0.69540000  0.92470000  0.88820000  1
  H  H192  1  0.69890000  0.05820000  0.48650000  1
  H  H193  1  0.70180000  0.68950000  0.33910000  1
  H  H194  1  0.70420000  0.69060000  0.96410000  1
  H  H195  1  0.70590000  0.25070000  0.20750000  1
  H  H196  1  0.70930000  0.39320000  0.53600000  1
  H  H197  1  0.71210000  0.12410000  0.09200000  1
  H  H198  1  0.71600000  0.03110000  0.23180000  1
  H  H199  1  0.71670000  0.98010000  0.78140000  1
  H  H200  1  0.72220000  0.55780000  0.28440000  1
  H  H201  1  0.73370000  0.13520000  0.40600000  1
  H  H202  1  0.73630000  0.27400000  0.09970000  1
  H  H203  1  0.73970000  0.72100000  0.90410000  1
  H  H204  1  0.76030000  0.27900000  0.40410000  1
  H  H205  1  0.76370000  0.72600000  0.59970000  1
  H  H206  1  0.76630000  0.86480000  0.90600000  1
  H  H207  1  0.77780000  0.44220000  0.78440000  1
  H  H208  1  0.78330000  0.01990000  0.28140000  1
  H  H209  1  0.78400000  0.96890000  0.73180000  1
  H  H210  1  0.78790000  0.87590000  0.59200000  1
  H  H211  1  0.79070000  0.60680000  0.03600000  1
  H  H212  1  0.79410000  0.74930000  0.70750000  1
  H  H213  1  0.79580000  0.30940000  0.46410000  1
  H  H214  1  0.79820000  0.31050000  0.83910000  1
  H  H215  1  0.80110000  0.94180000  0.98650000  1
  H  H216  1  0.80460000  0.07530000  0.38820000  1
  H  H217  1  0.80760000  0.99150000  0.51430000  1
  H  H218  1  0.80860000  0.16480000  0.49270000  1
  H  H219  1  0.81140000  0.04800000  0.21890000  1
  H  H220  1  0.81980000  0.83250000  0.68290000  1
  H  H221  1  0.82050000  0.46330000  0.72450000  1
  H  H222  1  0.82180000  0.22930000  0.81020000  1
  H  H223  1  0.82440000  0.14840000  0.15560000  1
  H  H224  1  0.82650000  0.95980000  0.45620000  1
  H  H225  1  0.82690000  0.81670000  0.55440000  1
  H  H226  1  0.82930000  0.34540000  0.40530000  1
  H  H227  1  0.83540000  0.32170000  0.95190000  1
  H  H228  1  0.84040000  0.85140000  0.08810000  1
  H  H229  1  0.84070000  0.23700000  0.17260000  1
  H  H230  1  0.84600000  0.45900000  0.05220000  1
  H  H231  1  0.84880000  0.73300000  0.33070000  1
  H  H232  1  0.86030000  0.66410000  0.01230000  1
  H  H233  1  0.86030000  0.81070000  0.02790000  1
  H  H234  1  0.86400000  0.49300000  0.99200000  1
  H  H235  1  0.86700000  0.44600000  0.52700000  1
  H  H236  1  0.86880000  0.64470000  0.34650000  1
  H  H237  1  0.87100000  0.37930000  0.91140000  1
  H  H238  1  0.87470000  0.57470000  0.11670000  1
  H  H239  1  0.87620000  0.44650000  0.77990000  1
  H  H240  1  0.88020000  0.10680000  0.47310000  1
  H  H241  1  0.88950000  0.37520000  0.61590000  1
  H  H242  1  0.89400000  0.22660000  0.91080000  1
  H  H243  1  0.90870000  0.54670000  0.27390000  1
  H  H244  1  0.91400000  0.78980000  0.08340000  1
  H  H245  1  0.92980000  0.24150000  0.64920000  1
  H  H246  1  0.93390000  0.19240000  0.59100000  1
  H  H247  1  0.94320000  0.63580000  0.09660000  1
  H  H248  1  0.94340000  0.76900000  0.41150000  1
  H  H249  1  0.94850000  0.34350000  0.83080000  1
  H  H250  1  0.95010000  0.53240000  0.21250000  1
  H  H251  1  0.95090000  0.32900000  0.52970000  1
  H  H252  1  0.96080000  0.61800000  0.42140000  1
  H  H253  1  0.96280000  0.25300000  0.81900000  1
  H  H254  1  0.96660000  0.43150000  0.62680000  1
  H  H255  1  0.97400000  0.55700000  0.01200000  1
  H  H256  1  0.97400000  0.88790000  0.96280000  1
  H  H257  1  0.97600000  0.51800000  0.51400000  1
  H  H258  1  0.98000000  0.55400000  0.57200000  1
  H  H259  1  0.98530000  0.17250000  0.16860000  1
  H  H260  1  0.98930000  0.75700000  0.30950000  1
  H  H261  1  0.99190000  0.16970000  0.64400000  1
  H  H262  1  0.99300000  0.04210000  0.23180000  1
  H  H263  1  0.99800000  0.67730000  0.45980000  1
  C  C264  1  0.01310000  0.85440000  0.94160000  1
  C  C265  1  0.01330000  0.49170000  0.07933000  1
  C  C266  1  0.01530000  0.26220000  0.92852000  1
  C  C267  1  0.02900000  0.20240000  0.18850000  1
  C  C268  1  0.03380000  0.71280000  0.87680000  1
  C  C269  1  0.04400000  0.05910000  0.25060000  1
  C  C270  1  0.05650000  0.03500000  0.45364000  1
  C  C271  1  0.06780000  0.90710000  0.90330000  1
  C  C272  1  0.07370000  0.79100000  0.66174000  1
  C  C273  1  0.07380000  0.77520000  0.59604000  1
  C  C274  1  0.09310000  0.22230000  0.08855000  1
  C  C275  1  0.09900000  0.09880000  0.41728000  1
  C  C276  1  0.10920000  0.19820000  0.15241000  1
  C  C277  1  0.11010000  0.97080000  0.93950000  1
  C  C278  1  0.14130000  0.30330000  0.43040000  1
  C  C279  1  0.14930000  0.74570000  0.43848000  1
  C  C280  1  0.16200000  0.64350000  0.04111000  1
  C  C281  1  0.16250000  0.78470000  0.68726000  1
  C  C282  1  0.16370000  0.51070000  0.58296000  1
  C  C283  1  0.16550000  0.14360000  0.45232000  1
  C  C284  1  0.17460000  0.93230000  0.74040000  1
  C  C285  1  0.17690000  0.24440000  0.05869000  1
  C  C286  1  0.18390000  0.01330000  0.90960000  1
  C  C287  1  0.19040000  0.79810000  0.07600000  1
  C  C288  1  0.20140000  0.70040000  0.34199000  1
  C  C289  1  0.22490000  0.59830000  0.07875000  1
  C  C290  1  0.22590000  0.30270000  0.79952000  1
  C  C291  1  0.22880000  0.72640000  0.40346000  1
  C  C292  1  0.22950000  0.46720000  0.54561000  1
  C  C293  1  0.23230000  0.55100000  0.25210000  1
  C  C294  1  0.26770000  0.44900000  0.75210000  1
  C  C295  1  0.27050000  0.53280000  0.04561000  1
  C  C296  1  0.27120000  0.27360000  0.90346000  1
  C  C297  1  0.27410000  0.69730000  0.29952000  1
  C  C298  1  0.27510000  0.40170000  0.57875000  1
  C  C299  1  0.29860000  0.29960000  0.84199000  1
  C  C300  1  0.30960000  0.20190000  0.57600000  1
  C  C301  1  0.31610000  0.98670000  0.40960000  1
  C  C302  1  0.32310000  0.75560000  0.55869000  1
  C  C303  1  0.32540000  0.06770000  0.24040000  1
  C  C304  1  0.33450000  0.85640000  0.95232000  1
  C  C305  1  0.33630000  0.48930000  0.08296000  1
  C  C306  1  0.33750000  0.21530000  0.18726000  1
  C  C307  1  0.33800000  0.35650000  0.54111000  1
  C  C308  1  0.35070000  0.25430000  0.93848000  1
  C  C309  1  0.35870000  0.69670000  0.93040000  1
  C  C310  1  0.38990000  0.02920000  0.43950000  1
  C  C311  1  0.39080000  0.80180000  0.65241000  1
  C  C312  1  0.40100000  0.90120000  0.91728000  1
  C  C313  1  0.40690000  0.77770000  0.58855000  1
  C  C314  1  0.42620000  0.22480000  0.09604000  1
  C  C315  1  0.42630000  0.20900000  0.16174000  1
  C  C316  1  0.43220000  0.09290000  0.40330000  1
  C  C317  1  0.44350000  0.96500000  0.95364000  1
  C  C318  1  0.45600000  0.94090000  0.75060000  1
  C  C319  1  0.46620000  0.28720000  0.37680000  1
  C  C320  1  0.47100000  0.79760000  0.68850000  1
  C  C321  1  0.48470000  0.73780000  0.42852000  1
  C  C322  1  0.48670000  0.50830000  0.57933000  1
  C  C323  1  0.48690000  0.14560000  0.44160000  1
  C  C324  1  0.51310000  0.64560000  0.05840000  1
  C  C325  1  0.51330000  0.00830000  0.92067000  1
  C  C326  1  0.51530000  0.23780000  0.07148000  1
  C  C327  1  0.52900000  0.29760000  0.81150000  1
  C  C328  1  0.53380000  0.78720000  0.12320000  1
  C  C329  1  0.54400000  0.44090000  0.74940000  1
  C  C330  1  0.55650000  0.46500000  0.54636000  1
  C  C331  1  0.56780000  0.59290000  0.09670000  1
  C  C332  1  0.57370000  0.70900000  0.33826000  1
  C  C333  1  0.57380000  0.72480000  0.40396000  1
  C  C334  1  0.59310000  0.27770000  0.91145000  1
  C  C335  1  0.59900000  0.40120000  0.58272000  1
  C  C336  1  0.60920000  0.30180000  0.84759000  1
  C  C337  1  0.61010000  0.52920000  0.06050000  1
  C  C338  1  0.64130000  0.19670000  0.56960000  1
  C  C339  1  0.64930000  0.75430000  0.56152000  1
  C  C340  1  0.66200000  0.85650000  0.95889000  1
  C  C341  1  0.66250000  0.71530000  0.31274000  1
  C  C342  1  0.66370000  0.98930000  0.41704000  1
  C  C343  1  0.66550000  0.35640000  0.54768000  1
  C  C344  1  0.67460000  0.56770000  0.25960000  1
  C  C345  1  0.67690000  0.25560000  0.94131000  1
  C  C346  1  0.68390000  0.48670000  0.09040000  1
  C  C347  1  0.69040000  0.70190000  0.92400000  1
  C  C348  1  0.70140000  0.79960000  0.65801000  1
  C  C349  1  0.72490000  0.90170000  0.92125000  1
  C  C350  1  0.72590000  0.19730000  0.20048000  1
  C  C351  1  0.72880000  0.77360000  0.59654000  1
  C  C352  1  0.72950000  0.03280000  0.45439000  1
  C  C353  1  0.73230000  0.94900000  0.74790000  1
  C  C354  1  0.76770000  0.05100000  0.24790000  1
  C  C355  1  0.77050000  0.96720000  0.95439000  1
  C  C356  1  0.77120000  0.22640000  0.09654000  1
  C  C357  1  0.77410000  0.80270000  0.70048000  1
  C  C358  1  0.77510000  0.09830000  0.42125000  1
  C  C359  1  0.79860000  0.20040000  0.15801000  1
  C  C360  1  0.80960000  0.29810000  0.42400000  1
  C  C361  1  0.81610000  0.51330000  0.59040000  1
  C  C362  1  0.82310000  0.74440000  0.44131000  1
  C  C363  1  0.82540000  0.43230000  0.75960000  1
  C  C364  1  0.83450000  0.64360000  0.04768000  1
  C  C365  1  0.83630000  0.01070000  0.91704000  1
  C  C366  1  0.83750000  0.28470000  0.81274000  1
  C  C367  1  0.83800000  0.14350000  0.45889000  1
  C  C368  1  0.85070000  0.24570000  0.06152000  1
  C  C369  1  0.85870000  0.80330000  0.06960000  1
  C  C370  1  0.88990000  0.47080000  0.56050000  1
  C  C371  1  0.89080000  0.69820000  0.34759000  1
  C  C372  1  0.90100000  0.59880000  0.08272000  1
  C  C373  1  0.90690000  0.72230000  0.41145000  1
  C  C374  1  0.92620000  0.27520000  0.90396000  1
  C  C375  1  0.92630000  0.29100000  0.83826000  1
  C  C376  1  0.93220000  0.40710000  0.59670000  1
  C  C377  1  0.94350000  0.53500000  0.04636000  1
  C  C378  1  0.95600000  0.55910000  0.24940000  1
  C  C379  1  0.96620000  0.21280000  0.62320000  1
  C  C380  1  0.97100000  0.70240000  0.31150000  1
  C  C381  1  0.98470000  0.76220000  0.57148000  1
  C  C382  1  0.98670000  0.99170000  0.42067000  1
  C  C383  1  0.98690000  0.35440000  0.55840000  1
  S  S384  1  0.03989000  0.16448000  0.26276000  1
  S  S385  1  0.04716000  0.27820000  0.59572000  1
  S  S386  1  0.10927000  0.72381000  0.07855000  1
  S  S387  1  0.17124000  0.82909000  0.75914000  1
  S  S388  1  0.21346000  0.22486000  0.41285000  1
  S  S389  1  0.24652000  0.65231000  0.23015000  1
  S  S390  1  0.25348000  0.34769000  0.73015000  1
  S  S391  1  0.28654000  0.77514000  0.91285000  1
  S  S392  1  0.32876000  0.17091000  0.25914000  1
  S  S393  1  0.39073000  0.27619000  0.57855000  1
  S  S394  1  0.45284000  0.72180000  0.09572000  1
  S  S395  1  0.46011000  0.83552000  0.76276000  1
  S  S396  1  0.53989000  0.33552000  0.73724000  1
  S  S397  1  0.54716000  0.22180000  0.40428000  1
  S  S398  1  0.60927000  0.77619000  0.92145000  1
  S  S399  1  0.67124000  0.67091000  0.24086000  1
  S  S400  1  0.71346000  0.27514000  0.58715000  1
  S  S401  1  0.74652000  0.84769000  0.76985000  1
  S  S402  1  0.75348000  0.15231000  0.26985000  1
  S  S403  1  0.78654000  0.72486000  0.08715000  1
  S  S404  1  0.82876000  0.32909000  0.74086000  1
  S  S405  1  0.89073000  0.22381000  0.42145000  1
  S  S406  1  0.95284000  0.77820000  0.90428000  1
  S  S407  1  0.96011000  0.66448000  0.23724000  1
  N  N408  1  0.05100000  0.15890000  0.05473000  1
  N  N409  1  0.05200000  0.03270000  0.96170000  1
  N  N410  1  0.11400000  0.97510000  0.47934000  1
  N  N411  1  0.11620000  0.83990000  0.56366000  1
  N  N412  1  0.21533000  0.47280000  0.01899000  1
  N  N413  1  0.22280000  0.33640000  0.93338000  1
  N  N414  1  0.27720000  0.66360000  0.43338000  1
  N  N415  1  0.28467000  0.52720000  0.51899000  1
  N  N416  1  0.38380000  0.16010000  0.06366000  1
  N  N417  1  0.38600000  0.02490000  0.97934000  1
  N  N418  1  0.44800000  0.96730000  0.46170000  1
  N  N419  1  0.44900000  0.84110000  0.55473000  1
  N  N420  1  0.55100000  0.34110000  0.94527000  1
  N  N421  1  0.55200000  0.46730000  0.03830000  1
  N  N422  1  0.61400000  0.52490000  0.52066000  1
  N  N423  1  0.61620000  0.66010000  0.43634000  1
  N  N424  1  0.71533000  0.02720000  0.98101000  1
  N  N425  1  0.72280000  0.16360000  0.06662000  1
  N  N426  1  0.77720000  0.83640000  0.56662000  1
  N  N427  1  0.78467000  0.97280000  0.48101000  1
  N  N428  1  0.88380000  0.33990000  0.93634000  1
  N  N429  1  0.88600000  0.47510000  0.02066000  1
  N  N430  1  0.94800000  0.53270000  0.53830000  1
  N  N431  1  0.94900000  0.65890000  0.44527000  1
  O  O432  1  0.03477000  0.42441000  0.05851000  1
  O  O433  1  0.03921000  0.30643000  0.97021000  1
  O  O434  1  0.04801000  0.52290000  0.12149000  1
  O  O435  1  0.05942000  0.20830000  0.90856000  1
  O  O436  1  0.10698000  0.80447000  0.42466000  1
  O  O437  1  0.12838000  0.69867000  0.47965000  1
  O  O438  1  0.13304000  0.48000000  0.62669000  1
  O  O439  1  0.14244000  0.57948000  0.56485000  1
  O  O440  1  0.20117000  0.08242000  0.92833000  1
  O  O441  1  0.20293000  0.20194000  0.01657000  1
  O  O442  1  0.21627000  0.30277000  0.07678000  1
  O  O443  1  0.22620000  0.97860000  0.87276000  1
  O  O444  1  0.27380000  0.02140000  0.37276000  1
  O  O445  1  0.28373000  0.69723000  0.57678000  1
  O  O446  1  0.29707000  0.79806000  0.51657000  1
  O  O447  1  0.29883000  0.91758000  0.42833000  1
  O  O448  1  0.35756000  0.42052000  0.06485000  1
  O  O449  1  0.36696000  0.52000000  0.12669000  1
  O  O450  1  0.37162000  0.30133000  0.97965000  1
  O  O451  1  0.39302000  0.19553000  0.92466000  1
  O  O452  1  0.44058000  0.79170000  0.40856000  1
  O  O453  1  0.45199000  0.47710000  0.62149000  1
  O  O454  1  0.46079000  0.69357000  0.47021000  1
  O  O455  1  0.46523000  0.57559000  0.55851000  1
  O  O456  1  0.53477000  0.07559000  0.94149000  1
  O  O457  1  0.53921000  0.19357000  0.02979000  1
  O  O458  1  0.54801000  0.97710000  0.87851000  1
  O  O459  1  0.55942000  0.29170000  0.09144000  1
  O  O460  1  0.60698000  0.69553000  0.57534000  1
  O  O461  1  0.62838000  0.80133000  0.52035000  1
  O  O462  1  0.63304000  0.02000000  0.37331000  1
  O  O463  1  0.64244000  0.92052000  0.43515000  1
  O  O464  1  0.70117000  0.41758000  0.07167000  1
  O  O465  1  0.70293000  0.29806000  0.98343000  1
  O  O466  1  0.71627000  0.19723000  0.92322000  1
  O  O467  1  0.72620000  0.52140000  0.12724000  1
  O  O468  1  0.77380000  0.47860000  0.62724000  1
  O  O469  1  0.78373000  0.80277000  0.42322000  1
  O  O470  1  0.79707000  0.70194000  0.48343000  1
  O  O471  1  0.79883000  0.58242000  0.57167000  1
  O  O472  1  0.85756000  0.07948000  0.93515000  1
  O  O473  1  0.86696000  0.98000000  0.87331000  1
  O  O474  1  0.87162000  0.19867000  0.02035000  1
  O  O475  1  0.89302000  0.30447000  0.07534000  1
  O  O476  1  0.94058000  0.70830000  0.59144000  1
  O  O477  1  0.95199000  0.02290000  0.37851000  1
  O  O478  1  0.96079000  0.80643000  0.52979000  1
  O  O479  1  0.96523000  0.92441000  0.44149000  1
