# generated using pymatgen
data_Ni3H16(C9O7)2
_symmetry_space_group_name_H-M   'P 1'
_cell_length_a   7.69400000
_cell_length_b   9.21000000
_cell_length_c   10.76400000
_cell_angle_alpha   108.59800000
_cell_angle_beta   92.30000000
_cell_angle_gamma   109.81400000
_symmetry_Int_Tables_number   1
_chemical_formula_structural   Ni3H16(C9O7)2
_chemical_formula_sum   'Ni3 H16 C18 O14'
_cell_volume   670.66116888
_cell_formula_units_Z   1
loop_
 _symmetry_equiv_pos_site_id
 _symmetry_equiv_pos_as_xyz
  1  'x, y, z'
loop_
 _atom_site_type_symbol
 _atom_site_label
 _atom_site_symmetry_multiplicity
 _atom_site_fract_x
 _atom_site_fract_y
 _atom_site_fract_z
 _atom_site_occupancy
  Ni  Ni0  1  0.14973000  0.13415000  0.12783000  1
  Ni  Ni1  1  0.50000000  0.00000000  0.00000000  1
  Ni  Ni2  1  0.85027000  0.86585000  0.87217000  1
  H  H3  1  0.17990000  0.01400000  0.58540000  1
  H  H4  1  0.19540000  0.86120000  0.08290000  1
  H  H5  1  0.27380000  0.41130000  0.92210000  1
  H  H6  1  0.32720000  0.47230000  0.56590000  1
  H  H7  1  0.33900000  0.99100000  0.20720000  1
  H  H8  1  0.38290000  0.14190000  0.63900000  1
  H  H9  1  0.44450000  0.39010000  0.85760000  1
  H  H10  1  0.47370000  0.42170000  0.62670000  1
  H  H11  1  0.52630000  0.57830000  0.37330000  1
  H  H12  1  0.55550000  0.60990000  0.14240000  1
  H  H13  1  0.61710000  0.85810000  0.36100000  1
  H  H14  1  0.66100000  0.00900000  0.79280000  1
  H  H15  1  0.67280000  0.52770000  0.43410000  1
  H  H16  1  0.72620000  0.58870000  0.07790000  1
  H  H17  1  0.80460000  0.13880000  0.91710000  1
  H  H18  1  0.82010000  0.98600000  0.41460000  1
  C  C19  1  0.20090000  0.18910000  0.76810000  1
  C  C20  1  0.21920000  0.22750000  0.54950000  1
  C  C21  1  0.24010000  0.10140000  0.85880000  1
  C  C22  1  0.24720000  0.16550000  0.40540000  1
  C  C23  1  0.25450000  0.12780000  0.62970000  1
  C  C24  1  0.29690000  0.47860000  0.75710000  1
  C  C25  1  0.31640000  0.37490000  0.84040000  1
  C  C26  1  0.34610000  0.41120000  0.61820000  1
  C  C27  1  0.43380000  0.65640000  0.83110000  1
  C  C28  1  0.56620000  0.34360000  0.16890000  1
  C  C29  1  0.65390000  0.58880000  0.38180000  1
  C  C30  1  0.68360000  0.62510000  0.15960000  1
  C  C31  1  0.70310000  0.52140000  0.24290000  1
  C  C32  1  0.74550000  0.87220000  0.37030000  1
  C  C33  1  0.75280000  0.83450000  0.59460000  1
  C  C34  1  0.75990000  0.89860000  0.14120000  1
  C  C35  1  0.78080000  0.77250000  0.45050000  1
  C  C36  1  0.79910000  0.81090000  0.23190000  1
  O  O37  1  0.10920000  0.05170000  0.92370000  1
  O  O38  1  0.14730000  0.18910000  0.32380000  1
  O  O39  1  0.28500000  0.97090000  0.11980000  1
  O  O40  1  0.36050000  0.76470000  0.87480000  1
  O  O41  1  0.36330000  0.10030000  0.37430000  1
  O  O42  1  0.39490000  0.09000000  0.87280000  1
  O  O43  1  0.39650000  0.31730000  0.15550000  1
  O  O44  1  0.60350000  0.68270000  0.84450000  1
  O  O45  1  0.60510000  0.91000000  0.12720000  1
  O  O46  1  0.63670000  0.89970000  0.62570000  1
  O  O47  1  0.63950000  0.23530000  0.12520000  1
  O  O48  1  0.71500000  0.02910000  0.88020000  1
  O  O49  1  0.85270000  0.81090000  0.67620000  1
  O  O50  1  0.89080000  0.94830000  0.07630000  1
