# generated using pymatgen
data_ZnH8(C4N3)2
_symmetry_space_group_name_H-M   'P 1'
_cell_length_a   12.44642285
_cell_length_b   12.44642285
_cell_length_c   12.44642285
_cell_angle_alpha   60.00000000
_cell_angle_beta   60.00000000
_cell_angle_gamma   60.00000000
_symmetry_Int_Tables_number   1
_chemical_formula_structural   ZnH8(C4N3)2
_chemical_formula_sum   'Zn6 H48 C48 N36'
_cell_volume   1363.38545565
_cell_formula_units_Z   6
loop_
 _symmetry_equiv_pos_site_id
 _symmetry_equiv_pos_as_xyz
  1  'x, y, z'
loop_
 _atom_site_type_symbol
 _atom_site_label
 _atom_site_symmetry_multiplicity
 _atom_site_fract_x
 _atom_site_fract_y
 _atom_site_fract_z
 _atom_site_occupancy
  C  C0  1  0.04090000  0.83570000  0.31170000  1
  C  C1  1  0.83570000  0.04090000  0.31170000  1
  C  C2  1  0.16430000  0.68830000  0.68830000  1
  C  C3  1  0.68830000  0.16430000  0.95910000  1
  C  C4  1  0.68830000  0.16430000  0.68830000  1
  C  C5  1  0.16430000  0.68830000  0.95910000  1
  C  C6  1  0.19110000  0.61290000  0.61290000  1
  C  C7  1  0.61290000  0.19110000  0.08310000  1
  C  C8  1  0.19110000  0.61290000  0.08310000  1
  C  C9  1  0.61290000  0.19110000  0.61290000  1
  C  C10  1  0.38710000  0.38710000  0.91690000  1
  C  C11  1  0.38710000  0.38710000  0.80890000  1
  C  C12  1  0.91690000  0.80890000  0.38710000  1
  C  C13  1  0.80890000  0.91690000  0.38710000  1
  C  C14  1  0.61290000  0.08310000  0.19110000  1
  C  C15  1  0.08310000  0.61290000  0.61290000  1
  C  C16  1  0.08310000  0.61290000  0.19110000  1
  C  C17  1  0.61290000  0.08310000  0.61290000  1
  C  C18  1  0.68830000  0.95910000  0.16430000  1
  C  C19  1  0.95910000  0.68830000  0.68830000  1
  C  C20  1  0.68830000  0.95910000  0.68830000  1
  C  C21  1  0.95910000  0.68830000  0.16430000  1
  C  C22  1  0.31170000  0.31170000  0.04090000  1
  C  C23  1  0.31170000  0.31170000  0.83570000  1
  C  C24  1  0.68830000  0.68830000  0.16430000  1
  C  C25  1  0.68830000  0.68830000  0.95910000  1
  C  C26  1  0.04090000  0.31170000  0.83570000  1
  C  C27  1  0.31170000  0.04090000  0.31170000  1
  C  C28  1  0.04090000  0.31170000  0.31170000  1
  C  C29  1  0.31170000  0.04090000  0.83570000  1
  C  C30  1  0.38710000  0.91690000  0.38710000  1
  C  C31  1  0.91690000  0.38710000  0.80890000  1
  C  C32  1  0.91690000  0.38710000  0.38710000  1
  C  C33  1  0.38710000  0.91690000  0.80890000  1
  C  C34  1  0.19110000  0.08310000  0.61290000  1
  C  C35  1  0.08310000  0.19110000  0.61290000  1
  C  C36  1  0.61290000  0.61290000  0.19110000  1
  C  C37  1  0.61290000  0.61290000  0.08310000  1
  C  C38  1  0.38710000  0.80890000  0.38710000  1
  C  C39  1  0.80890000  0.38710000  0.91690000  1
  C  C40  1  0.38710000  0.80890000  0.91690000  1
  C  C41  1  0.80890000  0.38710000  0.38710000  1
  C  C42  1  0.83570000  0.31170000  0.04090000  1
  C  C43  1  0.31170000  0.83570000  0.31170000  1
  C  C44  1  0.31170000  0.83570000  0.04090000  1
  C  C45  1  0.83570000  0.31170000  0.31170000  1
  C  C46  1  0.16430000  0.95910000  0.68830000  1
  C  C47  1  0.95910000  0.16430000  0.68830000  1
  H  H48  1  0.13000000  0.83000000  0.27000000  1
  H  H49  1  0.83000000  0.13000000  0.27000000  1
  H  H50  1  0.17000000  0.73000000  0.73000000  1
  H  H51  1  0.73000000  0.17000000  0.87000000  1
  H  H52  1  0.73000000  0.17000000  0.73000000  1
  H  H53  1  0.17000000  0.73000000  0.87000000  1
  H  H54  1  0.00500000  0.86100000  0.31700000  1
  H  H55  1  0.86100000  0.00500000  0.31700000  1
  H  H56  1  0.13900000  0.68300000  0.68300000  1
  H  H57  1  0.68300000  0.13900000  0.99500000  1
  H  H58  1  0.68300000  0.13900000  0.68300000  1
  H  H59  1  0.13900000  0.68300000  0.99500000  1
  H  H60  1  0.68300000  0.99500000  0.13900000  1
  H  H61  1  0.99500000  0.68300000  0.68300000  1
  H  H62  1  0.68300000  0.99500000  0.68300000  1
  H  H63  1  0.99500000  0.68300000  0.13900000  1
  H  H64  1  0.31700000  0.31700000  0.00500000  1
  H  H65  1  0.31700000  0.31700000  0.86100000  1
  H  H66  1  0.73000000  0.87000000  0.17000000  1
  H  H67  1  0.87000000  0.73000000  0.73000000  1
  H  H68  1  0.73000000  0.87000000  0.73000000  1
  H  H69  1  0.87000000  0.73000000  0.17000000  1
  H  H70  1  0.27000000  0.27000000  0.13000000  1
  H  H71  1  0.27000000  0.27000000  0.83000000  1
  H  H72  1  0.73000000  0.73000000  0.17000000  1
  H  H73  1  0.73000000  0.73000000  0.87000000  1
  H  H74  1  0.13000000  0.27000000  0.83000000  1
  H  H75  1  0.27000000  0.13000000  0.27000000  1
  H  H76  1  0.13000000  0.27000000  0.27000000  1
  H  H77  1  0.27000000  0.13000000  0.83000000  1
  H  H78  1  0.68300000  0.68300000  0.13900000  1
  H  H79  1  0.68300000  0.68300000  0.99500000  1
  H  H80  1  0.00500000  0.31700000  0.86100000  1
  H  H81  1  0.31700000  0.00500000  0.31700000  1
  H  H82  1  0.00500000  0.31700000  0.31700000  1
  H  H83  1  0.31700000  0.00500000  0.86100000  1
  H  H84  1  0.86100000  0.31700000  0.00500000  1
  H  H85  1  0.31700000  0.86100000  0.31700000  1
  H  H86  1  0.31700000  0.86100000  0.00500000  1
  H  H87  1  0.86100000  0.31700000  0.31700000  1
  H  H88  1  0.13900000  0.99500000  0.68300000  1
  H  H89  1  0.99500000  0.13900000  0.68300000  1
  H  H90  1  0.83000000  0.27000000  0.13000000  1
  H  H91  1  0.27000000  0.83000000  0.27000000  1
  H  H92  1  0.27000000  0.83000000  0.13000000  1
  H  H93  1  0.83000000  0.27000000  0.27000000  1
  H  H94  1  0.17000000  0.87000000  0.73000000  1
  H  H95  1  0.87000000  0.17000000  0.73000000  1
  N  N96  1  0.49790000  0.49790000  0.25210000  1
  N  N97  1  0.45840000  0.45840000  0.87780000  1
  N  N98  1  0.45840000  0.45840000  0.70540000  1
  N  N99  1  0.29460000  0.54160000  0.54160000  1
  N  N100  1  0.54160000  0.29460000  0.12220000  1
  N  N101  1  0.29460000  0.54160000  0.12220000  1
  N  N102  1  0.54160000  0.29460000  0.54160000  1
  N  N103  1  0.49790000  0.25210000  0.49790000  1
  N  N104  1  0.25210000  0.49790000  0.49790000  1
  N  N105  1  0.49790000  0.25210000  0.25210000  1
  N  N106  1  0.25210000  0.49790000  0.25210000  1
  N  N107  1  0.54160000  0.12220000  0.29460000  1
  N  N108  1  0.12220000  0.54160000  0.54160000  1
  N  N109  1  0.12220000  0.54160000  0.29460000  1
  N  N110  1  0.54160000  0.12220000  0.54160000  1
  N  N111  1  0.87780000  0.70540000  0.45840000  1
  N  N112  1  0.70540000  0.87780000  0.45840000  1
  N  N113  1  0.25210000  0.25210000  0.49790000  1
  N  N114  1  0.74790000  0.74790000  0.50210000  1
  N  N115  1  0.29460000  0.12220000  0.54160000  1
  N  N116  1  0.12220000  0.29460000  0.54160000  1
  N  N117  1  0.45840000  0.87780000  0.45840000  1
  N  N118  1  0.87780000  0.45840000  0.70540000  1
  N  N119  1  0.87780000  0.45840000  0.45840000  1
  N  N120  1  0.45840000  0.87780000  0.70540000  1
  N  N121  1  0.74790000  0.50210000  0.74790000  1
  N  N122  1  0.50210000  0.74790000  0.74790000  1
  N  N123  1  0.74790000  0.50210000  0.50210000  1
  N  N124  1  0.50210000  0.74790000  0.50210000  1
  N  N125  1  0.45840000  0.70540000  0.45840000  1
  N  N126  1  0.70540000  0.45840000  0.87780000  1
  N  N127  1  0.45840000  0.70540000  0.87780000  1
  N  N128  1  0.70540000  0.45840000  0.45840000  1
  N  N129  1  0.54160000  0.54160000  0.29460000  1
  N  N130  1  0.54160000  0.54160000  0.12220000  1
  N  N131  1  0.50210000  0.50210000  0.74790000  1
  Zn  Zn132  1  0.50000000  0.50000000  0.50000000  1
  Zn  Zn133  1  0.50000000  0.50000000  0.00000000  1
  Zn  Zn134  1  0.37500000  0.37500000  0.37500000  1
  Zn  Zn135  1  0.50000000  0.00000000  0.50000000  1
  Zn  Zn136  1  0.00000000  0.50000000  0.50000000  1
  Zn  Zn137  1  0.62500000  0.62500000  0.62500000  1
