# generated using pymatgen
data_MgH10C18(NO2)2
_symmetry_space_group_name_H-M   'P 1'
_cell_length_a   9.34570000
_cell_length_b   10.86405447
_cell_length_c   10.86405447
_cell_angle_alpha   84.61790429
_cell_angle_beta   69.82539626
_cell_angle_gamma   69.82539626
_symmetry_Int_Tables_number   1
_chemical_formula_structural   MgH10C18(NO2)2
_chemical_formula_sum   'Mg2 H20 C36 N4 O8'
_cell_volume   971.45434473
_cell_formula_units_Z   2
loop_
 _symmetry_equiv_pos_site_id
 _symmetry_equiv_pos_as_xyz
  1  'x, y, z'
loop_
 _atom_site_type_symbol
 _atom_site_label
 _atom_site_symmetry_multiplicity
 _atom_site_fract_x
 _atom_site_fract_y
 _atom_site_fract_z
 _atom_site_occupancy
  C  C0  1  0.37360000  0.27220000  0.59960000  1
  C  C1  1  0.87360000  0.59960000  0.27220000  1
  C  C2  1  0.37290000  0.17540000  0.69280000  1
  C  C3  1  0.87290000  0.69280000  0.17540000  1
  C  C4  1  0.12420000  0.33480000  0.39700000  1
  C  C5  1  0.62420000  0.39700000  0.33480000  1
  C  C6  1  0.50560000  0.04670000  0.67050000  1
  C  C7  1  0.00560000  0.67050000  0.04670000  1
  C  C8  1  0.47110000  0.93600000  0.72940000  1
  C  C9  1  0.97110000  0.72940000  0.93600000  1
  C  C10  1  0.66440000  0.03240000  0.59160000  1
  C  C11  1  0.16440000  0.59160000  0.03240000  1
  C  C12  1  0.25190000  0.20000000  0.36880000  1
  C  C13  1  0.75190000  0.36880000  0.20000000  1
  C  C14  1  0.59030000  0.81410000  0.70890000  1
  C  C15  1  0.09030000  0.70890000  0.81410000  1
  C  C16  1  0.21550000  0.08980000  0.42680000  1
  C  C17  1  0.71550000  0.42680000  0.08980000  1
  C  C18  1  0.78450000  0.91020000  0.57320000  1
  C  C19  1  0.28450000  0.57320000  0.91020000  1
  C  C20  1  0.40970000  0.18590000  0.29110000  1
  C  C21  1  0.90970000  0.29110000  0.18590000  1
  C  C22  1  0.74810000  0.80000000  0.63120000  1
  C  C23  1  0.24810000  0.63120000  0.80000000  1
  C  C24  1  0.33560000  0.96760000  0.40840000  1
  C  C25  1  0.83560000  0.40840000  0.96760000  1
  C  C26  1  0.52890000  0.06400000  0.27060000  1
  C  C27  1  0.02890000  0.27060000  0.06400000  1
  C  C28  1  0.49440000  0.95330000  0.32950000  1
  C  C29  1  0.99440000  0.32950000  0.95330000  1
  C  C30  1  0.87580000  0.66520000  0.60300000  1
  C  C31  1  0.37580000  0.60300000  0.66520000  1
  C  C32  1  0.62710000  0.82460000  0.30720000  1
  C  C33  1  0.12710000  0.30720000  0.82460000  1
  C  C34  1  0.62640000  0.72780000  0.40040000  1
  C  C35  1  0.12640000  0.40040000  0.72780000  1
  H  H36  1  0.46310000  0.25830000  0.52350000  1
  H  H37  1  0.96310000  0.52350000  0.25830000  1
  H  H38  1  0.36630000  0.94430000  0.78350000  1
  H  H39  1  0.86630000  0.78350000  0.94430000  1
  H  H40  1  0.68990000  0.10510000  0.55110000  1
  H  H41  1  0.18990000  0.55110000  0.10510000  1
  H  H42  1  0.10980000  0.09810000  0.47830000  1
  H  H43  1  0.60980000  0.47830000  0.09810000  1
  H  H44  1  0.93560000  0.25250000  0.25910000  1
  H  H45  1  0.43560000  0.25910000  0.25250000  1
  H  H46  1  0.06440000  0.74750000  0.74090000  1
  H  H47  1  0.56440000  0.74090000  0.74750000  1
  H  H48  1  0.89020000  0.90190000  0.52170000  1
  H  H49  1  0.39020000  0.52170000  0.90190000  1
  H  H50  1  0.31010000  0.89490000  0.44890000  1
  H  H51  1  0.81010000  0.44890000  0.89490000  1
  H  H52  1  0.63370000  0.05570000  0.21650000  1
  H  H53  1  0.13370000  0.21650000  0.05570000  1
  H  H54  1  0.53690000  0.74170000  0.47650000  1
  H  H55  1  0.03690000  0.47650000  0.74170000  1
  Mg  Mg56  1  0.75000000  0.45728000  0.54272000  1
  Mg  Mg57  1  0.25000000  0.54272000  0.45728000  1
  N  N58  1  0.25000000  0.19380000  0.80620000  1
  N  N59  1  0.25000000  0.38420000  0.61580000  1
  N  N60  1  0.75000000  0.61580000  0.38420000  1
  N  N61  1  0.75000000  0.80620000  0.19380000  1
  O  O62  1  0.67100000  0.36703000  0.43265000  1
  O  O63  1  0.17100000  0.43265000  0.36703000  1
  O  O64  1  0.98070000  0.33953000  0.44589000  1
  O  O65  1  0.48070000  0.44589000  0.33953000  1
  O  O66  1  0.01930000  0.66047000  0.55411000  1
  O  O67  1  0.51930000  0.55411000  0.66047000  1
  O  O68  1  0.32900000  0.63297000  0.56735000  1
  O  O69  1  0.82900000  0.56735000  0.63297000  1
