# generated using pymatgen
data_MnH2C8NO6
_symmetry_space_group_name_H-M   'P 1'
_cell_length_a   13.18700000
_cell_length_b   15.42653558
_cell_length_c   15.42653558
_cell_angle_alpha   68.12181763
_cell_angle_beta   75.82114856
_cell_angle_gamma   75.82114856
_symmetry_Int_Tables_number   1
_chemical_formula_structural   MnH2C8NO6
_chemical_formula_sum   'Mn8 H16 C64 N8 O48'
_cell_volume   2781.98786517
_cell_formula_units_Z   8
loop_
 _symmetry_equiv_pos_site_id
 _symmetry_equiv_pos_as_xyz
  1  'x, y, z'
loop_
 _atom_site_type_symbol
 _atom_site_label
 _atom_site_symmetry_multiplicity
 _atom_site_fract_x
 _atom_site_fract_y
 _atom_site_fract_z
 _atom_site_occupancy
  C  C0  1  0.06690000  0.26426000  0.70226000  1
  C  C1  1  0.56690000  0.70226000  0.26426000  1
  C  C2  1  0.42250000  0.38359000  0.57359000  1
  C  C3  1  0.92250000  0.57359000  0.38359000  1
  C  C4  1  0.46500000  0.30488000  0.64188000  1
  C  C5  1  0.96500000  0.64188000  0.30488000  1
  C  C6  1  0.15160000  0.39880000  0.54640000  1
  C  C7  1  0.65160000  0.54640000  0.39880000  1
  C  C8  1  0.14100000  0.23443000  0.63323000  1
  C  C9  1  0.64100000  0.63323000  0.23443000  1
  C  C10  1  0.45140000  0.39069000  0.47149000  1
  C  C11  1  0.95140000  0.47149000  0.39069000  1
  C  C12  1  0.18260000  0.30392000  0.55432000  1
  C  C13  1  0.68260000  0.55432000  0.30392000  1
  C  C14  1  0.16370000  0.13439000  0.63339000  1
  C  C15  1  0.66370000  0.63339000  0.13439000  1
  C  C16  1  0.26560000  0.27820000  0.47660000  1
  C  C17  1  0.76560000  0.47660000  0.27820000  1
  C  C18  1  0.24650000  0.06565000  0.66905000  1
  C  C19  1  0.74650000  0.66905000  0.06565000  1
  C  C20  1  0.00550000  0.18078000  0.55238000  1
  C  C21  1  0.50550000  0.55238000  0.18078000  1
  C  C22  1  0.09820000  0.11021000  0.59141000  1
  C  C23  1  0.59820000  0.59141000  0.11021000  1
  C  C24  1  0.26430000  0.97599000  0.66299000  1
  C  C25  1  0.76430000  0.66299000  0.97599000  1
  C  C26  1  0.11490000  0.01946000  0.58726000  1
  C  C27  1  0.61490000  0.58726000  0.01946000  1
  C  C28  1  0.19810000  0.95242000  0.62262000  1
  C  C29  1  0.69810000  0.62262000  0.95242000  1
  C  C30  1  0.78210000  0.14562000  0.38442000  1
  C  C31  1  0.28210000  0.38442000  0.14562000  1
  C  C32  1  0.21790000  0.85438000  0.61558000  1
  C  C33  1  0.71790000  0.61558000  0.85438000  1
  C  C34  1  0.80190000  0.04758000  0.37738000  1
  C  C35  1  0.30190000  0.37738000  0.04758000  1
  C  C36  1  0.88510000  0.98054000  0.41274000  1
  C  C37  1  0.38510000  0.41274000  0.98054000  1
  C  C38  1  0.73570000  0.02401000  0.33701000  1
  C  C39  1  0.23570000  0.33701000  0.02401000  1
  C  C40  1  0.90180000  0.88979000  0.40859000  1
  C  C41  1  0.40180000  0.40859000  0.88979000  1
  C  C42  1  0.99450000  0.81922000  0.44762000  1
  C  C43  1  0.49450000  0.44762000  0.81922000  1
  C  C44  1  0.75350000  0.93435000  0.33095000  1
  C  C45  1  0.25350000  0.33095000  0.93435000  1
  C  C46  1  0.73440000  0.72180000  0.52340000  1
  C  C47  1  0.23440000  0.52340000  0.72180000  1
  C  C48  1  0.83630000  0.86561000  0.36661000  1
  C  C49  1  0.33630000  0.36661000  0.86561000  1
  C  C50  1  0.81740000  0.69608000  0.44568000  1
  C  C51  1  0.31740000  0.44568000  0.69608000  1
  C  C52  1  0.54860000  0.60931000  0.52851000  1
  C  C53  1  0.04860000  0.52851000  0.60931000  1
  C  C54  1  0.85900000  0.76557000  0.36677000  1
  C  C55  1  0.35900000  0.36677000  0.76557000  1
  C  C56  1  0.84840000  0.60120000  0.45360000  1
  C  C57  1  0.34840000  0.45360000  0.60120000  1
  C  C58  1  0.53500000  0.69512000  0.35812000  1
  C  C59  1  0.03500000  0.35812000  0.69512000  1
  C  C60  1  0.57750000  0.61641000  0.42641000  1
  C  C61  1  0.07750000  0.42641000  0.61641000  1
  C  C62  1  0.93310000  0.73574000  0.29774000  1
  C  C63  1  0.43310000  0.29774000  0.73574000  1
  H  H64  1  0.18090000  0.44460000  0.49340000  1
  H  H65  1  0.68090000  0.49340000  0.44460000  1
  H  H66  1  0.51470000  0.25710000  0.62470000  1
  H  H67  1  0.01470000  0.62470000  0.25710000  1
  H  H68  1  0.32140000  0.93150000  0.68630000  1
  H  H69  1  0.82140000  0.68630000  0.93150000  1
  H  H70  1  0.06930000  0.00380000  0.56020000  1
  H  H71  1  0.56930000  0.56020000  0.00380000  1
  H  H72  1  0.93070000  0.99620000  0.43980000  1
  H  H73  1  0.43070000  0.43980000  0.99620000  1
  H  H74  1  0.67860000  0.06850000  0.31370000  1
  H  H75  1  0.17860000  0.31370000  0.06850000  1
  H  H76  1  0.48530000  0.74290000  0.37530000  1
  H  H77  1  0.98530000  0.37530000  0.74290000  1
  H  H78  1  0.81910000  0.55540000  0.50660000  1
  H  H79  1  0.31910000  0.50660000  0.55540000  1
  Mn  Mn80  1  0.85919000  0.29209000  0.42909000  1
  Mn  Mn81  1  0.35919000  0.42909000  0.29209000  1
  Mn  Mn82  1  0.12072000  0.30726000  0.33654000  1
  Mn  Mn83  1  0.62072000  0.33654000  0.30726000  1
  Mn  Mn84  1  0.87928000  0.69274000  0.66346000  1
  Mn  Mn85  1  0.37928000  0.66346000  0.69274000  1
  Mn  Mn86  1  0.14081000  0.70791000  0.57091000  1
  Mn  Mn87  1  0.64081000  0.57091000  0.70791000  1
  N  N88  1  0.02210000  0.19537000  0.78877000  1
  N  N89  1  0.52210000  0.78877000  0.19537000  1
  N  N90  1  0.31500000  0.08673000  0.71573000  1
  N  N91  1  0.81500000  0.71573000  0.08673000  1
  N  N92  1  0.68500000  0.91327000  0.28427000  1
  N  N93  1  0.18500000  0.28427000  0.91327000  1
  N  N94  1  0.97790000  0.80463000  0.21123000  1
  N  N95  1  0.47790000  0.21123000  0.80463000  1
  O  O96  1  0.56490000  0.17079000  0.77979000  1
  O  O97  1  0.06490000  0.77979000  0.17079000  1
  O  O98  1  0.07330000  0.11741000  0.81701000  1
  O  O99  1  0.57330000  0.81701000  0.11741000  1
  O  O100  1  0.30550000  0.16041000  0.72341000  1
  O  O101  1  0.80550000  0.72341000  0.16041000  1
  O  O102  1  0.88370000  0.42053000  0.43563000  1
  O  O103  1  0.38370000  0.43563000  0.42053000  1
  O  O104  1  0.54210000  0.34866000  0.44548000  1
  O  O105  1  0.04210000  0.44548000  0.34866000  1
  O  O106  1  0.91980000  0.18429000  0.60529000  1
  O  O107  1  0.41980000  0.60529000  0.18429000  1
  O  O108  1  0.38780000  0.02700000  0.74220000  1
  O  O109  1  0.88780000  0.74220000  0.02700000  1
  O  O110  1  0.34510000  0.22120000  0.49632000  1
  O  O111  1  0.84510000  0.49632000  0.22120000  1
  O  O112  1  0.24740000  0.32351000  0.39163000  1
  O  O113  1  0.74740000  0.39163000  0.32351000  1
  O  O114  1  0.01940000  0.23145000  0.46681000  1
  O  O115  1  0.51940000  0.46681000  0.23145000  1
  O  O116  1  0.85150000  0.16576000  0.41170000  1
  O  O117  1  0.35150000  0.41170000  0.16576000  1
  O  O118  1  0.69740000  0.19713000  0.36353000  1
  O  O119  1  0.19740000  0.36353000  0.19713000  1
  O  O120  1  0.30260000  0.80287000  0.63647000  1
  O  O121  1  0.80260000  0.63647000  0.80287000  1
  O  O122  1  0.14850000  0.83424000  0.58830000  1
  O  O123  1  0.64850000  0.58830000  0.83424000  1
  O  O124  1  0.98060000  0.76855000  0.53319000  1
  O  O125  1  0.48060000  0.53319000  0.76855000  1
  O  O126  1  0.75260000  0.67649000  0.60837000  1
  O  O127  1  0.25260000  0.60837000  0.67649000  1
  O  O128  1  0.65490000  0.77880000  0.50368000  1
  O  O129  1  0.15490000  0.50368000  0.77880000  1
  O  O130  1  0.61220000  0.97300000  0.25780000  1
  O  O131  1  0.11220000  0.25780000  0.97300000  1
  O  O132  1  0.08020000  0.81571000  0.39471000  1
  O  O133  1  0.58020000  0.39471000  0.81571000  1
  O  O134  1  0.45790000  0.65134000  0.55452000  1
  O  O135  1  0.95790000  0.55452000  0.65134000  1
  O  O136  1  0.11630000  0.57947000  0.56437000  1
  O  O137  1  0.61630000  0.56437000  0.57947000  1
  O  O138  1  0.69450000  0.83959000  0.27659000  1
  O  O139  1  0.19450000  0.27659000  0.83959000  1
  O  O140  1  0.92670000  0.88259000  0.18299000  1
  O  O141  1  0.42670000  0.18299000  0.88259000  1
  O  O142  1  0.43510000  0.82921000  0.22021000  1
  O  O143  1  0.93510000  0.22021000  0.82921000  1
