# generated using pymatgen
data_Cu2H24(C11O4)3
_symmetry_space_group_name_H-M   'P 1'
_cell_length_a   10.67530000
_cell_length_b   17.84400000
_cell_length_c   27.35300000
_cell_angle_alpha   90.00000000
_cell_angle_beta   90.00000000
_cell_angle_gamma   90.00000000
_symmetry_Int_Tables_number   1
_chemical_formula_structural   Cu2H24(C11O4)3
_chemical_formula_sum   'Cu8 H96 C132 O48'
_cell_volume   5210.47442518
_cell_formula_units_Z   4
loop_
 _symmetry_equiv_pos_site_id
 _symmetry_equiv_pos_as_xyz
  1  'x, y, z'
loop_
 _atom_site_type_symbol
 _atom_site_label
 _atom_site_symmetry_multiplicity
 _atom_site_fract_x
 _atom_site_fract_y
 _atom_site_fract_z
 _atom_site_occupancy
  Cu  Cu0  1  0.06113000  0.43979000  0.98678000  1
  Cu  Cu1  1  0.06113000  0.56021000  0.51322000  1
  Cu  Cu2  1  0.43887000  0.06021000  0.98678000  1
  Cu  Cu3  1  0.43887000  0.93979000  0.51322000  1
  Cu  Cu4  1  0.56113000  0.06021000  0.48678000  1
  Cu  Cu5  1  0.56113000  0.93979000  0.01322000  1
  Cu  Cu6  1  0.93887000  0.43979000  0.48678000  1
  Cu  Cu7  1  0.93887000  0.56021000  0.01322000  1
  H  H8  1  0.01650000  0.27090000  0.19660000  1
  H  H9  1  0.01650000  0.72910000  0.30340000  1
  H  H10  1  0.03560000  0.32030000  0.12020000  1
  H  H11  1  0.03560000  0.67970000  0.37980000  1
  H  H12  1  0.06120000  0.23570000  0.83620000  1
  H  H13  1  0.06120000  0.76430000  0.66380000  1
  H  H14  1  0.06430000  0.00060000  0.03790000  1
  H  H15  1  0.06430000  0.99940000  0.46210000  1
  H  H16  1  0.07950000  0.23680000  0.39380000  1
  H  H17  1  0.07950000  0.76320000  0.10620000  1
  H  H18  1  0.11470000  0.05190000  0.92720000  1
  H  H19  1  0.11470000  0.94810000  0.57280000  1
  H  H20  1  0.12240000  0.28330000  0.87810000  1
  H  H21  1  0.12240000  0.71670000  0.62190000  1
  H  H22  1  0.18720000  0.48980000  0.65920000  1
  H  H23  1  0.18720000  0.51020000  0.84080000  1
  H  H24  1  0.19350000  0.17030000  0.77660000  1
  H  H25  1  0.19350000  0.82970000  0.72340000  1
  H  H26  1  0.21230000  0.36210000  0.81570000  1
  H  H27  1  0.21230000  0.63790000  0.68430000  1
  H  H28  1  0.23130000  0.43020000  0.73170000  1
  H  H29  1  0.23130000  0.56980000  0.76830000  1
  H  H30  1  0.24060000  0.31990000  0.42450000  1
  H  H31  1  0.24060000  0.68010000  0.07550000  1
  H  H32  1  0.25940000  0.18010000  0.42450000  1
  H  H33  1  0.25940000  0.81990000  0.07550000  1
  H  H34  1  0.26870000  0.06980000  0.73170000  1
  H  H35  1  0.26870000  0.93020000  0.76830000  1
  H  H36  1  0.28770000  0.13790000  0.81570000  1
  H  H37  1  0.28770000  0.86210000  0.68430000  1
  H  H38  1  0.30650000  0.32970000  0.77660000  1
  H  H39  1  0.30650000  0.67030000  0.72340000  1
  H  H40  1  0.31280000  0.01020000  0.65920000  1
  H  H41  1  0.31280000  0.98980000  0.84080000  1
  H  H42  1  0.37760000  0.21670000  0.87810000  1
  H  H43  1  0.37760000  0.78330000  0.62190000  1
  H  H44  1  0.38530000  0.44810000  0.92720000  1
  H  H45  1  0.38530000  0.55190000  0.57280000  1
  H  H46  1  0.42050000  0.26320000  0.39380000  1
  H  H47  1  0.42050000  0.73680000  0.10620000  1
  H  H48  1  0.43570000  0.49940000  0.03790000  1
  H  H49  1  0.43570000  0.50060000  0.46210000  1
  H  H50  1  0.43880000  0.26430000  0.83620000  1
  H  H51  1  0.43880000  0.73570000  0.66380000  1
  H  H52  1  0.46440000  0.17970000  0.12020000  1
  H  H53  1  0.46440000  0.82030000  0.37980000  1
  H  H54  1  0.48350000  0.22910000  0.19660000  1
  H  H55  1  0.48350000  0.77090000  0.30340000  1
  H  H56  1  0.51650000  0.22910000  0.69660000  1
  H  H57  1  0.51650000  0.77090000  0.80340000  1
  H  H58  1  0.53560000  0.17970000  0.62020000  1
  H  H59  1  0.53560000  0.82030000  0.87980000  1
  H  H60  1  0.56120000  0.26430000  0.33620000  1
  H  H61  1  0.56120000  0.73570000  0.16380000  1
  H  H62  1  0.56430000  0.49940000  0.53790000  1
  H  H63  1  0.56430000  0.50060000  0.96210000  1
  H  H64  1  0.57950000  0.26320000  0.89380000  1
  H  H65  1  0.57950000  0.73680000  0.60620000  1
  H  H66  1  0.61470000  0.44810000  0.42720000  1
  H  H67  1  0.61470000  0.55190000  0.07280000  1
  H  H68  1  0.62240000  0.21670000  0.37810000  1
  H  H69  1  0.62240000  0.78330000  0.12190000  1
  H  H70  1  0.68720000  0.01020000  0.15920000  1
  H  H71  1  0.68720000  0.98980000  0.34080000  1
  H  H72  1  0.69350000  0.32970000  0.27660000  1
  H  H73  1  0.69350000  0.67030000  0.22340000  1
  H  H74  1  0.71230000  0.13790000  0.31570000  1
  H  H75  1  0.71230000  0.86210000  0.18430000  1
  H  H76  1  0.73130000  0.06980000  0.23170000  1
  H  H77  1  0.73130000  0.93020000  0.26830000  1
  H  H78  1  0.74060000  0.18010000  0.92450000  1
  H  H79  1  0.74060000  0.81990000  0.57550000  1
  H  H80  1  0.75940000  0.31990000  0.92450000  1
  H  H81  1  0.75940000  0.68010000  0.57550000  1
  H  H82  1  0.76870000  0.43020000  0.23170000  1
  H  H83  1  0.76870000  0.56980000  0.26830000  1
  H  H84  1  0.78770000  0.36210000  0.31570000  1
  H  H85  1  0.78770000  0.63790000  0.18430000  1
  H  H86  1  0.80650000  0.17030000  0.27660000  1
  H  H87  1  0.80650000  0.82970000  0.22340000  1
  H  H88  1  0.81280000  0.48980000  0.15920000  1
  H  H89  1  0.81280000  0.51020000  0.34080000  1
  H  H90  1  0.87760000  0.28330000  0.37810000  1
  H  H91  1  0.87760000  0.71670000  0.12190000  1
  H  H92  1  0.88530000  0.05190000  0.42720000  1
  H  H93  1  0.88530000  0.94810000  0.07280000  1
  H  H94  1  0.92050000  0.23680000  0.89380000  1
  H  H95  1  0.92050000  0.76320000  0.60620000  1
  H  H96  1  0.93570000  0.00060000  0.53790000  1
  H  H97  1  0.93570000  0.99940000  0.96210000  1
  H  H98  1  0.93880000  0.23570000  0.33620000  1
  H  H99  1  0.93880000  0.76430000  0.16380000  1
  H  H100  1  0.96440000  0.32030000  0.62020000  1
  H  H101  1  0.96440000  0.67970000  0.87980000  1
  H  H102  1  0.98350000  0.27090000  0.69660000  1
  H  H103  1  0.98350000  0.72910000  0.80340000  1
  C  C104  1  0.01470000  0.34416000  0.64323000  1
  C  C105  1  0.01470000  0.65584000  0.85677000  1
  C  C106  1  0.03100000  0.31246000  0.68783000  1
  C  C107  1  0.03100000  0.68754000  0.81217000  1
  C  C108  1  0.03610000  0.14794000  0.90634000  1
  C  C109  1  0.03610000  0.85206000  0.59366000  1
  C  C110  1  0.03980000  0.07850000  0.92690000  1
  C  C111  1  0.03980000  0.92150000  0.57310000  1
  C  C112  1  0.04760000  0.44615000  0.58293000  1
  C  C113  1  0.04760000  0.55385000  0.91707000  1
  C  C114  1  0.06810000  0.04653000  0.44770000  1
  C  C115  1  0.06810000  0.95347000  0.05230000  1
  C  C116  1  0.07060000  0.41008000  0.63166000  1
  C  C117  1  0.07060000  0.58992000  0.86834000  1
  C  C118  1  0.07620000  0.18847000  0.40640000  1
  C  C119  1  0.07620000  0.81153000  0.09360000  1
  C  C120  1  0.11640000  0.34097000  0.71988000  1
  C  C121  1  0.11640000  0.65903000  0.78012000  1
  C  C122  1  0.13380000  0.23985000  0.85729000  1
  C  C123  1  0.13380000  0.76015000  0.64271000  1
  C  C124  1  0.15090000  0.44365000  0.66609000  1
  C  C125  1  0.15090000  0.55635000  0.83391000  1
  C  C126  1  0.17580000  0.40896000  0.70945000  1
  C  C127  1  0.17580000  0.59104000  0.79055000  1
  C  C128  1  0.18100000  0.08596000  0.44655000  1
  C  C129  1  0.18100000  0.91404000  0.05345000  1
  C  C130  1  0.18370000  0.15446000  0.42591000  1
  C  C131  1  0.18370000  0.84554000  0.07409000  1
  C  C132  1  0.20170000  0.44725000  0.46760000  1
  C  C133  1  0.20170000  0.55275000  0.03240000  1
  C  C134  1  0.23150000  0.31901000  0.79539000  1
  C  C135  1  0.23150000  0.68099000  0.70461000  1
  C  C136  1  0.25000000  0.25000000  0.82653000  1
  C  C137  1  0.25000000  0.75000000  0.67347000  1
  C  C138  1  0.26850000  0.18099000  0.79539000  1
  C  C139  1  0.26850000  0.81901000  0.70461000  1
  C  C140  1  0.29830000  0.05275000  0.46760000  1
  C  C141  1  0.29830000  0.94725000  0.03240000  1
  C  C142  1  0.31630000  0.34554000  0.42591000  1
  C  C143  1  0.31630000  0.65446000  0.07409000  1
  C  C144  1  0.31900000  0.41404000  0.44655000  1
  C  C145  1  0.31900000  0.58596000  0.05345000  1
  C  C146  1  0.32420000  0.09104000  0.70945000  1
  C  C147  1  0.32420000  0.90896000  0.79055000  1
  C  C148  1  0.34910000  0.05635000  0.66609000  1
  C  C149  1  0.34910000  0.94365000  0.83391000  1
  C  C150  1  0.36620000  0.26015000  0.85729000  1
  C  C151  1  0.36620000  0.73985000  0.64271000  1
  C  C152  1  0.38360000  0.15903000  0.71988000  1
  C  C153  1  0.38360000  0.84097000  0.78012000  1
  C  C154  1  0.42380000  0.31153000  0.40640000  1
  C  C155  1  0.42380000  0.68847000  0.09360000  1
  C  C156  1  0.42940000  0.08992000  0.63166000  1
  C  C157  1  0.42940000  0.91008000  0.86834000  1
  C  C158  1  0.43190000  0.45347000  0.44770000  1
  C  C159  1  0.43190000  0.54653000  0.05230000  1
  C  C160  1  0.45240000  0.05385000  0.58293000  1
  C  C161  1  0.45240000  0.94615000  0.91707000  1
  C  C162  1  0.46020000  0.42150000  0.92690000  1
  C  C163  1  0.46020000  0.57850000  0.57310000  1
  C  C164  1  0.46390000  0.35206000  0.90634000  1
  C  C165  1  0.46390000  0.64794000  0.59366000  1
  C  C166  1  0.46900000  0.18754000  0.68783000  1
  C  C167  1  0.46900000  0.81246000  0.81217000  1
  C  C168  1  0.48530000  0.15584000  0.64323000  1
  C  C169  1  0.48530000  0.84416000  0.85677000  1
  C  C170  1  0.51470000  0.15584000  0.14323000  1
  C  C171  1  0.51470000  0.84416000  0.35677000  1
  C  C172  1  0.53100000  0.18754000  0.18783000  1
  C  C173  1  0.53100000  0.81246000  0.31217000  1
  C  C174  1  0.53610000  0.35206000  0.40634000  1
  C  C175  1  0.53610000  0.64794000  0.09366000  1
  C  C176  1  0.53980000  0.42150000  0.42690000  1
  C  C177  1  0.53980000  0.57850000  0.07310000  1
  C  C178  1  0.54760000  0.05385000  0.08293000  1
  C  C179  1  0.54760000  0.94615000  0.41707000  1
  C  C180  1  0.56810000  0.45347000  0.94770000  1
  C  C181  1  0.56810000  0.54653000  0.55230000  1
  C  C182  1  0.57060000  0.08992000  0.13166000  1
  C  C183  1  0.57060000  0.91008000  0.36834000  1
  C  C184  1  0.57620000  0.31153000  0.90640000  1
  C  C185  1  0.57620000  0.68847000  0.59360000  1
  C  C186  1  0.61640000  0.15903000  0.21988000  1
  C  C187  1  0.61640000  0.84097000  0.28012000  1
  C  C188  1  0.63380000  0.26015000  0.35729000  1
  C  C189  1  0.63380000  0.73985000  0.14271000  1
  C  C190  1  0.65090000  0.05635000  0.16609000  1
  C  C191  1  0.65090000  0.94365000  0.33391000  1
  C  C192  1  0.67580000  0.09104000  0.20945000  1
  C  C193  1  0.67580000  0.90896000  0.29055000  1
  C  C194  1  0.68100000  0.41404000  0.94655000  1
  C  C195  1  0.68100000  0.58596000  0.55345000  1
  C  C196  1  0.68370000  0.34554000  0.92591000  1
  C  C197  1  0.68370000  0.65446000  0.57409000  1
  C  C198  1  0.70170000  0.05275000  0.96760000  1
  C  C199  1  0.70170000  0.94725000  0.53240000  1
  C  C200  1  0.73150000  0.18099000  0.29539000  1
  C  C201  1  0.73150000  0.81901000  0.20461000  1
  C  C202  1  0.75000000  0.25000000  0.32653000  1
  C  C203  1  0.75000000  0.75000000  0.17347000  1
  C  C204  1  0.76850000  0.31901000  0.29539000  1
  C  C205  1  0.76850000  0.68099000  0.20461000  1
  C  C206  1  0.79830000  0.44725000  0.96760000  1
  C  C207  1  0.79830000  0.55275000  0.53240000  1
  C  C208  1  0.81630000  0.15446000  0.92591000  1
  C  C209  1  0.81630000  0.84554000  0.57409000  1
  C  C210  1  0.81900000  0.08596000  0.94655000  1
  C  C211  1  0.81900000  0.91404000  0.55345000  1
  C  C212  1  0.82420000  0.40896000  0.20945000  1
  C  C213  1  0.82420000  0.59104000  0.29055000  1
  C  C214  1  0.84910000  0.44365000  0.16609000  1
  C  C215  1  0.84910000  0.55635000  0.33391000  1
  C  C216  1  0.86620000  0.23985000  0.35729000  1
  C  C217  1  0.86620000  0.76015000  0.14271000  1
  C  C218  1  0.88360000  0.34097000  0.21988000  1
  C  C219  1  0.88360000  0.65903000  0.28012000  1
  C  C220  1  0.92380000  0.18847000  0.90640000  1
  C  C221  1  0.92380000  0.81153000  0.59360000  1
  C  C222  1  0.92940000  0.41008000  0.13166000  1
  C  C223  1  0.92940000  0.58992000  0.36834000  1
  C  C224  1  0.93190000  0.04653000  0.94770000  1
  C  C225  1  0.93190000  0.95347000  0.55230000  1
  C  C226  1  0.95240000  0.44615000  0.08293000  1
  C  C227  1  0.95240000  0.55385000  0.41707000  1
  C  C228  1  0.96020000  0.07850000  0.42690000  1
  C  C229  1  0.96020000  0.92150000  0.07310000  1
  C  C230  1  0.96390000  0.14794000  0.40634000  1
  C  C231  1  0.96390000  0.85206000  0.09366000  1
  C  C232  1  0.96900000  0.31246000  0.18783000  1
  C  C233  1  0.96900000  0.68754000  0.31217000  1
  C  C234  1  0.98530000  0.34416000  0.14323000  1
  C  C235  1  0.98530000  0.65584000  0.35677000  1
  O  O236  1  0.01603000  0.40910000  0.05328000  1
  O  O237  1  0.01603000  0.59090000  0.44672000  1
  O  O238  1  0.09378000  0.48977000  0.92428000  1
  O  O239  1  0.09378000  0.51023000  0.57572000  1
  O  O240  1  0.10423000  0.40940000  0.46335000  1
  O  O241  1  0.10423000  0.59060000  0.03665000  1
  O  O242  1  0.12748000  0.30203000  0.76311000  1
  O  O243  1  0.12748000  0.69797000  0.73689000  1
  O  O244  1  0.14407000  0.17387000  0.88694000  1
  O  O245  1  0.14407000  0.82613000  0.61306000  1
  O  O246  1  0.21023000  0.48970000  0.01326000  1
  O  O247  1  0.21023000  0.51030000  0.48674000  1
  O  O248  1  0.28977000  0.01030000  0.01326000  1
  O  O249  1  0.28977000  0.98970000  0.48674000  1
  O  O250  1  0.35593000  0.32613000  0.88694000  1
  O  O251  1  0.35593000  0.67387000  0.61306000  1
  O  O252  1  0.37252000  0.19797000  0.76311000  1
  O  O253  1  0.37252000  0.80203000  0.73689000  1
  O  O254  1  0.39577000  0.09060000  0.46335000  1
  O  O255  1  0.39577000  0.90940000  0.03665000  1
  O  O256  1  0.40622000  0.01023000  0.92428000  1
  O  O257  1  0.40622000  0.98977000  0.57572000  1
  O  O258  1  0.48397000  0.09090000  0.05328000  1
  O  O259  1  0.48397000  0.90910000  0.44672000  1
  O  O260  1  0.51603000  0.09090000  0.55328000  1
  O  O261  1  0.51603000  0.90910000  0.94672000  1
  O  O262  1  0.59378000  0.01023000  0.42428000  1
  O  O263  1  0.59378000  0.98977000  0.07572000  1
  O  O264  1  0.60423000  0.09060000  0.96335000  1
  O  O265  1  0.60423000  0.90940000  0.53665000  1
  O  O266  1  0.62748000  0.19797000  0.26311000  1
  O  O267  1  0.62748000  0.80203000  0.23689000  1
  O  O268  1  0.64407000  0.32613000  0.38694000  1
  O  O269  1  0.64407000  0.67387000  0.11306000  1
  O  O270  1  0.71023000  0.01030000  0.51326000  1
  O  O271  1  0.71023000  0.98970000  0.98674000  1
  O  O272  1  0.78977000  0.48970000  0.51326000  1
  O  O273  1  0.78977000  0.51030000  0.98674000  1
  O  O274  1  0.85593000  0.17387000  0.38694000  1
  O  O275  1  0.85593000  0.82613000  0.11306000  1
  O  O276  1  0.87252000  0.30203000  0.26311000  1
  O  O277  1  0.87252000  0.69797000  0.23689000  1
  O  O278  1  0.89577000  0.40940000  0.96335000  1
  O  O279  1  0.89577000  0.59060000  0.53665000  1
  O  O280  1  0.90622000  0.48977000  0.42428000  1
  O  O281  1  0.90622000  0.51023000  0.07572000  1
  O  O282  1  0.98397000  0.40910000  0.55328000  1
  O  O283  1  0.98397000  0.59090000  0.94672000  1
