# generated using pymatgen
data_CeH3C7NO4
_symmetry_space_group_name_H-M   'P 1'
_cell_length_a   15.68550000
_cell_length_b   17.25815766
_cell_length_c   17.89859460
_cell_angle_alpha   77.75237235
_cell_angle_beta   64.01238456
_cell_angle_gamma   62.97126716
_symmetry_Int_Tables_number   1
_chemical_formula_structural   CeH3C7NO4
_chemical_formula_sum   'Ce8 H24 C56 N8 O32'
_cell_volume   3879.09282076
_cell_formula_units_Z   8
loop_
 _symmetry_equiv_pos_site_id
 _symmetry_equiv_pos_as_xyz
  1  'x, y, z'
loop_
 _atom_site_type_symbol
 _atom_site_label
 _atom_site_symmetry_multiplicity
 _atom_site_fract_x
 _atom_site_fract_y
 _atom_site_fract_z
 _atom_site_occupancy
  C  C0  1  0.74440000  0.86080000  0.07000000  1
  C  C1  1  0.32480000  0.36080000  0.57000000  1
  C  C2  1  0.90830000  0.88890000  0.00470000  1
  C  C3  1  0.19810000  0.38890000  0.50470000  1
  C  C4  1  0.85610000  0.83900000  0.01200000  1
  C  C5  1  0.29290000  0.33900000  0.51200000  1
  C  C6  1  0.00930000  0.86620000  0.94680000  1
  C  C7  1  0.17770000  0.36620000  0.44680000  1
  C  C8  1  0.70350000  0.54650000  0.15450000  1
  C  C9  1  0.59550000  0.04650000  0.65450000  1
  C  C10  1  0.05410000  0.79630000  0.89590000  1
  C  C11  1  0.25370000  0.29630000  0.39590000  1
  C  C12  1  0.70500000  0.82790000  0.84530000  1
  C  C13  1  0.62180000  0.32790000  0.34530000  1
  C  C14  1  0.99730000  0.74920000  0.90720000  1
  C  C15  1  0.34630000  0.24920000  0.40720000  1
  C  C16  1  0.68810000  0.97870000  0.67090000  1
  C  C17  1  0.66230000  0.47870000  0.17090000  1
  C  C18  1  0.74010000  0.86940000  0.76140000  1
  C  C19  1  0.62910000  0.36940000  0.26140000  1
  C  C20  1  0.78880000  0.95870000  0.61670000  1
  C  C21  1  0.63580000  0.45870000  0.11670000  1
  C  C22  1  0.84400000  0.84180000  0.70720000  1
  C  C23  1  0.60700000  0.34180000  0.20720000  1
  C  C24  1  0.03790000  0.67290000  0.85350000  1
  C  C25  1  0.43570000  0.17290000  0.35350000  1
  C  C26  1  0.86890000  0.88840000  0.63280000  1
  C  C27  1  0.60990000  0.38840000  0.13280000  1
  C  C28  1  0.13110000  0.11160000  0.36720000  1
  C  C29  1  0.39010000  0.61160000  0.86720000  1
  C  C30  1  0.96210000  0.32710000  0.14650000  1
  C  C31  1  0.56430000  0.82710000  0.64650000  1
  C  C32  1  0.15600000  0.15820000  0.29280000  1
  C  C33  1  0.39300000  0.65820000  0.79280000  1
  C  C34  1  0.21120000  0.04130000  0.38330000  1
  C  C35  1  0.36420000  0.54130000  0.88330000  1
  C  C36  1  0.25990000  0.13060000  0.23860000  1
  C  C37  1  0.37090000  0.63060000  0.73860000  1
  C  C38  1  0.31190000  0.02130000  0.32910000  1
  C  C39  1  0.33770000  0.52130000  0.82910000  1
  C  C40  1  0.00270000  0.25080000  0.09280000  1
  C  C41  1  0.65370000  0.75080000  0.59280000  1
  C  C42  1  0.29500000  0.17210000  0.15470000  1
  C  C43  1  0.37820000  0.67210000  0.65470000  1
  C  C44  1  0.94590000  0.20370000  0.10410000  1
  C  C45  1  0.74630000  0.70370000  0.60410000  1
  C  C46  1  0.29650000  0.45350000  0.84550000  1
  C  C47  1  0.40450000  0.95350000  0.34550000  1
  C  C48  1  0.99070000  0.13380000  0.05320000  1
  C  C49  1  0.82230000  0.63380000  0.55320000  1
  C  C50  1  0.14390000  0.16100000  0.98800000  1
  C  C51  1  0.70710000  0.66100000  0.48800000  1
  C  C52  1  0.09170000  0.11110000  0.99530000  1
  C  C53  1  0.80190000  0.61110000  0.49530000  1
  C  C54  1  0.25560000  0.13920000  0.93000000  1
  C  C55  1  0.67520000  0.63920000  0.43000000  1
  Ce  Ce56  1  0.74777000  0.45093000  0.32787000  1
  Ce  Ce57  1  0.47343000  0.95093000  0.82787000  1
  Ce  Ce58  1  0.79771000  0.67615000  0.98629000  1
  Ce  Ce59  1  0.53985000  0.17615000  0.48629000  1
  Ce  Ce60  1  0.20229000  0.32385000  0.01371000  1
  Ce  Ce61  1  0.46015000  0.82385000  0.51371000  1
  Ce  Ce62  1  0.25223000  0.54907000  0.67213000  1
  Ce  Ce63  1  0.52657000  0.04907000  0.17213000  1
  H  H64  1  0.87520000  0.93770000  0.03910000  1
  H  H65  1  0.14800000  0.43770000  0.53910000  1
  H  H66  1  0.04720000  0.89830000  0.94190000  1
  H  H67  1  0.11260000  0.39830000  0.44190000  1
  H  H68  1  0.12250000  0.78060000  0.85420000  1
  H  H69  1  0.24270000  0.28060000  0.35420000  1
  H  H70  1  0.80400000  0.99310000  0.56770000  1
  H  H71  1  0.63520000  0.49310000  0.06770000  1
  H  H72  1  0.06100000  0.12760000  0.40580000  1
  H  H73  1  0.40560000  0.62760000  0.90580000  1
  H  H74  1  0.89660000  0.79260000  0.72040000  1
  H  H75  1  0.59040000  0.29260000  0.22040000  1
  H  H76  1  0.10340000  0.20740000  0.27960000  1
  H  H77  1  0.40960000  0.70740000  0.77960000  1
  H  H78  1  0.93900000  0.87240000  0.59420000  1
  H  H79  1  0.59440000  0.37240000  0.09420000  1
  H  H80  1  0.19600000  0.00690000  0.43230000  1
  H  H81  1  0.36480000  0.50690000  0.93230000  1
  H  H82  1  0.87750000  0.21940000  0.14580000  1
  H  H83  1  0.75730000  0.71940000  0.64580000  1
  H  H84  1  0.95280000  0.10170000  0.05810000  1
  H  H85  1  0.88740000  0.60170000  0.55810000  1
  H  H86  1  0.12480000  0.06230000  0.96090000  1
  H  H87  1  0.85200000  0.56230000  0.46090000  1
  N  N88  1  0.90070000  0.76930000  0.96410000  1
  N  N89  1  0.36590000  0.26930000  0.46410000  1
  N  N90  1  0.66440000  0.93360000  0.74240000  1
  N  N91  1  0.65960000  0.43360000  0.24240000  1
  N  N92  1  0.33560000  0.06640000  0.25760000  1
  N  N93  1  0.34040000  0.56640000  0.75760000  1
  N  N94  1  0.09930000  0.23070000  0.03590000  1
  N  N95  1  0.63410000  0.73070000  0.53590000  1
  O  O96  1  0.73707000  0.57216000  0.38750000  1
  O  O97  1  0.30327000  0.07216000  0.88750000  1
  O  O98  1  0.70420000  0.81230000  0.06950000  1
  O  O99  1  0.41400000  0.31230000  0.56950000  1
  O  O100  1  0.73930000  0.54950000  0.20490000  1
  O  O101  1  0.50630000  0.04950000  0.70490000  1
  O  O102  1  0.66010000  0.34930000  0.38250000  1
  O  O103  1  0.60810000  0.84930000  0.88250000  1
  O  O104  1  0.70400000  0.59320000  0.09160000  1
  O  O105  1  0.61120000  0.09320000  0.59160000  1
  O  O106  1  0.77200000  0.77790000  0.87290000  1
  O  O107  1  0.57720000  0.27790000  0.37290000  1
  O  O108  1  0.87520000  0.34600000  0.20560000  1
  O  O109  1  0.57320000  0.84600000  0.70560000  1
  O  O110  1  0.98089000  0.63322000  0.87340000  1
  O  O111  1  0.51249000  0.13322000  0.37340000  1
  O  O112  1  0.01911000  0.36678000  0.12660000  1
  O  O113  1  0.48751000  0.86678000  0.62660000  1
  O  O114  1  0.12480000  0.65400000  0.79440000  1
  O  O115  1  0.42680000  0.15400000  0.29440000  1
  O  O116  1  0.22800000  0.22210000  0.12710000  1
  O  O117  1  0.42280000  0.72210000  0.62710000  1
  O  O118  1  0.29600000  0.40680000  0.90840000  1
  O  O119  1  0.38880000  0.90680000  0.40840000  1
  O  O120  1  0.33990000  0.65070000  0.61750000  1
  O  O121  1  0.39190000  0.15070000  0.11750000  1
  O  O122  1  0.26070000  0.45050000  0.79510000  1
  O  O123  1  0.49370000  0.95050000  0.29510000  1
  O  O124  1  0.29580000  0.18770000  0.93050000  1
  O  O125  1  0.58600000  0.68770000  0.43050000  1
  O  O126  1  0.26293000  0.42784000  0.61250000  1
  O  O127  1  0.69673000  0.92784000  0.11250000  1
