# generated using pymatgen
data_ZnH22C17(N3O)2
_symmetry_space_group_name_H-M   'P 1'
_cell_length_a   8.30100000
_cell_length_b   11.14600000
_cell_length_c   13.36300000
_cell_angle_alpha   86.42700000
_cell_angle_beta   84.12200000
_cell_angle_gamma   83.57300000
_symmetry_Int_Tables_number   1
_chemical_formula_structural   ZnH22C17(N3O)2
_chemical_formula_sum   'Zn2 H44 C34 N12 O4'
_cell_volume   1220.53543097
_cell_formula_units_Z   2
loop_
 _symmetry_equiv_pos_site_id
 _symmetry_equiv_pos_as_xyz
  1  'x, y, z'
loop_
 _atom_site_type_symbol
 _atom_site_label
 _atom_site_symmetry_multiplicity
 _atom_site_fract_x
 _atom_site_fract_y
 _atom_site_fract_z
 _atom_site_occupancy
  Zn  Zn0  1  0.05618000  0.68803000  0.20483000  1
  Zn  Zn1  1  0.94382000  0.31197000  0.79517000  1
  H  H2  1  0.06900000  0.36910000  0.00240000  1
  H  H3  1  0.09920000  0.38870000  0.57130000  1
  H  H4  1  0.10670000  0.55190000  0.82020000  1
  H  H5  1  0.12810000  0.05960000  0.87430000  1
  H  H6  1  0.15930000  0.90670000  0.32230000  1
  H  H7  1  0.20700000  0.22170000  0.11580000  1
  H  H8  1  0.22410000  0.96490000  0.11400000  1
  H  H9  1  0.24010000  0.65580000  0.47450000  1
  H  H10  1  0.24900000  0.52140000  0.44360000  1
  H  H11  1  0.25530000  0.92000000  0.00410000  1
  H  H12  1  0.25620000  0.66350000  0.68660000  1
  H  H13  1  0.36580000  0.92970000  0.50990000  1
  H  H14  1  0.37270000  0.04480000  0.35810000  1
  H  H15  1  0.38410000  0.23670000  0.72060000  1
  H  H16  1  0.40540000  0.40840000  0.02890000  1
  H  H17  1  0.44270000  0.63050000  0.21420000  1
  H  H18  1  0.44380000  0.00340000  0.66770000  1
  H  H19  1  0.45300000  0.12450000  0.51640000  1
  H  H20  1  0.47200000  0.04620000  0.09610000  1
  H  H21  1  0.48790000  0.40570000  0.57060000  1
  H  H22  1  0.49340000  0.60730000  0.54620000  1
  H  H23  1  0.49940000  0.09190000  0.92350000  1
  H  H24  1  0.50060000  0.90810000  0.07650000  1
  H  H25  1  0.50660000  0.39270000  0.45380000  1
  H  H26  1  0.51210000  0.59430000  0.42940000  1
  H  H27  1  0.52800000  0.95380000  0.90390000  1
  H  H28  1  0.54700000  0.87550000  0.48360000  1
  H  H29  1  0.55620000  0.99660000  0.33230000  1
  H  H30  1  0.55730000  0.36950000  0.78580000  1
  H  H31  1  0.59460000  0.59160000  0.97110000  1
  H  H32  1  0.61590000  0.76330000  0.27940000  1
  H  H33  1  0.62730000  0.95520000  0.64190000  1
  H  H34  1  0.63420000  0.07030000  0.49010000  1
  H  H35  1  0.74380000  0.33650000  0.31340000  1
  H  H36  1  0.74470000  0.08000000  0.99590000  1
  H  H37  1  0.75100000  0.47860000  0.55640000  1
  H  H38  1  0.75990000  0.34420000  0.52550000  1
  H  H39  1  0.77590000  0.03510000  0.88600000  1
  H  H40  1  0.79300000  0.77830000  0.88420000  1
  H  H41  1  0.84070000  0.09330000  0.67770000  1
  H  H42  1  0.87190000  0.94040000  0.12570000  1
  H  H43  1  0.89330000  0.44810000  0.17980000  1
  H  H44  1  0.90080000  0.61130000  0.42870000  1
  H  H45  1  0.93100000  0.63090000  0.99760000  1
  C  C46  1  0.09840000  0.28790000  0.99050000  1
  C  C47  1  0.11910000  0.44330000  0.61730000  1
  C  C48  1  0.12380000  0.53240000  0.75300000  1
  C  C49  1  0.13020000  0.11890000  0.92000000  1
  C  C50  1  0.17430000  0.20710000  0.05360000  1
  C  C51  1  0.20580000  0.59450000  0.67950000  1
  C  C52  1  0.25080000  0.85440000  0.30270000  1
  C  C53  1  0.27340000  0.98360000  0.04670000  1
  C  C54  1  0.27890000  0.57290000  0.49310000  1
  C  C55  1  0.29710000  0.58510000  0.05290000  1
  C  C56  1  0.40710000  0.70330000  0.24390000  1
  C  C57  1  0.42770000  0.48850000  0.02020000  1
  C  C58  1  0.45300000  0.97540000  0.36550000  1
  C  C59  1  0.45490000  0.98610000  0.04990000  1
  C  C60  1  0.46520000  0.56050000  0.49300000  1
  C  C61  1  0.47020000  0.94690000  0.47580000  1
  C  C62  1  0.49670000  0.22400000  0.72040000  1
  C  C63  1  0.50330000  0.77600000  0.27960000  1
  C  C64  1  0.52980000  0.05310000  0.52420000  1
  C  C65  1  0.53480000  0.43950000  0.50700000  1
  C  C66  1  0.54510000  0.01390000  0.95010000  1
  C  C67  1  0.54700000  0.02460000  0.63450000  1
  C  C68  1  0.57230000  0.51150000  0.97980000  1
  C  C69  1  0.59290000  0.29670000  0.75610000  1
  C  C70  1  0.70290000  0.41490000  0.94710000  1
  C  C71  1  0.72110000  0.42710000  0.50690000  1
  C  C72  1  0.72660000  0.01640000  0.95330000  1
  C  C73  1  0.74920000  0.14560000  0.69730000  1
  C  C74  1  0.79420000  0.40550000  0.32050000  1
  C  C75  1  0.82570000  0.79290000  0.94640000  1
  C  C76  1  0.86980000  0.88110000  0.08000000  1
  C  C77  1  0.87620000  0.46760000  0.24700000  1
  C  C78  1  0.88090000  0.55670000  0.38270000  1
  C  C79  1  0.90160000  0.71210000  0.00950000  1
  N  N80  1  0.06930000  0.43570000  0.71382000  1
  N  N81  1  0.07060000  0.23250000  0.90574000  1
  N  N82  1  0.19390000  0.09920000  0.00802000  1
  N  N83  1  0.20150000  0.53860000  0.59340000  1
  N  N84  1  0.24630000  0.75300000  0.25794000  1
  N  N85  1  0.40310000  0.87280000  0.31637000  1
  N  N86  1  0.59690000  0.12720000  0.68363000  1
  N  N87  1  0.75370000  0.24700000  0.74206000  1
  N  N88  1  0.79850000  0.46140000  0.40660000  1
  N  N89  1  0.80610000  0.90080000  0.99198000  1
  N  N90  1  0.92940000  0.76750000  0.09426000  1
  N  N91  1  0.93070000  0.56430000  0.28618000  1
  O  O92  1  0.19320000  0.55280000  0.12438000  1
  O  O93  1  0.29700000  0.68850000  0.01461000  1
  O  O94  1  0.70300000  0.31150000  0.98539000  1
  O  O95  1  0.80680000  0.44720000  0.87562000  1
