# generated using pymatgen
data_ZnGeP3(HO4)3
_symmetry_space_group_name_H-M   'P 1'
_cell_length_a   9.57600000
_cell_length_b   9.98200000
_cell_length_c   10.00000000
_cell_angle_alpha   107.67000000
_cell_angle_beta   97.96000000
_cell_angle_gamma   114.87000000
_symmetry_Int_Tables_number   1
_chemical_formula_structural   ZnGeP3(HO4)3
_chemical_formula_sum   'Zn2 Ge2 P6 H6 O24'
_cell_volume   786.18298212
_cell_formula_units_Z   2
loop_
 _symmetry_equiv_pos_site_id
 _symmetry_equiv_pos_as_xyz
  1  'x, y, z'
loop_
 _atom_site_type_symbol
 _atom_site_label
 _atom_site_symmetry_multiplicity
 _atom_site_fract_x
 _atom_site_fract_y
 _atom_site_fract_z
 _atom_site_occupancy
  Zn  Zn0  1  0.68782000  0.20884000  0.65898000  1
  Zn  Zn1  1  0.31218000  0.79116000  0.34102000  1
  Ge  Ge2  1  0.86359000  0.03306000  0.11545000  1
  Ge  Ge3  1  0.13641000  0.96694000  0.88455000  1
  P  P4  1  0.33620000  0.02840000  0.65950000  1
  P  P5  1  0.84610000  0.03010000  0.80710000  1
  P  P6  1  0.17460000  0.40020000  0.22910000  1
  P  P7  1  0.82540000  0.59980000  0.77090000  1
  P  P8  1  0.15390000  0.96990000  0.19290000  1
  P  P9  1  0.66380000  0.97160000  0.34050000  1
  H  H10  1  0.19220000  0.07760000  0.50270000  1
  H  H11  1  0.26010000  0.20550000  0.44060000  1
  H  H12  1  0.38160000  0.39240000  0.39950000  1
  H  H13  1  0.61840000  0.60760000  0.60050000  1
  H  H14  1  0.73990000  0.79450000  0.55940000  1
  H  H15  1  0.80780000  0.92240000  0.49730000  1
  O  O16  1  0.69540000  0.00280000  0.20460000  1
  O  O17  1  0.24450000  0.03640000  0.09330000  1
  O  O18  1  0.18870000  0.04730000  0.59150000  1
  O  O19  1  0.02830000  0.09390000  0.87060000  1
  O  O20  1  0.66080000  0.11250000  0.45140000  1
  O  O21  1  0.22040000  0.11750000  0.34810000  1
  O  O22  1  0.82130000  0.15930000  0.77880000  1
  O  O23  1  0.49370000  0.18640000  0.70220000  1
  O  O24  1  0.00520000  0.26380000  0.19430000  1
  O  O25  1  0.21990000  0.38410000  0.07860000  1
  O  O26  1  0.30210000  0.39550000  0.33380000  1
  O  O27  1  0.83050000  0.44270000  0.71260000  1
  O  O28  1  0.16950000  0.55730000  0.28740000  1
  O  O29  1  0.69790000  0.60450000  0.66620000  1
  O  O30  1  0.78010000  0.61590000  0.92140000  1
  O  O31  1  0.99480000  0.73620000  0.80570000  1
  O  O32  1  0.50630000  0.81360000  0.29780000  1
  O  O33  1  0.17870000  0.84070000  0.22120000  1
  O  O34  1  0.77960000  0.88250000  0.65190000  1
  O  O35  1  0.33920000  0.88750000  0.54860000  1
  O  O36  1  0.97170000  0.90610000  0.12940000  1
  O  O37  1  0.81130000  0.95270000  0.40850000  1
  O  O38  1  0.75550000  0.96360000  0.90670000  1
  O  O39  1  0.30460000  0.99720000  0.79540000  1
