# generated using pymatgen
data_PrH2C7(NO3)2
_symmetry_space_group_name_H-M   'P 1'
_cell_length_a   11.00800000
_cell_length_b   12.00200000
_cell_length_c   19.47300000
_cell_angle_alpha   90.00000000
_cell_angle_beta   90.00000000
_cell_angle_gamma   90.00000000
_symmetry_Int_Tables_number   1
_chemical_formula_structural   PrH2C7(NO3)2
_chemical_formula_sum   'Pr8 H16 C56 N16 O48'
_cell_volume   2572.73412557
_cell_formula_units_Z   8
loop_
 _symmetry_equiv_pos_site_id
 _symmetry_equiv_pos_as_xyz
  1  'x, y, z'
loop_
 _atom_site_type_symbol
 _atom_site_label
 _atom_site_symmetry_multiplicity
 _atom_site_fract_x
 _atom_site_fract_y
 _atom_site_fract_z
 _atom_site_occupancy
  Pr  Pr0  1  0.11772000  0.97717000  0.86248000  1
  Pr  Pr1  1  0.13620000  0.34101000  0.14838000  1
  Pr  Pr2  1  0.36380000  0.84101000  0.14838000  1
  Pr  Pr3  1  0.38228000  0.47717000  0.86248000  1
  Pr  Pr4  1  0.61772000  0.52283000  0.36248000  1
  Pr  Pr5  1  0.63620000  0.15899000  0.64838000  1
  Pr  Pr6  1  0.86380000  0.65899000  0.64838000  1
  Pr  Pr7  1  0.88228000  0.02283000  0.36248000  1
  H  H8  1  0.00600000  0.75520000  0.24850000  1
  H  H9  1  0.12960000  0.60160000  0.75970000  1
  H  H10  1  0.15110000  0.99200000  0.25660000  1
  H  H11  1  0.23130000  0.23940000  0.41590000  1
  H  H12  1  0.26870000  0.73940000  0.41590000  1
  H  H13  1  0.34890000  0.49200000  0.25660000  1
  H  H14  1  0.37040000  0.10160000  0.75970000  1
  H  H15  1  0.49400000  0.25520000  0.24850000  1
  H  H16  1  0.50600000  0.74480000  0.74850000  1
  H  H17  1  0.62960000  0.89840000  0.25970000  1
  H  H18  1  0.65110000  0.50800000  0.75660000  1
  H  H19  1  0.73130000  0.26060000  0.91590000  1
  H  H20  1  0.76870000  0.76060000  0.91590000  1
  H  H21  1  0.84890000  0.00800000  0.75660000  1
  H  H22  1  0.87040000  0.39840000  0.25970000  1
  H  H23  1  0.99400000  0.24480000  0.74850000  1
  C  C24  1  0.02080000  0.31810000  0.75190000  1
  C  C25  1  0.04120000  0.59480000  0.22250000  1
  C  C26  1  0.05320000  0.83070000  0.45060000  1
  C  C27  1  0.08620000  0.22850000  0.30430000  1
  C  C28  1  0.10170000  0.52850000  0.75820000  1
  C  C29  1  0.12610000  0.34630000  0.78720000  1
  C  C30  1  0.13630000  0.84960000  0.38980000  1
  C  C31  1  0.16060000  0.61450000  0.18450000  1
  C  C32  1  0.17260000  0.93720000  0.28810000  1
  C  C33  1  0.17770000  0.88350000  0.01780000  1
  C  C34  1  0.19260000  0.30270000  0.32260000  1
  C  C35  1  0.20010000  0.43550000  0.99380000  1
  C  C36  1  0.20340000  0.25690000  0.82220000  1
  C  C37  1  0.24250000  0.78840000  0.38200000  1
  C  C38  1  0.25750000  0.28840000  0.38200000  1
  C  C39  1  0.29660000  0.75690000  0.82220000  1
  C  C40  1  0.29990000  0.93550000  0.99380000  1
  C  C41  1  0.30740000  0.80270000  0.32260000  1
  C  C42  1  0.32230000  0.38350000  0.01780000  1
  C  C43  1  0.32740000  0.43720000  0.28810000  1
  C  C44  1  0.33940000  0.11450000  0.18450000  1
  C  C45  1  0.36370000  0.34960000  0.38980000  1
  C  C46  1  0.37390000  0.84630000  0.78720000  1
  C  C47  1  0.39830000  0.02850000  0.75820000  1
  C  C48  1  0.41380000  0.72850000  0.30430000  1
  C  C49  1  0.44680000  0.33070000  0.45060000  1
  C  C50  1  0.45880000  0.09480000  0.22250000  1
  C  C51  1  0.47920000  0.81810000  0.75190000  1
  C  C52  1  0.52080000  0.18190000  0.25190000  1
  C  C53  1  0.54120000  0.90520000  0.72250000  1
  C  C54  1  0.55320000  0.66930000  0.95060000  1
  C  C55  1  0.58620000  0.27150000  0.80430000  1
  C  C56  1  0.60170000  0.97150000  0.25820000  1
  C  C57  1  0.62610000  0.15370000  0.28720000  1
  C  C58  1  0.63630000  0.65040000  0.88980000  1
  C  C59  1  0.66060000  0.88550000  0.68450000  1
  C  C60  1  0.67260000  0.56280000  0.78810000  1
  C  C61  1  0.67770000  0.61650000  0.51780000  1
  C  C62  1  0.69260000  0.19730000  0.82260000  1
  C  C63  1  0.70010000  0.06450000  0.49380000  1
  C  C64  1  0.70340000  0.24310000  0.32220000  1
  C  C65  1  0.74250000  0.71160000  0.88200000  1
  C  C66  1  0.75750000  0.21160000  0.88200000  1
  C  C67  1  0.79660000  0.74310000  0.32220000  1
  C  C68  1  0.79990000  0.56450000  0.49380000  1
  C  C69  1  0.80740000  0.69730000  0.82260000  1
  C  C70  1  0.82230000  0.11650000  0.51780000  1
  C  C71  1  0.82740000  0.06280000  0.78810000  1
  C  C72  1  0.83940000  0.38550000  0.68450000  1
  C  C73  1  0.86370000  0.15040000  0.88980000  1
  C  C74  1  0.87390000  0.65370000  0.28720000  1
  C  C75  1  0.89830000  0.47150000  0.25820000  1
  C  C76  1  0.91380000  0.77150000  0.80430000  1
  C  C77  1  0.94680000  0.16930000  0.95060000  1
  C  C78  1  0.95880000  0.40520000  0.72250000  1
  C  C79  1  0.97920000  0.68190000  0.25190000  1
  N  N80  1  0.00040000  0.49060000  0.22310000  1
  N  N81  1  0.10120000  0.92410000  0.34290000  1
  N  N82  1  0.16670000  0.45250000  0.79120000  1
  N  N83  1  0.22740000  0.37750000  0.27490000  1
  N  N84  1  0.27260000  0.87750000  0.27490000  1
  N  N85  1  0.33333333  0.95250000  0.79120000  1
  N  N86  1  0.39880000  0.42410000  0.34290000  1
  N  N87  1  0.49960000  0.99060000  0.22310000  1
  N  N88  1  0.50040000  0.00940000  0.72310000  1
  N  N89  1  0.60120000  0.57590000  0.84290000  1
  N  N90  1  0.66666667  0.04750000  0.29120000  1
  N  N91  1  0.72740000  0.12250000  0.77490000  1
  N  N92  1  0.77260000  0.62250000  0.77490000  1
  N  N93  1  0.83330000  0.54750000  0.29120000  1
  N  N94  1  0.89880000  0.07590000  0.84290000  1
  N  N95  1  0.99960000  0.50940000  0.72310000  1
  O  O96  1  0.04170000  0.10860000  0.95290000  1
  O  O97  1  0.04470000  0.23730000  0.24440000  1
  O  O98  1  0.05090000  0.16150000  0.34980000  1
  O  O99  1  0.08420000  0.76010000  0.49180000  1
  O  O100  1  0.09220000  0.88110000  0.97470000  1
  O  O101  1  0.11060000  0.42140000  0.03170000  1
  O  O102  1  0.16580000  0.15880000  0.81790000  1
  O  O103  1  0.17400000  0.84780000  0.07810000  1
  O  O104  1  0.20050000  0.78660000  0.85030000  1
  O  O105  1  0.20400000  0.48930000  0.93840000  1
  O  O106  1  0.20540000  0.71110000  0.19090000  1
  O  O107  1  0.20860000  0.53440000  0.15320000  1
  O  O108  1  0.29140000  0.03440000  0.15320000  1
  O  O109  1  0.29460000  0.21110000  0.19090000  1
  O  O110  1  0.29600000  0.98930000  0.93840000  1
  O  O111  1  0.29950000  0.28660000  0.85030000  1
  O  O112  1  0.32600000  0.34780000  0.07810000  1
  O  O113  1  0.33420000  0.65880000  0.81790000  1
  O  O114  1  0.38940000  0.92140000  0.03170000  1
  O  O115  1  0.40780000  0.38110000  0.97470000  1
  O  O116  1  0.41580000  0.26010000  0.49180000  1
  O  O117  1  0.44910000  0.66150000  0.34980000  1
  O  O118  1  0.45530000  0.73730000  0.24440000  1
  O  O119  1  0.45830000  0.60860000  0.95290000  1
  O  O120  1  0.54170000  0.39140000  0.45290000  1
  O  O121  1  0.54470000  0.26270000  0.74440000  1
  O  O122  1  0.55090000  0.33850000  0.84980000  1
  O  O123  1  0.58420000  0.73990000  0.99180000  1
  O  O124  1  0.59220000  0.61890000  0.47470000  1
  O  O125  1  0.61060000  0.07860000  0.53170000  1
  O  O126  1  0.66580000  0.34120000  0.31790000  1
  O  O127  1  0.67400000  0.65220000  0.57810000  1
  O  O128  1  0.70050000  0.71340000  0.35030000  1
  O  O129  1  0.70400000  0.01070000  0.43840000  1
  O  O130  1  0.70540000  0.78890000  0.69090000  1
  O  O131  1  0.70860000  0.96560000  0.65320000  1
  O  O132  1  0.79140000  0.46560000  0.65320000  1
  O  O133  1  0.79460000  0.28890000  0.69090000  1
  O  O134  1  0.79600000  0.51070000  0.43840000  1
  O  O135  1  0.79950000  0.21340000  0.35030000  1
  O  O136  1  0.82600000  0.15220000  0.57810000  1
  O  O137  1  0.83420000  0.84120000  0.31790000  1
  O  O138  1  0.88940000  0.57860000  0.53170000  1
  O  O139  1  0.90780000  0.11890000  0.47470000  1
  O  O140  1  0.91580000  0.23990000  0.99180000  1
  O  O141  1  0.94910000  0.83850000  0.84980000  1
  O  O142  1  0.95530000  0.76270000  0.74440000  1
  O  O143  1  0.95830000  0.89140000  0.45290000  1
