# generated using pymatgen
data_CuH6(C7O2)2
_symmetry_space_group_name_H-M   'P 1'
_cell_length_a   18.79670000
_cell_length_b   18.79670000
_cell_length_c   19.71946311
_cell_angle_alpha   61.53624484
_cell_angle_beta   61.53624484
_cell_angle_gamma   60.00000000
_symmetry_Int_Tables_number   1
_chemical_formula_structural   CuH6(C7O2)2
_chemical_formula_sum   'Cu6 H36 C84 O24'
_cell_volume   5037.86811972
_cell_formula_units_Z   6
loop_
 _symmetry_equiv_pos_site_id
 _symmetry_equiv_pos_as_xyz
  1  'x, y, z'
loop_
 _atom_site_type_symbol
 _atom_site_label
 _atom_site_symmetry_multiplicity
 _atom_site_fract_x
 _atom_site_fract_y
 _atom_site_fract_z
 _atom_site_occupancy
  C  C0  1  0.57345000  0.42655000  1.00000000  1
  C  C1  1  0.42655000  0.57345000  1.00000000  1
  C  C2  1  0.50677000  0.43487000  0.07039000  1
  C  C3  1  0.43487000  0.50677000  0.07039000  1
  C  C4  1  0.57362000  0.02672000  0.55974000  1
  C  C5  1  0.02672000  0.57362000  0.55974000  1
  C  C6  1  0.48672000  0.37972000  0.15004000  1
  C  C7  1  0.37972000  0.48672000  0.15004000  1
  C  C8  1  0.41820000  0.41820000  0.18850000  1
  C  C9  1  0.96853000  0.38033000  0.40021000  1
  C  C10  1  0.38033000  0.96853000  0.40021000  1
  C  C11  1  0.97144000  0.41944000  0.31918000  1
  C  C12  1  0.41944000  0.97144000  0.31918000  1
  C  C13  1  0.37415000  0.37415000  0.28060000  1
  C  C14  1  0.41944000  0.28994000  0.31918000  1
  C  C15  1  0.28994000  0.41944000  0.31918000  1
  C  C16  1  0.00000000  0.57345000  0.00000000  1
  C  C17  1  0.57345000  0.00000000  0.00000000  1
  C  C18  1  0.02672000  0.83992000  0.55974000  1
  C  C19  1  0.83992000  0.02672000  0.55974000  1
  C  C20  1  0.98352000  0.48672000  0.15004000  1
  C  C21  1  0.48672000  0.98352000  0.15004000  1
  C  C22  1  0.38033000  0.25093000  0.40021000  1
  C  C23  1  0.25093000  0.38033000  0.40021000  1
  C  C24  1  0.96540000  0.29825000  0.43810000  1
  C  C25  1  0.29825000  0.96540000  0.43810000  1
  C  C26  1  0.29825000  0.29825000  0.43810000  1
  C  C27  1  0.42638000  0.16008000  0.44026000  1
  C  C28  1  0.16008000  0.42638000  0.44026000  1
  C  C29  1  0.98797000  0.50677000  0.07039000  1
  C  C30  1  0.50677000  0.98797000  0.07039000  1
  C  C31  1  0.01648000  0.62028000  0.84996000  1
  C  C32  1  0.62028000  0.01648000  0.84996000  1
  C  C33  1  0.97110000  0.37415000  0.28060000  1
  C  C34  1  0.37415000  0.97110000  0.28060000  1
  C  C35  1  0.01203000  0.56513000  0.92961000  1
  C  C36  1  0.56513000  0.01203000  0.92961000  1
  C  C37  1  0.02856000  0.71006000  0.68082000  1
  C  C38  1  0.71006000  0.02856000  0.68082000  1
  C  C39  1  0.97510000  0.41820000  0.18850000  1
  C  C40  1  0.41820000  0.97510000  0.18850000  1
  C  C41  1  0.03147000  0.74907000  0.59979000  1
  C  C42  1  0.74907000  0.03147000  0.59979000  1
  C  C43  1  0.96853000  0.25093000  0.40021000  1
  C  C44  1  0.25093000  0.96853000  0.40021000  1
  C  C45  1  0.02490000  0.58180000  0.81150000  1
  C  C46  1  0.58180000  0.02490000  0.81150000  1
  C  C47  1  0.97144000  0.28994000  0.31918000  1
  C  C48  1  0.28994000  0.97144000  0.31918000  1
  C  C49  1  0.98797000  0.43487000  0.07039000  1
  C  C50  1  0.43487000  0.98797000  0.07039000  1
  C  C51  1  0.02890000  0.62585000  0.71940000  1
  C  C52  1  0.62585000  0.02890000  0.71940000  1
  C  C53  1  0.98352000  0.37972000  0.15004000  1
  C  C54  1  0.37972000  0.98352000  0.15004000  1
  C  C55  1  0.01203000  0.49323000  0.92961000  1
  C  C56  1  0.49323000  0.01203000  0.92961000  1
  C  C57  1  0.57362000  0.83992000  0.55974000  1
  C  C58  1  0.83992000  0.57362000  0.55974000  1
  C  C59  1  0.70175000  0.70175000  0.56190000  1
  C  C60  1  0.03460000  0.70175000  0.56190000  1
  C  C61  1  0.70175000  0.03460000  0.56190000  1
  C  C62  1  0.74907000  0.61967000  0.59979000  1
  C  C63  1  0.61967000  0.74907000  0.59979000  1
  C  C64  1  0.01648000  0.51328000  0.84996000  1
  C  C65  1  0.51328000  0.01648000  0.84996000  1
  C  C66  1  0.16008000  0.97328000  0.44026000  1
  C  C67  1  0.97328000  0.16008000  0.44026000  1
  C  C68  1  0.00000000  0.42655000  0.00000000  1
  C  C69  1  0.42655000  1.00000000  0.00000000  1
  C  C70  1  0.71006000  0.58056000  0.68082000  1
  C  C71  1  0.58056000  0.71006000  0.68082000  1
  C  C72  1  0.62585000  0.62585000  0.71940000  1
  C  C73  1  0.02856000  0.58056000  0.68082000  1
  C  C74  1  0.58056000  0.02856000  0.68082000  1
  C  C75  1  0.03147000  0.61967000  0.59979000  1
  C  C76  1  0.61967000  0.03147000  0.59979000  1
  C  C77  1  0.58180000  0.58180000  0.81150000  1
  C  C78  1  0.62028000  0.51328000  0.84996000  1
  C  C79  1  0.51328000  0.62028000  0.84996000  1
  C  C80  1  0.42638000  0.97328000  0.44026000  1
  C  C81  1  0.97328000  0.42638000  0.44026000  1
  C  C82  1  0.56513000  0.49323000  0.92961000  1
  C  C83  1  0.49323000  0.56513000  0.92961000  1
  Cu  Cu84  1  0.99936000  0.99935667  0.43298000  1
  Cu  Cu85  1  0.56830333  0.99936000  0.43298000  1
  Cu  Cu86  1  0.99935667  0.56830667  0.43298000  1
  Cu  Cu87  1  0.43169667  0.00064333  0.56702000  1
  Cu  Cu88  1  0.00064333  0.43169333  0.56702000  1
  Cu  Cu89  1  0.00064333  0.00064000  0.56702000  1
  H  H90  1  0.62285000  0.37715000  1.00000000  1
  H  H91  1  0.37715000  0.62285000  1.00000000  1
  H  H92  1  0.97360000  0.47490000  0.29140000  1
  H  H93  1  0.47490000  0.97360000  0.29140000  1
  H  H94  1  0.52120000  0.32270000  0.16960000  1
  H  H95  1  0.32270000  0.52120000  0.16960000  1
  H  H96  1  0.00000000  0.62285000  0.00000000  1
  H  H97  1  0.62285000  0.00000000  0.00000000  1
  H  H98  1  0.98650000  0.52120000  0.16960000  1
  H  H99  1  0.52120000  0.98650000  0.16960000  1
  H  H100  1  0.47490000  0.26010000  0.29140000  1
  H  H101  1  0.26010000  0.47490000  0.29140000  1
  H  H102  1  0.01350000  0.67730000  0.83040000  1
  H  H103  1  0.67730000  0.01350000  0.83040000  1
  H  H104  1  0.02640000  0.73990000  0.70860000  1
  H  H105  1  0.73990000  0.02640000  0.70860000  1
  H  H106  1  0.96090000  0.27305000  0.49300000  1
  H  H107  1  0.27305000  0.96090000  0.49300000  1
  H  H108  1  0.27305000  0.27305000  0.49300000  1
  H  H109  1  0.72695000  0.72695000  0.50700000  1
  H  H110  1  0.03910000  0.72695000  0.50700000  1
  H  H111  1  0.72695000  0.03910000  0.50700000  1
  H  H112  1  0.97360000  0.26010000  0.29140000  1
  H  H113  1  0.26010000  0.97360000  0.29140000  1
  H  H114  1  0.98650000  0.32270000  0.16960000  1
  H  H115  1  0.32270000  0.98650000  0.16960000  1
  H  H116  1  0.73990000  0.52510000  0.70860000  1
  H  H117  1  0.52510000  0.73990000  0.70860000  1
  H  H118  1  0.01350000  0.47880000  0.83040000  1
  H  H119  1  0.47880000  0.01350000  0.83040000  1
  H  H120  1  0.00000000  0.37715000  0.00000000  1
  H  H121  1  0.37715000  0.00000000  0.00000000  1
  H  H122  1  0.67730000  0.47880000  0.83040000  1
  H  H123  1  0.47880000  0.67730000  0.83040000  1
  H  H124  1  0.02640000  0.52510000  0.70860000  1
  H  H125  1  0.52510000  0.02640000  0.70860000  1
  O  O126  1  0.02149000  0.87609000  0.60153000  1
  O  O127  1  0.87609000  0.02149000  0.60153000  1
  O  O128  1  0.61377000  0.02177000  0.48819000  1
  O  O129  1  0.02177000  0.61377000  0.48819000  1
  O  O130  1  0.50089000  0.02149000  0.60153000  1
  O  O131  1  0.02149000  0.50089000  0.60153000  1
  O  O132  1  0.02177000  0.87627000  0.48819000  1
  O  O133  1  0.87627000  0.02177000  0.48819000  1
  O  O134  1  0.49911000  0.12391000  0.39847000  1
  O  O135  1  0.12391000  0.49911000  0.39847000  1
  O  O136  1  0.38623000  0.12373000  0.51181000  1
  O  O137  1  0.12373000  0.38623000  0.51181000  1
  O  O138  1  0.61377000  0.87627000  0.48819000  1
  O  O139  1  0.87627000  0.61377000  0.48819000  1
  O  O140  1  0.50089000  0.87609000  0.60153000  1
  O  O141  1  0.87609000  0.50089000  0.60153000  1
  O  O142  1  0.12373000  0.97823000  0.51181000  1
  O  O143  1  0.97823000  0.12373000  0.51181000  1
  O  O144  1  0.49911000  0.97851000  0.39847000  1
  O  O145  1  0.97851000  0.49911000  0.39847000  1
  O  O146  1  0.38623000  0.97823000  0.51181000  1
  O  O147  1  0.97823000  0.38623000  0.51181000  1
  O  O148  1  0.12391000  0.97851000  0.39847000  1
  O  O149  1  0.97851000  0.12391000  0.39847000  1
