# generated using pymatgen
data_MnH6(C9O4)2
_symmetry_space_group_name_H-M   'P 1'
_cell_length_a   10.04300000
_cell_length_b   10.91300000
_cell_length_c   12.81699647
_cell_angle_alpha   64.80351599
_cell_angle_beta   84.02624029
_cell_angle_gamma   75.85000000
_symmetry_Int_Tables_number   1
_chemical_formula_structural   MnH6(C9O4)2
_chemical_formula_sum   'Mn2 H12 C36 O16'
_cell_volume   1232.51171252
_cell_formula_units_Z   2
loop_
 _symmetry_equiv_pos_site_id
 _symmetry_equiv_pos_as_xyz
  1  'x, y, z'
loop_
 _atom_site_type_symbol
 _atom_site_label
 _atom_site_symmetry_multiplicity
 _atom_site_fract_x
 _atom_site_fract_y
 _atom_site_fract_z
 _atom_site_occupancy
  C  C0  1  0.51200000  0.48369000  0.04922000  1
  C  C1  1  0.01200000  0.53291000  0.95078000  1
  C  C2  1  0.01877000  0.32714000  0.36780000  1
  C  C3  1  0.51877000  0.69494000  0.63220000  1
  C  C4  1  0.53140000  0.44430000  0.16980000  1
  C  C5  1  0.03140000  0.61410000  0.83020000  1
  C  C6  1  0.02920000  0.40891000  0.25110000  1
  C  C7  1  0.52920000  0.66001000  0.74890000  1
  C  C8  1  0.09270000  0.34552000  0.45442000  1
  C  C9  1  0.59270000  0.79994000  0.54558000  1
  C  C10  1  0.55517000  0.37154000  0.40454000  1
  C  C11  1  0.05517000  0.77608000  0.59546000  1
  C  C12  1  0.60421000  0.51213000  0.20728000  1
  C  C13  1  0.10421000  0.71941000  0.79272000  1
  C  C14  1  0.61661000  0.47518000  0.32458000  1
  C  C15  1  0.11661000  0.79976000  0.67542000  1
  C  C16  1  0.69301000  0.54920000  0.36514000  1
  C  C17  1  0.19301000  0.91434000  0.63486000  1
  C  C18  1  0.30699000  0.45080000  0.63486000  1
  C  C19  1  0.80699000  0.08566000  0.36514000  1
  C  C20  1  0.38339000  0.52482000  0.67542000  1
  C  C21  1  0.88339000  0.20024000  0.32458000  1
  C  C22  1  0.39579000  0.48787000  0.79272000  1
  C  C23  1  0.89579000  0.28059000  0.20728000  1
  C  C24  1  0.44483000  0.62846000  0.59546000  1
  C  C25  1  0.94483000  0.22392000  0.40454000  1
  C  C26  1  0.90730000  0.65448000  0.54558000  1
  C  C27  1  0.40730000  0.20006000  0.45442000  1
  C  C28  1  0.97080000  0.59109000  0.74890000  1
  C  C29  1  0.47080000  0.33999000  0.25110000  1
  C  C30  1  0.46860000  0.55570000  0.83020000  1
  C  C31  1  0.96860000  0.38590000  0.16980000  1
  C  C32  1  0.98123000  0.67286000  0.63220000  1
  C  C33  1  0.48123000  0.30506000  0.36780000  1
  C  C34  1  0.48800000  0.51631000  0.95078000  1
  C  C35  1  0.98800000  0.46709000  0.04922000  1
  H  H36  1  0.56370000  0.34660000  0.48300000  1
  H  H37  1  0.06370000  0.82960000  0.51700000  1
  H  H38  1  0.07690000  0.47950000  0.22680000  1
  H  H39  1  0.57690000  0.70630000  0.77320000  1
  H  H40  1  0.64450000  0.58210000  0.15380000  1
  H  H41  1  0.14450000  0.73590000  0.84620000  1
  H  H42  1  0.35550000  0.41790000  0.84620000  1
  H  H43  1  0.85550000  0.26410000  0.15380000  1
  H  H44  1  0.92310000  0.52050000  0.77320000  1
  H  H45  1  0.42310000  0.29370000  0.22680000  1
  H  H46  1  0.43630000  0.65340000  0.51700000  1
  H  H47  1  0.93630000  0.17040000  0.48300000  1
  Mn  Mn48  1  0.25000000  0.15409000  0.69182000  1
  Mn  Mn49  1  0.75000000  0.84591000  0.30818000  1
  O  O50  1  0.09626000  0.25952000  0.55648000  1
  O  O51  1  0.59626000  0.81600000  0.44352000  1
  O  O52  1  0.14900000  0.44864000  0.41516000  1
  O  O53  1  0.64900000  0.86380000  0.58484000  1
  O  O54  1  0.28188000  0.33877000  0.70386000  1
  O  O55  1  0.78188000  0.04263000  0.29614000  1
  O  O56  1  0.72532000  0.48676000  0.47180000  1
  O  O57  1  0.22532000  0.95856000  0.52820000  1
  O  O58  1  0.27468000  0.51324000  0.52820000  1
  O  O59  1  0.77468000  0.04144000  0.47180000  1
  O  O60  1  0.71812000  0.66123000  0.29614000  1
  O  O61  1  0.21812000  0.95737000  0.70386000  1
  O  O62  1  0.85100000  0.55136000  0.58484000  1
  O  O63  1  0.35100000  0.13620000  0.41516000  1
  O  O64  1  0.90374000  0.74048000  0.44352000  1
  O  O65  1  0.40374000  0.18400000  0.55648000  1
