# generated using pymatgen
data_HoH7C16NO6
_symmetry_space_group_name_H-M   'P 1'
_cell_length_a   13.34670000
_cell_length_b   14.35400000
_cell_length_c   16.03365546
_cell_angle_alpha   116.59139593
_cell_angle_beta   98.62096995
_cell_angle_gamma   90.00000000
_symmetry_Int_Tables_number   1
_chemical_formula_structural   HoH7C16NO6
_chemical_formula_sum   'Ho4 H28 C64 N4 O24'
_cell_volume   2707.91735497
_cell_formula_units_Z   4
loop_
 _symmetry_equiv_pos_site_id
 _symmetry_equiv_pos_as_xyz
  1  'x, y, z'
loop_
 _atom_site_type_symbol
 _atom_site_label
 _atom_site_symmetry_multiplicity
 _atom_site_fract_x
 _atom_site_fract_y
 _atom_site_fract_z
 _atom_site_occupancy
  Ho  Ho0  1  0.96027000  0.47090000  0.36682000  1
  Ho  Ho1  1  0.53973000  0.10408000  0.63318000  1
  Ho  Ho2  1  0.46027000  0.89592000  0.36682000  1
  Ho  Ho3  1  0.03973000  0.52910000  0.63318000  1
  H  H4  1  0.95000000  0.86680000  0.88420000  1
  H  H5  1  0.92180000  0.20210000  0.31760000  1
  H  H6  1  0.90330000  0.61740000  0.92560000  1
  H  H7  1  0.89380000  0.97280000  0.02960000  1
  H  H8  1  0.88080000  0.72790000  0.08080000  1
  H  H9  1  0.79670000  0.22650000  0.54020000  1
  H  H10  1  0.77300000  0.68460000  0.71220000  1
  H  H11  1  0.72700000  0.97240000  0.28780000  1
  H  H12  1  0.70330000  0.68630000  0.45980000  1
  H  H13  1  0.61920000  0.64710000  0.91920000  1
  H  H14  1  0.60620000  0.94320000  0.97040000  1
  H  H15  1  0.59670000  0.69180000  0.07440000  1
  H  H16  1  0.57820000  0.88450000  0.68240000  1
  H  H17  1  0.55000000  0.98260000  0.11580000  1
  H  H18  1  0.45000000  0.01740000  0.88420000  1
  H  H19  1  0.42180000  0.11550000  0.31760000  1
  H  H20  1  0.40330000  0.30820000  0.92560000  1
  H  H21  1  0.39380000  0.05680000  0.02960000  1
  H  H22  1  0.38080000  0.35290000  0.08080000  1
  H  H23  1  0.29670000  0.31370000  0.54020000  1
  H  H24  1  0.27300000  0.02760000  0.71220000  1
  H  H25  1  0.22700000  0.31540000  0.28780000  1
  H  H26  1  0.20330000  0.77350000  0.45980000  1
  H  H27  1  0.11920000  0.27210000  0.91920000  1
  H  H28  1  0.10620000  0.02720000  0.97040000  1
  H  H29  1  0.09670000  0.38260000  0.07440000  1
  H  H30  1  0.07820000  0.79790000  0.68240000  1
  H  H31  1  0.05000000  0.13320000  0.11580000  1
  C  C32  1  0.98000000  0.66610000  0.80500000  1
  C  C33  1  0.94300000  0.73450000  0.89440000  1
  C  C34  1  0.93410000  0.83730000  0.92220000  1
  C  C35  1  0.92640000  0.33450000  0.49800000  1
  C  C36  1  0.91000000  0.68960000  0.94900000  1
  C  C37  1  0.90000000  0.90180000  0.01020000  1
  C  C38  1  0.88800000  0.75550000  0.03900000  1
  C  C39  1  0.88140000  0.17360000  0.34420000  1
  C  C40  1  0.87690000  0.85570000  0.06500000  1
  C  C41  1  0.87010000  0.23050000  0.43960000  1
  C  C42  1  0.85110000  0.92210000  0.16120000  1
  C  C43  1  0.83190000  0.07450000  0.28980000  1
  C  C44  1  0.82730000  0.59340000  0.54240000  1
  C  C45  1  0.80440000  0.18950000  0.47720000  1
  C  C46  1  0.76380000  0.03620000  0.32600000  1
  C  C47  1  0.75020000  0.09300000  0.41980000  1
  C  C48  1  0.74980000  0.67320000  0.58020000  1
  C  C49  1  0.73620000  0.71020000  0.67400000  1
  C  C50  1  0.69560000  0.71230000  0.52280000  1
  C  C51  1  0.67270000  0.05100000  0.45760000  1
  C  C52  1  0.66810000  0.78470000  0.71020000  1
  C  C53  1  0.64890000  0.76090000  0.83880000  1
  C  C54  1  0.62990000  0.79090000  0.56040000  1
  C  C55  1  0.62310000  0.79070000  0.93500000  1
  C  C56  1  0.61860000  0.82940000  0.65580000  1
  C  C57  1  0.61200000  0.71650000  0.96100000  1
  C  C58  1  0.60000000  0.89160000  0.98980000  1
  C  C59  1  0.59000000  0.74060000  0.05100000  1
  C  C60  1  0.57360000  0.83650000  0.50200000  1
  C  C61  1  0.56590000  0.91510000  0.07780000  1
  C  C62  1  0.55700000  0.84010000  0.10560000  1
  C  C63  1  0.52000000  0.86110000  0.19500000  1
  C  C64  1  0.48000000  0.13890000  0.80500000  1
  C  C65  1  0.44300000  0.15990000  0.89440000  1
  C  C66  1  0.43410000  0.08490000  0.92220000  1
  C  C67  1  0.42640000  0.16350000  0.49800000  1
  C  C68  1  0.41000000  0.25940000  0.94900000  1
  C  C69  1  0.40000000  0.10840000  0.01020000  1
  C  C70  1  0.38800000  0.28350000  0.03900000  1
  C  C71  1  0.38140000  0.17060000  0.34420000  1
  C  C72  1  0.37690000  0.20930000  0.06500000  1
  C  C73  1  0.37010000  0.20910000  0.43960000  1
  C  C74  1  0.35110000  0.23910000  0.16120000  1
  C  C75  1  0.33190000  0.21530000  0.28980000  1
  C  C76  1  0.32730000  0.94900000  0.54240000  1
  C  C77  1  0.30440000  0.28770000  0.47720000  1
  C  C78  1  0.26380000  0.28980000  0.32600000  1
  C  C79  1  0.25020000  0.32680000  0.41980000  1
  C  C80  1  0.24980000  0.90700000  0.58020000  1
  C  C81  1  0.23620000  0.96380000  0.67400000  1
  C  C82  1  0.19560000  0.81050000  0.52280000  1
  C  C83  1  0.17270000  0.40660000  0.45760000  1
  C  C84  1  0.16810000  0.92550000  0.71020000  1
  C  C85  1  0.14890000  0.07790000  0.83880000  1
  C  C86  1  0.12990000  0.76950000  0.56040000  1
  C  C87  1  0.12310000  0.14430000  0.93500000  1
  C  C88  1  0.11860000  0.82640000  0.65580000  1
  C  C89  1  0.11200000  0.24450000  0.96100000  1
  C  C90  1  0.10000000  0.09820000  0.98980000  1
  C  C91  1  0.09000000  0.31040000  0.05100000  1
  C  C92  1  0.07360000  0.66550000  0.50200000  1
  C  C93  1  0.06590000  0.16270000  0.07780000  1
  C  C94  1  0.05700000  0.26550000  0.10560000  1
  C  C95  1  0.02000000  0.33390000  0.19500000  1
  N  N96  1  0.85020000  0.01880000  0.19540000  1
  N  N97  1  0.64980000  0.82340000  0.80460000  1
  N  N98  1  0.35020000  0.17660000  0.19540000  1
  N  N99  1  0.14980000  0.98120000  0.80460000  1
  O  O100  1  0.99400000  0.29200000  0.24560000  1
  O  O101  1  0.98160000  0.57250000  0.77840000  1
  O  O102  1  0.95530000  0.38730000  0.46000000  1
  O  O103  1  0.94560000  0.36800000  0.58740000  1
  O  O104  1  0.87210000  0.56160000  0.59860000  1
  O  O105  1  0.83910000  0.56490000  0.45760000  1
  O  O106  1  0.66090000  0.10730000  0.54240000  1
  O  O107  1  0.62790000  0.96300000  0.40140000  1
  O  O108  1  0.55440000  0.78060000  0.41260000  1
  O  O109  1  0.54470000  0.92730000  0.54000000  1
  O  O110  1  0.51840000  0.79410000  0.22160000  1
  O  O111  1  0.50600000  0.04640000  0.75440000  1
  O  O112  1  0.49400000  0.95360000  0.24560000  1
  O  O113  1  0.48160000  0.20590000  0.77840000  1
  O  O114  1  0.45530000  0.07270000  0.46000000  1
  O  O115  1  0.44560000  0.21940000  0.58740000  1
  O  O116  1  0.37210000  0.03700000  0.59860000  1
  O  O117  1  0.33910000  0.89270000  0.45760000  1
  O  O118  1  0.16090000  0.43510000  0.54240000  1
  O  O119  1  0.12790000  0.43840000  0.40140000  1
  O  O120  1  0.05440000  0.63200000  0.41260000  1
  O  O121  1  0.04470000  0.61270000  0.54000000  1
  O  O122  1  0.01840000  0.42750000  0.22160000  1
  O  O123  1  0.00600000  0.70800000  0.75440000  1
