# generated using pymatgen
data_CrGa2CoP4H26C8(N3O8)2
_symmetry_space_group_name_H-M   'P 1'
_cell_length_a   13.48880000
_cell_length_b   14.42614874
_cell_length_c   14.42614874
_cell_angle_alpha   110.74982929
_cell_angle_beta   108.16018924
_cell_angle_gamma   108.16018924
_symmetry_Int_Tables_number   1
_chemical_formula_structural   CrGa2CoP4H26C8(N3O8)2
_chemical_formula_sum   'Cr3 Ga6 Co3 P12 H78 C24 N18 O48'
_cell_volume   2194.94989322
_cell_formula_units_Z   3
loop_
 _symmetry_equiv_pos_site_id
 _symmetry_equiv_pos_as_xyz
  1  'x, y, z'
loop_
 _atom_site_type_symbol
 _atom_site_label
 _atom_site_symmetry_multiplicity
 _atom_site_fract_x
 _atom_site_fract_y
 _atom_site_fract_z
 _atom_site_occupancy
  C  C0  1  0.16480000  0.59700000  0.55800000  1
  C  C1  1  0.91830000  0.59270000  0.61290000  1
  C  C2  1  0.19900000  0.98170000  0.32640000  1
  C  C3  1  0.60130000  0.98910000  0.32360000  1
  C  C4  1  0.87260000  0.67360000  0.65530000  1
  C  C5  1  0.27770000  0.67640000  0.66550000  1
  C  C6  1  0.61220000  0.33450000  0.01090000  1
  C  C7  1  0.21730000  0.34470000  0.01830000  1
  C  C8  1  0.56780000  0.96100000  0.40300000  1
  C  C9  1  0.30540000  0.38710000  0.97980000  1
  C  C10  1  0.32560000  0.02020000  0.40730000  1
  C  C11  1  0.60680000  0.44200000  0.03900000  1
  C  C12  1  0.39320000  0.55800000  0.96100000  1
  C  C13  1  0.67440000  0.97980000  0.59270000  1
  C  C14  1  0.69460000  0.61290000  0.02020000  1
  C  C15  1  0.43220000  0.03900000  0.59700000  1
  C  C16  1  0.78270000  0.65530000  0.98170000  1
  C  C17  1  0.38780000  0.66550000  0.98910000  1
  C  C18  1  0.72230000  0.32360000  0.33450000  1
  C  C19  1  0.12740000  0.32640000  0.34470000  1
  C  C20  1  0.39870000  0.01090000  0.67640000  1
  C  C21  1  0.80100000  0.01830000  0.67360000  1
  C  C22  1  0.08170000  0.40730000  0.38710000  1
  C  C23  1  0.83520000  0.40300000  0.44200000  1
  Co  Co24  1  0.48037000  0.62775000  0.45342000  1
  Co  Co25  1  0.85262000  0.82567000  0.37225000  1
  Co  Co26  1  0.02695000  0.54658000  0.17433000  1
  Cr  Cr27  1  0.26523000  0.45685000  0.59258000  1
  Cr  Cr28  1  0.67265000  0.40742000  0.86427000  1
  Cr  Cr29  1  0.80838000  0.13573000  0.54315000  1
  Ga  Ga30  1  0.97305000  0.45342000  0.82567000  1
  Ga  Ga31  1  0.19162000  0.86427000  0.45685000  1
  Ga  Ga32  1  0.32735000  0.59258000  0.13573000  1
  Ga  Ga33  1  0.14738000  0.17433000  0.62775000  1
  Ga  Ga34  1  0.51963000  0.37225000  0.54658000  1
  Ga  Ga35  1  0.73477000  0.54315000  0.40742000  1
  H  H36  1  0.77810000  0.47000000  0.54600000  1
  H  H37  1  0.10900000  0.81500000  0.26060000  1
  H  H38  1  0.51520000  0.23940000  0.84560000  1
  H  H39  1  0.62790000  0.23480000  0.88710000  1
  H  H40  1  0.10200000  0.56290000  0.57230000  1
  H  H41  1  0.04990000  0.87300000  0.29200000  1
  H  H42  1  0.13600000  0.64220000  0.52750000  1
  H  H43  1  0.19900000  0.96580000  0.25350000  1
  H  H44  1  0.62970000  0.93410000  0.28770000  1
  H  H45  1  0.94630000  0.56400000  0.66170000  1
  H  H46  1  0.98110000  0.63860000  0.59760000  1
  H  H47  1  0.28460000  0.33830000  0.90230000  1
  H  H48  1  0.49380000  0.88530000  0.35780000  1
  H  H49  1  0.54180000  0.99200000  0.27000000  1
  H  H50  1  0.54980000  0.27800000  0.00800000  1
  H  H51  1  0.75790000  0.70800000  0.58100000  1
  H  H52  1  0.13540000  0.32520000  0.96640000  1
  H  H53  1  0.84840000  0.73940000  0.55440000  1
  H  H54  1  0.81020000  0.64120000  0.67480000  1
  H  H55  1  0.34250000  0.95900000  0.36140000  1
  H  H56  1  0.23320000  0.28770000  0.03420000  1
  H  H57  1  0.34200000  0.71230000  0.64640000  1
  H  H58  1  0.27580000  0.60620000  0.76060000  1
  H  H59  1  0.70600000  0.55440000  0.81500000  1
  H  H60  1  0.23210000  0.45400000  0.92400000  1
  H  H61  1  0.16900000  0.03360000  0.35880000  1
  H  H62  1  0.69190000  0.92400000  0.47000000  1
  H  H63  1  0.39150000  0.52750000  0.88530000  1
  H  H64  1  0.39310000  0.65230000  0.76520000  1
  H  H65  1  0.52970000  0.42770000  0.99060000  1
  H  H66  1  0.69560000  0.35360000  0.06590000  1
  H  H67  1  0.38350000  0.40240000  0.04100000  1
  H  H68  1  0.53910000  0.00940000  0.43710000  1
  H  H69  1  0.33040000  0.84560000  0.60620000  1
  H  H70  1  0.27180000  0.73000000  0.72200000  1
  H  H71  1  0.82310000  0.58100000  0.87300000  1
  H  H72  1  0.94550000  0.74650000  0.71230000  1
  H  H73  1  0.74080000  0.11290000  0.34770000  1
  H  H74  1  0.61770000  0.90230000  0.56400000  1
  H  H75  1  0.38230000  0.09770000  0.43600000  1
  H  H76  1  0.25920000  0.88710000  0.65230000  1
  H  H77  1  0.05450000  0.25350000  0.28770000  1
  H  H78  1  0.17690000  0.41900000  0.12700000  1
  H  H79  1  0.72820000  0.27000000  0.27800000  1
  H  H80  1  0.66960000  0.15440000  0.39380000  1
  H  H81  1  0.46090000  0.99060000  0.56290000  1
  H  H82  1  0.61650000  0.59760000  0.95900000  1
  H  H83  1  0.30440000  0.64640000  0.93410000  1
  H  H84  1  0.47030000  0.57230000  0.00940000  1
  H  H85  1  0.60690000  0.34770000  0.23480000  1
  H  H86  1  0.60850000  0.47250000  0.11470000  1
  H  H87  1  0.30810000  0.07600000  0.53000000  1
  H  H88  1  0.83100000  0.96640000  0.64120000  1
  H  H89  1  0.76790000  0.54600000  0.07600000  1
  H  H90  1  0.29400000  0.44560000  0.18500000  1
  H  H91  1  0.72420000  0.39380000  0.23940000  1
  H  H92  1  0.65800000  0.28770000  0.35360000  1
  H  H93  1  0.76680000  0.71230000  0.96580000  1
  H  H94  1  0.65750000  0.04100000  0.63860000  1
  H  H95  1  0.18980000  0.35880000  0.32520000  1
  H  H96  1  0.15160000  0.26060000  0.44560000  1
  H  H97  1  0.86460000  0.67480000  0.03360000  1
  H  H98  1  0.24210000  0.29200000  0.41900000  1
  H  H99  1  0.45020000  0.72200000  0.99200000  1
  H  H100  1  0.45820000  0.00800000  0.73000000  1
  H  H101  1  0.50620000  0.11470000  0.64220000  1
  H  H102  1  0.71540000  0.66170000  0.09770000  1
  H  H103  1  0.01890000  0.36140000  0.40240000  1
  H  H104  1  0.05370000  0.43600000  0.33830000  1
  H  H105  1  0.37030000  0.06590000  0.71230000  1
  H  H106  1  0.80100000  0.03420000  0.74650000  1
  H  H107  1  0.86400000  0.35780000  0.47250000  1
  H  H108  1  0.95010000  0.12700000  0.70800000  1
  H  H109  1  0.89800000  0.43710000  0.42770000  1
  H  H110  1  0.37210000  0.76520000  0.11290000  1
  H  H111  1  0.48480000  0.76060000  0.15440000  1
  H  H112  1  0.89100000  0.18500000  0.73940000  1
  H  H113  1  0.22190000  0.53000000  0.45400000  1
  N  N114  1  0.81630000  0.49136000  0.51084000  1
  N  N115  1  0.59379000  0.28009000  0.89338000  1
  N  N116  1  0.12096000  0.87370000  0.31308000  1
  N  N117  1  0.80788000  0.68692000  0.56062000  1
  N  N118  1  0.31370000  0.61329000  0.71991000  1
  N  N119  1  0.75274000  0.56062000  0.87370000  1
  N  N120  1  0.30546000  0.48916000  0.98052000  1
  N  N121  1  0.67506000  0.98052000  0.49136000  1
  N  N122  1  0.70041000  0.10662000  0.38671000  1
  N  N123  1  0.29959000  0.89338000  0.61329000  1
  N  N124  1  0.32494000  0.01948000  0.50864000  1
  N  N125  1  0.69454000  0.51084000  0.01948000  1
  N  N126  1  0.24726000  0.43938000  0.12630000  1
  N  N127  1  0.68630000  0.38671000  0.28009000  1
  N  N128  1  0.19212000  0.31308000  0.43938000  1
  N  N129  1  0.87904000  0.12630000  0.68692000  1
  N  N130  1  0.40621000  0.71991000  0.10662000  1
  N  N131  1  0.18370000  0.50864000  0.48916000  1
  O  O132  1  0.88079000  0.71369000  0.29388000  1
  O  O133  1  0.11906000  0.40120000  0.60788000  1
  O  O134  1  0.65060000  0.31087000  0.72093000  1
  O  O135  1  0.33973000  0.41006000  0.68913000  1
  O  O136  1  0.69205000  0.77547000  0.32568000  1
  O  O137  1  0.40459000  0.52420000  0.57737000  1
  O  O138  1  0.36637000  0.67432000  0.44979000  1
  O  O139  1  0.58691000  0.70612000  0.41981000  1
  O  O140  1  0.79961000  0.22617000  0.90476000  1
  O  O141  1  0.07033000  0.72093000  0.41006000  1
  O  O142  1  0.83290000  0.41981000  0.71369000  1
  O  O143  1  0.59800000  0.52354000  0.65096000  1
  O  O144  1  0.51118000  0.39212000  0.79332000  1
  O  O145  1  0.28214000  0.79332000  0.40120000  1
  O  O146  1  0.94704000  0.34904000  0.87258000  1
  O  O147  1  0.08342000  0.44979000  0.77547000  1
  O  O148  1  0.90984000  0.92922000  0.33110000  1
  O  O149  1  0.57874000  0.66890000  0.59812000  1
  O  O150  1  0.82722000  0.42263000  0.94683000  1
  O  O151  1  0.92554000  0.87258000  0.52354000  1
  O  O152  1  0.89485000  0.09524000  0.32141000  1
  O  O153  1  0.57344000  0.67859000  0.77383000  1
  O  O154  1  0.11961000  0.94683000  0.52420000  1
  O  O155  1  0.98062000  0.40188000  0.07078000  1
  O  O156  1  0.01938000  0.59812000  0.92922000  1
  O  O157  1  0.88039000  0.05317000  0.47580000  1
  O  O158  1  0.42656000  0.32141000  0.22617000  1
  O  O159  1  0.10515000  0.90476000  0.67859000  1
  O  O160  1  0.07446000  0.12742000  0.47646000  1
  O  O161  1  0.17278000  0.57737000  0.05317000  1
  O  O162  1  0.42126000  0.33110000  0.40188000  1
  O  O163  1  0.09016000  0.07078000  0.66890000  1
  O  O164  1  0.91658000  0.55021000  0.22453000  1
  O  O165  1  0.05296000  0.65096000  0.12742000  1
  O  O166  1  0.71786000  0.20668000  0.59880000  1
  O  O167  1  0.48882000  0.60788000  0.20668000  1
  O  O168  1  0.40200000  0.47646000  0.34904000  1
  O  O169  1  0.16710000  0.58019000  0.28631000  1
  O  O170  1  0.92967000  0.27907000  0.58994000  1
  O  O171  1  0.20039000  0.77383000  0.09524000  1
  O  O172  1  0.41309000  0.29388000  0.58019000  1
  O  O173  1  0.63363000  0.32568000  0.55021000  1
  O  O174  1  0.59541000  0.47580000  0.42263000  1
  O  O175  1  0.30795000  0.22453000  0.67432000  1
  O  O176  1  0.66027000  0.58994000  0.31087000  1
  O  O177  1  0.34940000  0.68913000  0.27907000  1
  O  O178  1  0.88094000  0.59880000  0.39212000  1
  O  O179  1  0.11921000  0.28631000  0.70612000  1
  P  P180  1  0.06273000  0.35289000  0.66666000  1
  P  P181  1  0.39607000  0.33334000  0.68623000  1
  P  P182  1  0.29016000  0.68623000  0.35289000  1
  P  P183  1  0.53825000  0.60133000  0.65495000  1
  P  P184  1  0.88330000  0.34505000  0.94638000  1
  P  P185  1  0.93692000  0.05362000  0.39867000  1
  P  P186  1  0.06308000  0.94638000  0.60133000  1
  P  P187  1  0.11670000  0.65495000  0.05362000  1
  P  P188  1  0.46175000  0.39867000  0.34505000  1
  P  P189  1  0.70984000  0.31377000  0.64711000  1
  P  P190  1  0.60393000  0.66666000  0.31377000  1
  P  P191  1  0.93727000  0.64711000  0.33334000  1
