# generated using pymatgen
data_CuH3(CO2)3
_symmetry_space_group_name_H-M   'P 1'
_cell_length_a   7.32630000
_cell_length_b   7.32630000
_cell_length_c   24.36530000
_cell_angle_alpha   90.00000000
_cell_angle_beta   90.00000000
_cell_angle_gamma   120.00000000
_symmetry_Int_Tables_number   1
_chemical_formula_structural   CuH3(CO2)3
_chemical_formula_sum   'Cu6 H18 C18 O36'
_cell_volume   1132.58757112
_cell_formula_units_Z   6
loop_
 _symmetry_equiv_pos_site_id
 _symmetry_equiv_pos_as_xyz
  1  'x, y, z'
loop_
 _atom_site_type_symbol
 _atom_site_label
 _atom_site_symmetry_multiplicity
 _atom_site_fract_x
 _atom_site_fract_y
 _atom_site_fract_z
 _atom_site_occupancy
  Cu  Cu0  1  0.68229000  0.31770000  0.25000000  1
  Cu  Cu1  1  0.68229000  0.36458000  0.58333000  1
  Cu  Cu2  1  0.63541000  0.31770000  0.91667000  1
  Cu  Cu3  1  0.36459000  0.68230000  0.41667000  1
  Cu  Cu4  1  0.31771000  0.63542000  0.08333000  1
  Cu  Cu5  1  0.31771000  0.68230000  0.75000000  1
  H  H6  1  0.00000000  0.39950000  0.16667000  1
  H  H7  1  0.00000000  0.60050000  0.66666667  1
  H  H8  1  0.96520000  0.44030000  0.82993000  1
  H  H9  1  0.96520000  0.52490000  0.00340000  1
  H  H10  1  0.60050000  0.60050000  0.50000000  1
  H  H11  1  0.60050000  1.00000000  0.33333333  1
  H  H12  1  0.55970000  0.03480000  0.67007000  1
  H  H13  1  0.55970000  0.52490000  0.16327000  1
  H  H14  1  0.52490000  0.55970000  0.83673000  1
  H  H15  1  0.52490000  0.96520000  0.99660000  1
  H  H16  1  0.47510000  0.03480000  0.49660000  1
  H  H17  1  0.47510000  0.44030000  0.33673000  1
  H  H18  1  0.44030000  0.47510000  0.66327000  1
  H  H19  1  0.44030000  0.96520000  0.17007000  1
  H  H20  1  0.39950000  0.39950000  0.00000000  1
  H  H21  1  0.39950000  0.00000000  0.83333000  1
  H  H22  1  0.03480000  0.47510000  0.50340000  1
  H  H23  1  0.03480000  0.55970000  0.32993000  1
  C  C24  1  0.00000000  0.47360000  0.66666667  1
  C  C25  1  0.00000000  0.52640000  0.16667000  1
  C  C26  1  0.96700000  0.39910000  0.00140000  1
  C  C27  1  0.96700000  0.56790000  0.83193000  1
  C  C28  1  0.60090000  0.03300000  0.49860000  1
  C  C29  1  0.60090000  0.56790000  0.33473000  1
  C  C30  1  0.56790000  0.60090000  0.66527000  1
  C  C31  1  0.56790000  0.96700000  0.16807000  1
  C  C32  1  0.52640000  0.52640000  0.00000000  1
  C  C33  1  0.52640000  0.00000000  0.83333000  1
  C  C34  1  0.47360000  0.47360000  0.50000000  1
  C  C35  1  0.47360000  1.00000000  0.33333333  1
  C  C36  1  0.43210000  0.03300000  0.66807000  1
  C  C37  1  0.43210000  0.39910000  0.16527000  1
  C  C38  1  0.39910000  0.43210000  0.83473000  1
  C  C39  1  0.39910000  0.96700000  0.99860000  1
  C  C40  1  0.03300000  0.43210000  0.33193000  1
  C  C41  1  0.03300000  0.60090000  0.50140000  1
  O  O42  1  0.92100000  0.29810000  0.29803000  1
  O  O43  1  0.92100000  0.62290000  0.53530000  1
  O  O44  1  0.88720000  0.33830000  0.63220000  1
  O  O45  1  0.88720000  0.54890000  0.20113000  1
  O  O46  1  0.85830000  0.27720000  0.96579000  1
  O  O47  1  0.85830000  0.58110000  0.86754000  1
  O  O48  1  0.72280000  0.14170000  0.53421000  1
  O  O49  1  0.72280000  0.58110000  0.29912000  1
  O  O50  1  0.70190000  0.07900000  0.20197000  1
  O  O51  1  0.70190000  0.62290000  0.63137000  1
  O  O52  1  0.66170000  0.11280000  0.86780000  1
  O  O53  1  0.66170000  0.54890000  0.96553000  1
  O  O54  1  0.62290000  0.70190000  0.36863000  1
  O  O55  1  0.62290000  0.92100000  0.46470000  1
  O  O56  1  0.58110000  0.72280000  0.70088000  1
  O  O57  1  0.58110000  0.85830000  0.13246000  1
  O  O58  1  0.54890000  0.66170000  0.03447000  1
  O  O59  1  0.54890000  0.88720000  0.79887000  1
  O  O60  1  0.45110000  0.11280000  0.29887000  1
  O  O61  1  0.45110000  0.33830000  0.53447000  1
  O  O62  1  0.41890000  0.14170000  0.63246000  1
  O  O63  1  0.41890000  0.27720000  0.20088000  1
  O  O64  1  0.37710000  0.07900000  0.96470000  1
  O  O65  1  0.37710000  0.29810000  0.86863000  1
  O  O66  1  0.33830000  0.45110000  0.46553000  1
  O  O67  1  0.33830000  0.88720000  0.36780000  1
  O  O68  1  0.29810000  0.37710000  0.13137000  1
  O  O69  1  0.29810000  0.92100000  0.70197000  1
  O  O70  1  0.27720000  0.41890000  0.79912000  1
  O  O71  1  0.27720000  0.85830000  0.03421000  1
  O  O72  1  0.14170000  0.41890000  0.36754000  1
  O  O73  1  0.14170000  0.72280000  0.46579000  1
  O  O74  1  0.11280000  0.45110000  0.70113000  1
  O  O75  1  0.11280000  0.66170000  0.13220000  1
  O  O76  1  0.07900000  0.37710000  0.03530000  1
  O  O77  1  0.07900000  0.70190000  0.79803000  1
