# generated using pymatgen
data_CdH5C4N9
_symmetry_space_group_name_H-M   'P 1'
_cell_length_a   11.55810000
_cell_length_b   12.62259614
_cell_length_c   12.62259614
_cell_angle_alpha   111.11609457
_cell_angle_beta   107.77154887
_cell_angle_gamma   107.77154887
_symmetry_Int_Tables_number   1
_chemical_formula_structural   CdH5C4N9
_chemical_formula_sum   'Cd6 H30 C24 N54'
_cell_volume   1446.25461961
_cell_formula_units_Z   6
loop_
 _symmetry_equiv_pos_site_id
 _symmetry_equiv_pos_as_xyz
  1  'x, y, z'
loop_
 _atom_site_type_symbol
 _atom_site_label
 _atom_site_symmetry_multiplicity
 _atom_site_fract_x
 _atom_site_fract_y
 _atom_site_fract_z
 _atom_site_occupancy
  C  C0  1  0.10900000  0.42010000  0.59060000  1
  C  C1  1  0.01695000  0.82485000  0.27700000  1
  C  C2  1  0.14350000  0.84650000  0.25970000  1
  C  C3  1  0.54501000  0.29708000  0.80985000  1
  C  C4  1  0.24793000  0.51277000  0.70292000  1
  C  C5  1  0.51840000  0.40940000  0.82950000  1
  C  C6  1  0.31110000  0.82950000  0.42010000  1
  C  C7  1  0.73995000  0.72300000  0.54785000  1
  C  C8  1  0.26484000  0.80985000  0.51277000  1
  C  C9  1  0.88380000  0.74030000  0.58680000  1
  C  C10  1  0.80790000  0.54785000  0.82485000  1
  C  C11  1  0.70300000  0.58680000  0.84650000  1
  C  C12  1  0.29700000  0.41320000  0.15350000  1
  C  C13  1  0.19210000  0.45215000  0.17515000  1
  C  C14  1  0.11620000  0.25970000  0.41320000  1
  C  C15  1  0.73516000  0.19015000  0.48723000  1
  C  C16  1  0.26005000  0.27700000  0.45215000  1
  C  C17  1  0.68890000  0.17050000  0.57990000  1
  C  C18  1  0.48160000  0.59060000  0.17050000  1
  C  C19  1  0.75207000  0.48723000  0.29708000  1
  C  C20  1  0.45499000  0.70292000  0.19015000  1
  C  C21  1  0.85650000  0.15350000  0.74030000  1
  C  C22  1  0.98305000  0.17515000  0.72300000  1
  C  C23  1  0.89100000  0.57990000  0.40940000  1
  Cd  Cd24  1  0.31845667  0.55359000  0.49506000  1
  Cd  Cd25  1  0.76486667  0.94147000  0.44641000  1
  Cd  Cd26  1  0.17660333  0.49506000  0.94147000  1
  Cd  Cd27  1  0.82339667  0.50494000  0.05853000  1
  Cd  Cd28  1  0.23513333  0.05853000  0.55359000  1
  Cd  Cd29  1  0.68154333  0.44641000  0.50494000  1
  H  H30  1  0.86510000  0.23590000  0.79440000  1
  H  H31  1  0.04840000  0.45870000  0.59280000  1
  H  H32  1  0.92850000  0.65600000  0.40290000  1
  H  H33  1  0.27250000  0.74690000  0.34400000  1
  H  H34  1  0.15030000  0.89580000  0.21610000  1
  H  H35  1  0.47440000  0.40290000  0.74690000  1
  H  H36  1  0.96400000  0.62500000  0.58990000  1
  H  H37  1  0.45560000  0.40720000  0.86590000  1
  H  H38  1  0.62920000  0.55850000  0.76410000  1
  H  H39  1  0.41030000  0.86590000  0.45870000  1
  H  H40  1  0.33900000  0.96490000  0.37500000  1
  H  H41  1  0.92930000  0.79440000  0.55850000  1
  H  H42  1  0.25450000  0.32030000  0.10420000  1
  H  H43  1  0.37410000  0.41010000  0.03510000  1
  H  H44  1  0.93420000  0.78390000  0.67970000  1
  H  H45  1  0.06580000  0.21610000  0.32030000  1
  H  H46  1  0.62590000  0.58990000  0.96490000  1
  H  H47  1  0.74550000  0.67970000  0.89580000  1
  H  H48  1  0.07070000  0.20560000  0.44150000  1
  H  H49  1  0.66100000  0.03510000  0.62500000  1
  H  H50  1  0.58970000  0.13410000  0.54130000  1
  H  H51  1  0.37080000  0.44150000  0.23590000  1
  H  H52  1  0.54440000  0.59280000  0.13410000  1
  H  H53  1  0.03600000  0.37500000  0.41010000  1
  H  H54  1  0.52560000  0.59710000  0.25310000  1
  H  H55  1  0.84970000  0.10420000  0.78390000  1
  H  H56  1  0.72750000  0.25310000  0.65600000  1
  H  H57  1  0.07150000  0.34400000  0.59710000  1
  H  H58  1  0.95160000  0.54130000  0.40720000  1
  H  H59  1  0.13490000  0.76410000  0.20560000  1
  N  N60  1  0.18963000  0.25678000  0.75501000  1
  N  N61  1  0.64589000  0.18628000  0.84109000  1
  N  N62  1  0.10188000  0.28089000  0.79735000  1
  N  N63  1  0.54426000  0.82565000  0.27643000  1
  N  N64  1  0.47761000  0.89365000  0.25448000  1
  N  N65  1  0.88733000  0.61772000  0.53247000  1
  N  N66  1  0.53434000  0.65668000  0.51574000  1
  N  N67  1  0.64314000  0.63336000  0.54806000  1
  N  N68  1  0.66319000  0.30735000  0.88322000  1
  N  N69  1  0.87766000  0.85906000  0.34332000  1
  N  N70  1  0.82099000  0.51646000  0.71911000  1
  N  N71  1  0.93285000  0.49823000  0.74322000  1
  N  N72  1  0.56538000  0.75501000  0.49823000  1
  N  N73  1  0.35584000  0.57587000  0.69265000  1
  N  N74  1  0.26783000  0.72357000  0.54922000  1
  N  N75  1  0.00978000  0.91470000  0.36664000  1
  N  N76  1  0.26961000  0.91475000  0.38228000  1
  N  N77  1  0.69547000  0.79735000  0.51646000  1
  N  N78  1  0.98140000  0.51574000  0.85906000  1
  N  N79  1  0.28139000  0.54922000  0.82565000  1
  N  N80  1  0.22313000  0.74552000  0.63917000  1
  N  N81  1  0.64514000  0.53247000  0.91475000  1
  N  N82  1  0.22003000  0.88322000  0.57587000  1
  N  N83  1  0.90492000  0.54806000  0.91470000  1
  N  N84  1  0.58396000  0.36083000  0.10635000  1
  N  N85  1  0.45961000  0.65481000  0.81372000  1
  N  N86  1  0.19520000  0.84109000  0.65481000  1
  N  N87  1  0.80480000  0.15891000  0.34519000  1
  N  N88  1  0.54039000  0.34519000  0.18628000  1
  N  N89  1  0.41604000  0.63917000  0.89365000  1
  N  N90  1  0.09508000  0.45194000  0.08530000  1
  N  N91  1  0.77997000  0.11678000  0.42413000  1
  N  N92  1  0.35486000  0.46753000  0.08525000  1
  N  N93  1  0.77687000  0.25448000  0.36083000  1
  N  N94  1  0.71861000  0.45078000  0.17435000  1
  N  N95  1  0.01860000  0.48426000  0.14094000  1
  N  N96  1  0.30453000  0.20265000  0.48354000  1
  N  N97  1  0.73039000  0.08525000  0.61772000  1
  N  N98  1  0.99022000  0.08530000  0.63336000  1
  N  N99  1  0.73217000  0.27643000  0.45078000  1
  N  N100  1  0.64416000  0.42413000  0.30735000  1
  N  N101  1  0.43462000  0.24499000  0.50177000  1
  N  N102  1  0.06715000  0.50177000  0.25678000  1
  N  N103  1  0.17901000  0.48354000  0.28089000  1
  N  N104  1  0.12234000  0.14094000  0.65668000  1
  N  N105  1  0.33681000  0.69265000  0.11678000  1
  N  N106  1  0.35686000  0.36664000  0.45194000  1
  N  N107  1  0.46566000  0.34332000  0.48426000  1
  N  N108  1  0.11267000  0.38228000  0.46753000  1
  N  N109  1  0.52239000  0.10635000  0.74552000  1
  N  N110  1  0.45574000  0.17435000  0.72357000  1
  N  N111  1  0.89812000  0.71911000  0.20265000  1
  N  N112  1  0.35411000  0.81372000  0.15891000  1
  N  N113  1  0.81037000  0.74322000  0.24499000  1
