# generated using pymatgen
data_Zn4H32C46O17
_symmetry_space_group_name_H-M   'P 1'
_cell_length_a   17.11680000
_cell_length_b   17.22150000
_cell_length_c   17.22150000
_cell_angle_alpha   90.00000000
_cell_angle_beta   90.00000000
_cell_angle_gamma   90.00000000
_symmetry_Int_Tables_number   1
_chemical_formula_structural   Zn4H32C46O17
_chemical_formula_sum   'Zn8 H64 C92 O34'
_cell_volume   5076.50160952
_cell_formula_units_Z   2
loop_
 _symmetry_equiv_pos_site_id
 _symmetry_equiv_pos_as_xyz
  1  'x, y, z'
loop_
 _atom_site_type_symbol
 _atom_site_label
 _atom_site_symmetry_multiplicity
 _atom_site_fract_x
 _atom_site_fract_y
 _atom_site_fract_z
 _atom_site_occupancy
  Zn  Zn0  1  0.05519000  0.06538000  0.56538000  1
  Zn  Zn1  1  0.05519000  0.93462000  0.43462000  1
  Zn  Zn2  1  0.18439000  0.06563000  0.43437000  1
  Zn  Zn3  1  0.18439000  0.93437000  0.56563000  1
  Zn  Zn4  1  0.81561000  0.43437000  0.93437000  1
  Zn  Zn5  1  0.81561000  0.56563000  0.06563000  1
  Zn  Zn6  1  0.94481000  0.43462000  0.06538000  1
  Zn  Zn7  1  0.94481000  0.56538000  0.93462000  1
  H  H8  1  0.04505000  0.10211000  0.80219000  1
  H  H9  1  0.04505000  0.30219000  0.60211000  1
  H  H10  1  0.04505000  0.69781000  0.39789000  1
  H  H11  1  0.04505000  0.89789000  0.19781000  1
  H  H12  1  0.04846000  0.10358000  0.94932000  1
  H  H13  1  0.04846000  0.44932000  0.60358000  1
  H  H14  1  0.04846000  0.55068000  0.39642000  1
  H  H15  1  0.04846000  0.89642000  0.05068000  1
  H  H16  1  0.18160000  0.40934000  0.09066000  1
  H  H17  1  0.18160000  0.59066000  0.90934000  1
  H  H18  1  0.18226000  0.20856000  0.11338000  1
  H  H19  1  0.18544000  0.10013000  0.20162000  1
  H  H20  1  0.18544000  0.70162000  0.60013000  1
  H  H21  1  0.18603000  0.30007000  0.39909000  1
  H  H22  1  0.18603000  0.89909000  0.80007000  1
  H  H23  1  0.18753000  0.54891000  0.59767000  1
  H  H24  1  0.20754000  0.43846000  0.26744000  1
  H  H25  1  0.20754000  0.76744000  0.93846000  1
  H  H26  1  0.21345000  0.35407000  0.33474000  1
  H  H27  1  0.21345000  0.83474000  0.85407000  1
  H  H28  1  0.26401000  0.21327000  0.04224000  1
  H  H29  1  0.26992000  0.14597000  0.12663000  1
  H  H30  1  0.29520000  0.42521000  0.33003000  1
  H  H31  1  0.29520000  0.83003000  0.92521000  1
  H  H32  1  0.33010000  0.41079000  0.08921000  1
  H  H33  1  0.33010000  0.58921000  0.91079000  1
  H  H34  1  0.41865000  0.09119000  0.40881000  1
  H  H35  1  0.41865000  0.90881000  0.59119000  1
  H  H36  1  0.43316000  0.41088000  0.91088000  1
  H  H37  1  0.44719000  0.68279000  0.18279000  1
  H  H38  1  0.46295000  0.84800000  0.60787000  1
  H  H39  1  0.50465000  0.88967000  0.69860000  1
  H  H40  1  0.51943000  0.60209000  0.17852000  1
  H  H41  1  0.51943000  0.67852000  0.10209000  1
  H  H42  1  0.54635000  0.79894000  0.65693000  1
  H  H43  1  0.56684000  0.08912000  0.41088000  1
  H  H44  1  0.58135000  0.40881000  0.90881000  1
  H  H45  1  0.58135000  0.59119000  0.09119000  1
  H  H46  1  0.66990000  0.08921000  0.58921000  1
  H  H47  1  0.66990000  0.91079000  0.41079000  1
  H  H48  1  0.70597000  0.66020000  0.41134000  1
  H  H49  1  0.70597000  0.91134000  0.16020000  1
  H  H50  1  0.72327000  0.04623000  0.79738000  1
  H  H51  1  0.74397000  0.13651000  0.85316000  1
  H  H52  1  0.77857000  0.73169000  0.44834000  1
  H  H53  1  0.77857000  0.94834000  0.23169000  1
  H  H54  1  0.79927000  0.67590000  0.35806000  1
  H  H55  1  0.79927000  0.85806000  0.17590000  1
  H  H56  1  0.81247000  0.40233000  0.54891000  1
  H  H57  1  0.81397000  0.19993000  0.89909000  1
  H  H58  1  0.81397000  0.60091000  0.30007000  1
  H  H59  1  0.81397000  0.80007000  0.10091000  1
  H  H60  1  0.81456000  0.39987000  0.70162000  1
  H  H61  1  0.81657000  0.09951000  0.78167000  1
  H  H62  1  0.81840000  0.09066000  0.59066000  1
  H  H63  1  0.81840000  0.90934000  0.40934000  1
  H  H64  1  0.95154000  0.05068000  0.10358000  1
  H  H65  1  0.95154000  0.39642000  0.44932000  1
  H  H66  1  0.95154000  0.60358000  0.55068000  1
  H  H67  1  0.95154000  0.94932000  0.89642000  1
  H  H68  1  0.95495000  0.19781000  0.10211000  1
  H  H69  1  0.95495000  0.39789000  0.30219000  1
  H  H70  1  0.95495000  0.60211000  0.69781000  1
  H  H71  1  0.95495000  0.80219000  0.89789000  1
  C  C72  1  0.07870000  0.05500000  0.83450000  1
  C  C73  1  0.07870000  0.33450000  0.55500000  1
  C  C74  1  0.07870000  0.66550000  0.44500000  1
  C  C75  1  0.07870000  0.94500000  0.16550000  1
  C  C76  1  0.08050000  0.05600000  0.91610000  1
  C  C77  1  0.08050000  0.41610000  0.55600000  1
  C  C78  1  0.08050000  0.58390000  0.44400000  1
  C  C79  1  0.08050000  0.94400000  0.08390000  1
  C  C80  1  0.09140000  0.50000000  0.00000000  1
  C  C81  1  0.11530000  0.00050000  0.79550000  1
  C  C82  1  0.11530000  0.29550000  0.50050000  1
  C  C83  1  0.11530000  0.70450000  0.49950000  1
  C  C84  1  0.11530000  0.99950000  0.20450000  1
  C  C85  1  0.11730000  0.00050000  0.29080000  1
  C  C86  1  0.11730000  0.20920000  0.49950000  1
  C  C87  1  0.11730000  0.79080000  0.50050000  1
  C  C88  1  0.11730000  0.99950000  0.70920000  1
  C  C89  1  0.11860000  0.00290000  0.95580000  1
  C  C90  1  0.11860000  0.45580000  0.50290000  1
  C  C91  1  0.11860000  0.54420000  0.49710000  1
  C  C92  1  0.11860000  0.99710000  0.04420000  1
  C  C93  1  0.15350000  0.05290000  0.16780000  1
  C  C94  1  0.15350000  0.33220000  0.44710000  1
  C  C95  1  0.15350000  0.66780000  0.55290000  1
  C  C96  1  0.15350000  0.94710000  0.83220000  1
  C  C97  1  0.15430000  0.05060000  0.08170000  1
  C  C98  1  0.15430000  0.41830000  0.44940000  1
  C  C99  1  0.15430000  0.58170000  0.55060000  1
  C  C100  1  0.15430000  0.94940000  0.91830000  1
  C  C101  1  0.17180000  0.50000000  0.00000000  1
  C  C102  1  0.21410000  0.45020000  0.04980000  1
  C  C103  1  0.21410000  0.54980000  0.95020000  1
  C  C104  1  0.22910000  0.17340000  0.08210000  1
  C  C105  1  0.22910000  0.41790000  0.32660000  1
  C  C106  1  0.22910000  0.82660000  0.91790000  1
  C  C107  1  0.29600000  0.45100000  0.04900000  1
  C  C108  1  0.29600000  0.54900000  0.95100000  1
  C  C109  1  0.32370000  0.00000000  0.50000000  1
  C  C110  1  0.34020000  0.50000000  0.00000000  1
  C  C111  1  0.41530000  0.00000000  0.50000000  1
  C  C112  1  0.42150000  0.50000000  0.00000000  1
  C  C113  1  0.45080000  0.05020000  0.44980000  1
  C  C114  1  0.45080000  0.94980000  0.55020000  1
  C  C115  1  0.46760000  0.45094000  0.95094000  1
  C  C116  1  0.46760000  0.54906000  0.04906000  1
  C  C117  1  0.48110000  0.64250000  0.14250000  1
  C  C118  1  0.51890000  0.85750000  0.64250000  1
  C  C119  1  0.53240000  0.04906000  0.45094000  1
  C  C120  1  0.53240000  0.95094000  0.54906000  1
  C  C121  1  0.54920000  0.44980000  0.94980000  1
  C  C122  1  0.54920000  0.55020000  0.05020000  1
  C  C123  1  0.57850000  0.00000000  0.50000000  1
  C  C124  1  0.58470000  0.50000000  0.00000000  1
  C  C125  1  0.65980000  0.00000000  0.50000000  1
  C  C126  1  0.67630000  0.50000000  0.00000000  1
  C  C127  1  0.70400000  0.04900000  0.54900000  1
  C  C128  1  0.70400000  0.95100000  0.45100000  1
  C  C129  1  0.77090000  0.08210000  0.82660000  1
  C  C130  1  0.77090000  0.67340000  0.41790000  1
  C  C131  1  0.77090000  0.91790000  0.17340000  1
  C  C132  1  0.78590000  0.04980000  0.54980000  1
  C  C133  1  0.78590000  0.95020000  0.45020000  1
  C  C134  1  0.82820000  0.00000000  0.50000000  1
  C  C135  1  0.84570000  0.08170000  0.94940000  1
  C  C136  1  0.84570000  0.44940000  0.58170000  1
  C  C137  1  0.84570000  0.55060000  0.41830000  1
  C  C138  1  0.84570000  0.91830000  0.05060000  1
  C  C139  1  0.84650000  0.16780000  0.94710000  1
  C  C140  1  0.84650000  0.44710000  0.66780000  1
  C  C141  1  0.84650000  0.55290000  0.33220000  1
  C  C142  1  0.84650000  0.83220000  0.05290000  1
  C  C143  1  0.88140000  0.04420000  0.00290000  1
  C  C144  1  0.88140000  0.49710000  0.45580000  1
  C  C145  1  0.88140000  0.50290000  0.54420000  1
  C  C146  1  0.88140000  0.95580000  0.99710000  1
  C  C147  1  0.88270000  0.29080000  0.99950000  1
  C  C148  1  0.88270000  0.49950000  0.79080000  1
  C  C149  1  0.88270000  0.50050000  0.20920000  1
  C  C150  1  0.88270000  0.70920000  0.00050000  1
  C  C151  1  0.88470000  0.20450000  0.00050000  1
  C  C152  1  0.88470000  0.49950000  0.29550000  1
  C  C153  1  0.88470000  0.50050000  0.70450000  1
  C  C154  1  0.88470000  0.79550000  0.99950000  1
  C  C155  1  0.90860000  0.00000000  0.50000000  1
  C  C156  1  0.91950000  0.08390000  0.05600000  1
  C  C157  1  0.91950000  0.44400000  0.41610000  1
  C  C158  1  0.91950000  0.55600000  0.58390000  1
  C  C159  1  0.91950000  0.91610000  0.94400000  1
  C  C160  1  0.92130000  0.16550000  0.05500000  1
  C  C161  1  0.92130000  0.44500000  0.33450000  1
  C  C162  1  0.92130000  0.55500000  0.66550000  1
  C  C163  1  0.92130000  0.83450000  0.94500000  1
  O  O164  1  0.05580000  0.44750000  0.05250000  1
  O  O165  1  0.05580000  0.55250000  0.94750000  1
  O  O166  1  0.07200000  0.04960000  0.67477000  1
  O  O167  1  0.07200000  0.17477000  0.54960000  1
  O  O168  1  0.07200000  0.82523000  0.45040000  1
  O  O169  1  0.07200000  0.95040000  0.32523000  1
  O  O170  1  0.11900000  0.00000000  0.50000000  1
  O  O171  1  0.15770000  0.04830000  0.32540000  1
  O  O172  1  0.15770000  0.17460000  0.45170000  1
  O  O173  1  0.15770000  0.82540000  0.54830000  1
  O  O174  1  0.15770000  0.95170000  0.67460000  1
  O  O175  1  0.19310000  0.11410000  0.03730000  1
  O  O176  1  0.19310000  0.46270000  0.38590000  1
  O  O177  1  0.19310000  0.88590000  0.96270000  1
  O  O178  1  0.29100000  0.05400000  0.44600000  1
  O  O179  1  0.29100000  0.94600000  0.55400000  1
  O  O180  1  0.42930000  0.59900000  0.09900000  1
  O  O181  1  0.57070000  0.90100000  0.59900000  1
  O  O182  1  0.70900000  0.44600000  0.94600000  1
  O  O183  1  0.70900000  0.55400000  0.05400000  1
  O  O184  1  0.80690000  0.03730000  0.88590000  1
  O  O185  1  0.80690000  0.61410000  0.46270000  1
  O  O186  1  0.80690000  0.96270000  0.11410000  1
  O  O187  1  0.84230000  0.32540000  0.95170000  1
  O  O188  1  0.84230000  0.45170000  0.82540000  1
  O  O189  1  0.84230000  0.54830000  0.17460000  1
  O  O190  1  0.84230000  0.67460000  0.04830000  1
  O  O191  1  0.88100000  0.50000000  0.00000000  1
  O  O192  1  0.92800000  0.32523000  0.04960000  1
  O  O193  1  0.92800000  0.45040000  0.17477000  1
  O  O194  1  0.92800000  0.54960000  0.82523000  1
  O  O195  1  0.92800000  0.67477000  0.95040000  1
  O  O196  1  0.94420000  0.05250000  0.55250000  1
  O  O197  1  0.94420000  0.94750000  0.44750000  1
