# generated using pymatgen
data_FeH8Au2(C2N)8
_symmetry_space_group_name_H-M   'P 1'
_cell_length_a   9.39780000
_cell_length_b   15.44380946
_cell_length_c   15.44380946
_cell_angle_alpha   115.99449451
_cell_angle_beta   101.70299932
_cell_angle_gamma   101.70299932
_symmetry_Int_Tables_number   1
_chemical_formula_structural   FeH8Au2(C2N)8
_chemical_formula_sum   'Fe3 H24 Au6 C48 N24'
_cell_volume   1861.31263530
_cell_formula_units_Z   3
loop_
 _symmetry_equiv_pos_site_id
 _symmetry_equiv_pos_as_xyz
  1  'x, y, z'
loop_
 _atom_site_type_symbol
 _atom_site_label
 _atom_site_symmetry_multiplicity
 _atom_site_fract_x
 _atom_site_fract_y
 _atom_site_fract_z
 _atom_site_occupancy
  Au  Au0  1  1.00000000  0.70623000  0.29377000  1
  Au  Au1  1  1.00000000  0.29377000  0.70623000  1
  Au  Au2  1  0.70623000  0.70623000  0.41246000  1
  Au  Au3  1  0.70623000  0.41246000  0.70623000  1
  Au  Au4  1  0.29377000  0.58754000  0.29377000  1
  Au  Au5  1  0.29377000  0.29377000  0.58754000  1
  C  C6  1  0.79260000  0.60350000  0.42600000  1
  C  C7  1  0.79260000  0.42600000  0.60350000  1
  C  C8  1  0.36295000  1.00000000  0.08715000  1
  C  C9  1  0.36295000  0.08715000  1.00000000  1
  C  C10  1  0.36940000  0.90890000  0.18560000  1
  C  C11  1  0.36940000  0.18560000  0.90890000  1
  C  C12  1  0.72420000  0.08715000  0.08715000  1
  C  C13  1  0.39625000  0.00000000  0.18285000  1
  C  C14  1  0.39625000  0.18285000  1.00000000  1
  C  C15  1  0.40350000  0.91230000  0.27910000  1
  C  C16  1  0.40350000  0.27910000  0.91230000  1
  C  C17  1  0.18910000  0.82250000  0.39650000  1
  C  C18  1  0.18910000  0.39650000  0.82250000  1
  C  C19  1  0.63340000  0.82250000  0.42600000  1
  C  C20  1  0.63340000  0.42600000  0.82250000  1
  C  C21  1  0.12440000  0.72090000  0.63320000  1
  C  C22  1  0.12440000  0.63320000  0.72090000  1
  C  C23  1  0.78660000  0.18285000  0.18285000  1
  C  C24  1  0.46050000  0.09110000  0.27670000  1
  C  C25  1  0.46050000  0.27670000  0.09110000  1
  C  C26  1  0.49120000  0.08770000  0.36680000  1
  C  C27  1  0.49120000  0.36680000  0.08770000  1
  C  C28  1  0.81620000  0.27670000  0.18560000  1
  C  C29  1  0.81620000  0.18560000  0.27670000  1
  C  C30  1  0.18380000  0.81440000  0.72330000  1
  C  C31  1  0.18380000  0.72330000  0.81440000  1
  C  C32  1  0.50880000  0.91230000  0.63320000  1
  C  C33  1  0.50880000  0.63320000  0.91230000  1
  C  C34  1  0.53950000  0.90890000  0.72330000  1
  C  C35  1  0.53950000  0.72330000  0.90890000  1
  C  C36  1  0.21340000  0.81715000  0.81715000  1
  C  C37  1  0.87560000  0.36680000  0.27910000  1
  C  C38  1  0.87560000  0.27910000  0.36680000  1
  C  C39  1  0.36660000  0.17750000  0.57400000  1
  C  C40  1  0.36660000  0.57400000  0.17750000  1
  C  C41  1  0.81090000  0.17750000  0.60350000  1
  C  C42  1  0.81090000  0.60350000  0.17750000  1
  C  C43  1  0.59650000  0.08770000  0.72090000  1
  C  C44  1  0.59650000  0.72090000  0.08770000  1
  C  C45  1  0.60375000  0.00000000  0.81715000  1
  C  C46  1  0.60375000  0.81715000  1.00000000  1
  C  C47  1  0.27580000  0.91285000  0.91285000  1
  C  C48  1  0.63060000  0.09110000  0.81440000  1
  C  C49  1  0.63060000  0.81440000  0.09110000  1
  C  C50  1  0.63705000  1.00000000  0.91285000  1
  C  C51  1  0.63705000  0.91285000  1.00000000  1
  C  C52  1  0.20740000  0.57400000  0.39650000  1
  C  C53  1  0.20740000  0.39650000  0.57400000  1
  Fe  Fe54  1  1.00000000  0.50000000  0.50000000  1
  Fe  Fe55  1  0.50000000  1.00000000  0.50000000  1
  Fe  Fe56  1  0.50000000  0.50000000  1.00000000  1
  H  H57  1  0.67110000  0.87480000  0.15370000  1
  H  H58  1  0.67110000  0.15370000  0.87480000  1
  H  H59  1  0.38640000  0.85090000  0.27960000  1
  H  H60  1  0.38640000  0.27960000  0.85090000  1
  H  H61  1  0.10680000  0.72040000  0.57130000  1
  H  H62  1  0.10680000  0.57130000  0.72040000  1
  H  H63  1  0.79630000  0.12520000  0.27890000  1
  H  H64  1  0.79630000  0.27890000  0.12520000  1
  H  H65  1  0.46450000  0.85090000  0.57130000  1
  H  H66  1  0.46450000  0.57130000  0.85090000  1
  H  H67  1  0.48260000  0.27890000  0.15370000  1
  H  H68  1  0.48260000  0.15370000  0.27890000  1
  H  H69  1  0.51740000  0.84630000  0.72110000  1
  H  H70  1  0.51740000  0.72110000  0.84630000  1
  H  H71  1  0.53550000  0.14910000  0.42870000  1
  H  H72  1  0.53550000  0.42870000  0.14910000  1
  H  H73  1  0.20370000  0.87480000  0.72110000  1
  H  H74  1  0.20370000  0.72110000  0.87480000  1
  H  H75  1  0.89320000  0.42870000  0.27960000  1
  H  H76  1  0.89320000  0.27960000  0.42870000  1
  H  H77  1  0.61360000  0.14910000  0.72040000  1
  H  H78  1  0.61360000  0.72040000  0.14910000  1
  H  H79  1  0.32890000  0.12520000  0.84630000  1
  H  H80  1  0.32890000  0.84630000  0.12520000  1
  N  N81  1  0.85820000  0.55690000  0.44980000  1
  N  N82  1  0.85820000  0.44980000  0.55690000  1
  N  N83  1  0.69775000  0.00000000  0.09075000  1
  N  N84  1  0.69775000  0.09075000  1.00000000  1
  N  N85  1  0.39300000  0.09075000  0.09075000  1
  N  N86  1  0.09120000  0.63150000  0.63150000  1
  N  N87  1  0.30130000  0.89290000  0.44310000  1
  N  N88  1  0.30130000  0.44310000  0.89290000  1
  N  N89  1  0.59160000  0.89290000  0.44980000  1
  N  N90  1  0.59160000  0.44980000  0.89290000  1
  N  N91  1  0.45970000  1.00000000  0.36850000  1
  N  N92  1  0.45970000  0.36850000  1.00000000  1
  N  N93  1  0.54030000  0.00000000  0.63150000  1
  N  N94  1  0.54030000  0.63150000  1.00000000  1
  N  N95  1  0.40840000  0.10710000  0.55020000  1
  N  N96  1  0.40840000  0.55020000  0.10710000  1
  N  N97  1  0.69870000  0.10710000  0.55690000  1
  N  N98  1  0.69870000  0.55690000  0.10710000  1
  N  N99  1  0.90880000  0.36850000  0.36850000  1
  N  N100  1  0.60700000  0.90925000  0.90925000  1
  N  N101  1  0.30225000  0.00000000  0.90925000  1
  N  N102  1  0.30225000  0.90925000  1.00000000  1
  N  N103  1  0.14180000  0.55020000  0.44310000  1
  N  N104  1  0.14180000  0.44310000  0.55020000  1
