# generated using pymatgen
data_KCdH2Ru2C4O13
_symmetry_space_group_name_H-M   'P 1'
_cell_length_a   9.36110000
_cell_length_b   9.92100000
_cell_length_c   10.01500000
_cell_angle_alpha   85.03000000
_cell_angle_beta   85.81000000
_cell_angle_gamma   65.09000000
_symmetry_Int_Tables_number   1
_chemical_formula_structural   KCdH2Ru2C4O13
_chemical_formula_sum   'K2 Cd2 H4 Ru4 C8 O26'
_cell_volume   839.71988252
_cell_formula_units_Z   2
loop_
 _symmetry_equiv_pos_site_id
 _symmetry_equiv_pos_as_xyz
  1  'x, y, z'
loop_
 _atom_site_type_symbol
 _atom_site_label
 _atom_site_symmetry_multiplicity
 _atom_site_fract_x
 _atom_site_fract_y
 _atom_site_fract_z
 _atom_site_occupancy
  K  K0  1  0.00000000  0.50000000  0.50000000  1
  K  K1  1  0.50000000  0.50000000  0.00000000  1
  Cd  Cd2  1  0.43973000  0.96054000  0.17638000  1
  Cd  Cd3  1  0.56027000  0.03946000  0.82362000  1
  H  H4  1  0.38670000  0.79280000  0.00620000  1
  H  H5  1  0.38940000  0.72090000  0.13180000  1
  H  H6  1  0.61060000  0.27910000  0.86820000  1
  H  H7  1  0.61330000  0.20720000  0.99380000  1
  Ru  Ru8  1  0.05276000  0.54466000  0.91174000  1
  Ru  Ru9  1  0.41975000  0.51738000  0.41548000  1
  Ru  Ru10  1  0.58025000  0.48262000  0.58452000  1
  Ru  Ru11  1  0.94724000  0.45534000  0.08826000  1
  C  C12  1  0.17350000  0.55640000  0.16630000  1
  C  C13  1  0.23550000  0.23260000  0.97230000  1
  C  C14  1  0.25000000  0.61830000  0.66666667  1
  C  C15  1  0.48170000  0.24440000  0.57530000  1
  C  C16  1  0.51830000  0.75560000  0.42470000  1
  C  C17  1  0.75000000  0.38170000  0.33333333  1
  C  C18  1  0.76450000  0.76740000  0.02770000  1
  C  C19  1  0.82650000  0.44360000  0.83370000  1
  O  O20  1  0.07920000  0.49850000  0.21730000  1
  O  O21  1  0.12340000  0.25180000  0.06330000  1
  O  O22  1  0.13120000  0.67140000  0.74590000  1
  O  O23  1  0.18470000  0.58490000  0.03880000  1
  O  O24  1  0.22960000  0.34040000  0.88820000  1
  O  O25  1  0.23190000  0.60620000  0.54200000  1
  O  O26  1  0.25650000  0.58940000  0.24110000  1
  O  O27  1  0.34750000  0.10410000  0.96880000  1
  O  O28  1  0.35360000  0.80460000  0.08750000  1
  O  O29  1  0.39070000  0.57580000  0.71130000  1
  O  O30  1  0.41450000  0.31700000  0.46560000  1
  O  O31  1  0.42560000  0.71670000  0.36550000  1
  O  O32  1  0.45570000  0.13380000  0.62380000  1
  O  O33  1  0.54430000  0.86620000  0.37620000  1
  O  O34  1  0.57440000  0.28330000  0.63450000  1
  O  O35  1  0.58550000  0.68300000  0.53440000  1
  O  O36  1  0.60930000  0.42420000  0.28870000  1
  O  O37  1  0.64640000  0.19540000  0.91250000  1
  O  O38  1  0.65250000  0.89590000  0.03120000  1
  O  O39  1  0.74350000  0.41060000  0.75890000  1
  O  O40  1  0.76810000  0.39380000  0.45800000  1
  O  O41  1  0.77040000  0.65960000  0.11180000  1
  O  O42  1  0.81530000  0.41510000  0.96120000  1
  O  O43  1  0.86880000  0.32860000  0.25410000  1
  O  O44  1  0.87660000  0.74820000  0.93670000  1
  O  O45  1  0.92080000  0.50150000  0.78270000  1
