# generated using pymatgen
data_Li2Ga(PO4)4
_symmetry_space_group_name_H-M   'P 1'
_cell_length_a   14.58343479
_cell_length_b   14.58343479
_cell_length_c   14.58343479
_cell_angle_alpha   109.47122063
_cell_angle_beta   109.47122063
_cell_angle_gamma   109.47122063
_symmetry_Int_Tables_number   1
_chemical_formula_structural   Li2Ga(PO4)4
_chemical_formula_sum   'Li6 Ga3 P12 O48'
_cell_volume   2387.57806911
_cell_formula_units_Z   3
loop_
 _symmetry_equiv_pos_site_id
 _symmetry_equiv_pos_as_xyz
  1  'x, y, z'
loop_
 _atom_site_type_symbol
 _atom_site_label
 _atom_site_symmetry_multiplicity
 _atom_site_fract_x
 _atom_site_fract_y
 _atom_site_fract_z
 _atom_site_occupancy
  Ga  Ga0  1  0.00000000  0.50000000  0.50000000  1
  Ga  Ga1  1  0.50000000  0.00000000  0.50000000  1
  Ga  Ga2  1  0.50000000  0.50000000  1.00000000  1
  Li  Li3  1  0.25000000  0.50000000  0.75000000  1
  Li  Li4  1  0.50000000  0.75000000  0.25000000  1
  Li  Li5  1  0.50000000  0.25000000  0.75000000  1
  Li  Li6  1  0.75000000  0.50000000  0.25000000  1
  Li  Li7  1  0.25000000  0.75000000  0.50000000  1
  Li  Li8  1  0.75000000  0.25000000  0.50000000  1
  O  O9  1  0.32238000  0.60889000  0.89851000  1
  O  O10  1  0.42387000  0.71038000  0.10149000  1
  O  O11  1  0.60889000  0.32238000  0.89851000  1
  O  O12  1  0.71038000  0.42387000  0.10149000  1
  O  O13  1  0.11648000  0.48844000  0.48844000  1
  O  O14  1  0.48844000  0.11648000  0.48844000  1
  O  O15  1  0.62804000  0.00000000  0.51156000  1
  O  O16  1  1.00000000  0.62804000  0.51156000  1
  O  O17  1  0.51156000  0.62804000  1.00000000  1
  O  O18  1  0.62804000  0.51156000  1.00000000  1
  O  O19  1  0.28651000  0.57613000  0.67762000  1
  O  O20  1  0.57613000  0.28651000  0.67762000  1
  O  O21  1  0.60889000  0.89851000  0.32238000  1
  O  O22  1  0.89851000  0.60889000  0.32238000  1
  O  O23  1  0.29324000  0.49912000  0.49912000  1
  O  O24  1  0.49912000  0.29324000  0.49912000  1
  O  O25  1  0.79412000  0.00000000  0.50088000  1
  O  O26  1  1.00000000  0.79412000  0.50088000  1
  O  O27  1  0.50088000  0.79412000  0.00000000  1
  O  O28  1  0.79412000  0.50088000  1.00000000  1
  O  O29  1  0.28651000  0.67762000  0.57613000  1
  O  O30  1  0.67762000  0.28651000  0.57613000  1
  O  O31  1  0.71038000  0.10149000  0.42387000  1
  O  O32  1  0.10149000  0.71038000  0.42387000  1
  O  O33  1  0.32238000  0.89851000  0.60889000  1
  O  O34  1  0.71349000  0.28962000  0.39111000  1
  O  O35  1  0.89851000  0.32238000  0.60889000  1
  O  O36  1  0.28962000  0.71349000  0.39111000  1
  O  O37  1  0.49912000  0.49912000  0.29324000  1
  O  O38  1  0.20588000  0.20588000  0.70676000  1
  O  O39  1  0.50088000  1.00000000  0.79412000  1
  O  O40  1  0.70676000  0.20588000  0.20588000  1
  O  O41  1  0.00000000  0.50088000  0.79412000  1
  O  O42  1  0.20588000  0.70676000  0.20588000  1
  O  O43  1  0.42387000  0.10149000  0.71038000  1
  O  O44  1  0.71349000  0.39111000  0.28962000  1
  O  O45  1  0.10149000  0.42387000  0.71038000  1
  O  O46  1  0.39111000  0.71349000  0.28962000  1
  O  O47  1  0.48844000  0.48844000  0.11648000  1
  O  O48  1  0.37196000  0.37196000  0.88352000  1
  O  O49  1  0.51156000  1.00000000  0.62804000  1
  O  O50  1  0.88352000  0.37196000  0.37196000  1
  O  O51  1  1.00000000  0.51156000  0.62804000  1
  O  O52  1  0.37196000  0.88352000  0.37196000  1
  O  O53  1  0.57613000  0.67762000  0.28651000  1
  O  O54  1  0.67762000  0.57613000  0.28651000  1
  O  O55  1  0.28962000  0.39111000  0.71349000  1
  O  O56  1  0.39111000  0.28962000  0.71349000  1
  P  P57  1  0.44165000  0.68827000  0.00000000  1
  P  P58  1  0.68827000  0.44165000  1.00000000  1
  P  P59  1  0.24662000  0.55835000  0.55835000  1
  P  P60  1  0.55835000  0.24662000  0.55835000  1
  P  P61  1  0.68827000  0.00000000  0.44165000  1
  P  P62  1  1.00000000  0.68827000  0.44165000  1
  P  P63  1  0.44165000  1.00000000  0.68827000  1
  P  P64  1  0.75338000  0.31173000  0.31173000  1
  P  P65  1  0.00000000  0.44165000  0.68827000  1
  P  P66  1  0.31173000  0.75338000  0.31173000  1
  P  P67  1  0.55835000  0.55835000  0.24662000  1
  P  P68  1  0.31173000  0.31173000  0.75338000  1
