# generated using pymatgen
data_CdH24(C5N2)6
_symmetry_space_group_name_H-M   'P 1'
_cell_length_a   16.52800000
_cell_length_b   17.57300000
_cell_length_c   17.59500000
_cell_angle_alpha   90.00000000
_cell_angle_beta   90.00000000
_cell_angle_gamma   90.00000000
_symmetry_Int_Tables_number   1
_chemical_formula_structural   CdH24(C5N2)6
_chemical_formula_sum   'Cd4 H96 C120 N48'
_cell_volume   5110.40694168
_cell_formula_units_Z   4
loop_
 _symmetry_equiv_pos_site_id
 _symmetry_equiv_pos_as_xyz
  1  'x, y, z'
loop_
 _atom_site_type_symbol
 _atom_site_label
 _atom_site_symmetry_multiplicity
 _atom_site_fract_x
 _atom_site_fract_y
 _atom_site_fract_z
 _atom_site_occupancy
  Cd  Cd0  1  0.00000000  0.00000000  0.50000000  1
  Cd  Cd1  1  0.50000000  1.00000000  1.00000000  1
  Cd  Cd2  1  0.00000000  0.50000000  1.00000000  1
  Cd  Cd3  1  0.50000000  0.50000000  0.50000000  1
  H  H4  1  0.47600000  0.98890000  0.19400000  1
  H  H5  1  0.02400000  0.98890000  0.69400000  1
  H  H6  1  0.78820000  0.97960000  0.52440000  1
  H  H7  1  0.71180000  0.97960000  0.02440000  1
  H  H8  1  0.37110000  0.93560000  0.85580000  1
  H  H9  1  0.12890000  0.93560000  0.35580000  1
  H  H10  1  0.37430000  0.91990000  0.26840000  1
  H  H11  1  0.12570000  0.91990000  0.76840000  1
  H  H12  1  0.28100000  0.90330000  0.77260000  1
  H  H13  1  0.21900000  0.90330000  0.27260000  1
  H  H14  1  0.32890000  0.89090000  0.05060000  1
  H  H15  1  0.17110000  0.89090000  0.55060000  1
  H  H16  1  0.78040000  0.87720000  0.09020000  1
  H  H17  1  0.71960000  0.87720000  0.59020000  1
  H  H18  1  0.95610000  0.84380000  0.60410000  1
  H  H19  1  0.54390000  0.84380000  0.10410000  1
  H  H20  1  0.95200000  0.81490000  0.43650000  1
  H  H21  1  0.54800000  0.81490000  0.93650000  1
  H  H22  1  0.91680000  0.78110000  0.72780000  1
  H  H23  1  0.58320000  0.78110000  0.22780000  1
  H  H24  1  0.27960000  0.76410000  0.10020000  1
  H  H25  1  0.22040000  0.76410000  0.60020000  1
  H  H26  1  0.99070000  0.75600000  0.83140000  1
  H  H27  1  0.50930000  0.75600000  0.33140000  1
  H  H28  1  0.49070000  0.74400000  0.83140000  1
  H  H29  1  0.00930000  0.74400000  0.33140000  1
  H  H30  1  0.77960000  0.73590000  0.10020000  1
  H  H31  1  0.72040000  0.73590000  0.60020000  1
  H  H32  1  0.41680000  0.71890000  0.72780000  1
  H  H33  1  0.08320000  0.71890000  0.22780000  1
  H  H34  1  0.45200000  0.68510000  0.43650000  1
  H  H35  1  0.04800000  0.68510000  0.93650000  1
  H  H36  1  0.45610000  0.65620000  0.60410000  1
  H  H37  1  0.04390000  0.65620000  0.10410000  1
  H  H38  1  0.28040000  0.62280000  0.09020000  1
  H  H39  1  0.21960000  0.62280000  0.59020000  1
  H  H40  1  0.82890000  0.60910000  0.05060000  1
  H  H41  1  0.67110000  0.60910000  0.55060000  1
  H  H42  1  0.78100000  0.59670000  0.77260000  1
  H  H43  1  0.71900000  0.59670000  0.27260000  1
  H  H44  1  0.87430000  0.58010000  0.26840000  1
  H  H45  1  0.62570000  0.58010000  0.76840000  1
  H  H46  1  0.87110000  0.56440000  0.85580000  1
  H  H47  1  0.62890000  0.56440000  0.35580000  1
  H  H48  1  0.28820000  0.52040000  0.52440000  1
  H  H49  1  0.21180000  0.52040000  0.02440000  1
  H  H50  1  0.97600000  0.51110000  0.19400000  1
  H  H51  1  0.52400000  0.51110000  0.69400000  1
  H  H52  1  0.47600000  0.48890000  0.30600000  1
  H  H53  1  0.02400000  0.48890000  0.80600000  1
  H  H54  1  0.78820000  0.47960000  0.97560000  1
  H  H55  1  0.71180000  0.47960000  0.47560000  1
  H  H56  1  0.37110000  0.43560000  0.64420000  1
  H  H57  1  0.12890000  0.43560000  0.14420000  1
  H  H58  1  0.37430000  0.41990000  0.23160000  1
  H  H59  1  0.12570000  0.41990000  0.73160000  1
  H  H60  1  0.28100000  0.40330000  0.72740000  1
  H  H61  1  0.21900000  0.40330000  0.22740000  1
  H  H62  1  0.32890000  0.39090000  0.44940000  1
  H  H63  1  0.17110000  0.39090000  0.94940000  1
  H  H64  1  0.78040000  0.37720000  0.40980000  1
  H  H65  1  0.71960000  0.37720000  0.90980000  1
  H  H66  1  0.95610000  0.34380000  0.89590000  1
  H  H67  1  0.54390000  0.34380000  0.39590000  1
  H  H68  1  0.95200000  0.31490000  0.06350000  1
  H  H69  1  0.54800000  0.31490000  0.56350000  1
  H  H70  1  0.91680000  0.28110000  0.77220000  1
  H  H71  1  0.58320000  0.28110000  0.27220000  1
  H  H72  1  0.27960000  0.26410000  0.39980000  1
  H  H73  1  0.22040000  0.26410000  0.89980000  1
  H  H74  1  0.99070000  0.25600000  0.66860000  1
  H  H75  1  0.50930000  0.25600000  0.16860000  1
  H  H76  1  0.49070000  0.24400000  0.66860000  1
  H  H77  1  0.00930000  0.24400000  0.16860000  1
  H  H78  1  0.77960000  0.23590000  0.39980000  1
  H  H79  1  0.72040000  0.23590000  0.89980000  1
  H  H80  1  0.41680000  0.21890000  0.77220000  1
  H  H81  1  0.08320000  0.21890000  0.27220000  1
  H  H82  1  0.45200000  0.18510000  0.06350000  1
  H  H83  1  0.04800000  0.18510000  0.56350000  1
  H  H84  1  0.45610000  0.15620000  0.89590000  1
  H  H85  1  0.04390000  0.15620000  0.39590000  1
  H  H86  1  0.28040000  0.12280000  0.40980000  1
  H  H87  1  0.21960000  0.12280000  0.90980000  1
  H  H88  1  0.82890000  0.10910000  0.44940000  1
  H  H89  1  0.67110000  0.10910000  0.94940000  1
  H  H90  1  0.78100000  0.09670000  0.72740000  1
  H  H91  1  0.71900000  0.09670000  0.22740000  1
  H  H92  1  0.87430000  0.08010000  0.23160000  1
  H  H93  1  0.62570000  0.08010000  0.73160000  1
  H  H94  1  0.87110000  0.06440000  0.64420000  1
  H  H95  1  0.62890000  0.06440000  0.14420000  1
  H  H96  1  0.28820000  0.02040000  0.97560000  1
  H  H97  1  0.21180000  0.02040000  0.47560000  1
  H  H98  1  0.97600000  0.01110000  0.30600000  1
  H  H99  1  0.52400000  0.01110000  0.80600000  1
  C  C100  1  0.43330000  0.96070000  0.17420000  1
  C  C101  1  0.06670000  0.96070000  0.67420000  1
  C  C102  1  0.81340000  0.93880000  0.54820000  1
  C  C103  1  0.68660000  0.93880000  0.04820000  1
  C  C104  1  0.37720000  0.92280000  0.21570000  1
  C  C105  1  0.12280000  0.92280000  0.71570000  1
  C  C106  1  0.35280000  0.90750000  0.09540000  1
  C  C107  1  0.14720000  0.90750000  0.59540000  1
  C  C108  1  0.40810000  0.89650000  0.86330000  1
  C  C109  1  0.09190000  0.89650000  0.36330000  1
  C  C110  1  0.77520000  0.88280000  0.58450000  1
  C  C111  1  0.72480000  0.88280000  0.08450000  1
  C  C112  1  0.90610000  0.86440000  0.59160000  1
  C  C113  1  0.59390000  0.86440000  0.09160000  1
  C  C114  1  0.29200000  0.86060000  0.74310000  1
  C  C115  1  0.20800000  0.86060000  0.24310000  1
  C  C116  1  0.25760000  0.84110000  0.18310000  1
  C  C117  1  0.24240000  0.84110000  0.68310000  1
  C  C118  1  0.99570000  0.83060000  0.40700000  1
  C  C119  1  0.50430000  0.83060000  0.90700000  1
  C  C120  1  0.35830000  0.81540000  0.75860000  1
  C  C121  1  0.14170000  0.81540000  0.25860000  1
  C  C122  1  0.47340000  0.79110000  0.84910000  1
  C  C123  1  0.02660000  0.79110000  0.34910000  1
  C  C124  1  0.25540000  0.77690000  0.63950000  1
  C  C125  1  0.24460000  0.77690000  0.13950000  1
  C  C126  1  0.82110000  0.76700000  0.65570000  1
  C  C127  1  0.67890000  0.76700000  0.15570000  1
  C  C128  1  0.37320000  0.75030000  0.71630000  1
  C  C129  1  0.12680000  0.75030000  0.21630000  1
  C  C130  1  0.87320000  0.74970000  0.71630000  1
  C  C131  1  0.62680000  0.74970000  0.21630000  1
  C  C132  1  0.32110000  0.73300000  0.65570000  1
  C  C133  1  0.17890000  0.73300000  0.15570000  1
  C  C134  1  0.75540000  0.72310000  0.63950000  1
  C  C135  1  0.74460000  0.72310000  0.13950000  1
  C  C136  1  0.97340000  0.70890000  0.84910000  1
  C  C137  1  0.52660000  0.70890000  0.34910000  1
  C  C138  1  0.85830000  0.68460000  0.75860000  1
  C  C139  1  0.64170000  0.68460000  0.25860000  1
  C  C140  1  0.49570000  0.66940000  0.40700000  1
  C  C141  1  0.00430000  0.66940000  0.90700000  1
  C  C142  1  0.75760000  0.65890000  0.18310000  1
  C  C143  1  0.74240000  0.65890000  0.68310000  1
  C  C144  1  0.79200000  0.63940000  0.74310000  1
  C  C145  1  0.70800000  0.63940000  0.24310000  1
  C  C146  1  0.40610000  0.63560000  0.59160000  1
  C  C147  1  0.09390000  0.63560000  0.09160000  1
  C  C148  1  0.27520000  0.61720000  0.58450000  1
  C  C149  1  0.22480000  0.61720000  0.08450000  1
  C  C150  1  0.90810000  0.60350000  0.86330000  1
  C  C151  1  0.59190000  0.60350000  0.36330000  1
  C  C152  1  0.85280000  0.59250000  0.09540000  1
  C  C153  1  0.64720000  0.59250000  0.59540000  1
  C  C154  1  0.87720000  0.57720000  0.21570000  1
  C  C155  1  0.62280000  0.57720000  0.71570000  1
  C  C156  1  0.31340000  0.56120000  0.54820000  1
  C  C157  1  0.18660000  0.56120000  0.04820000  1
  C  C158  1  0.93330000  0.53930000  0.17420000  1
  C  C159  1  0.56670000  0.53930000  0.67420000  1
  C  C160  1  0.43330000  0.46070000  0.32580000  1
  C  C161  1  0.06670000  0.46070000  0.82580000  1
  C  C162  1  0.81340000  0.43880000  0.95180000  1
  C  C163  1  0.68660000  0.43880000  0.45180000  1
  C  C164  1  0.37720000  0.42280000  0.28430000  1
  C  C165  1  0.12280000  0.42280000  0.78430000  1
  C  C166  1  0.35280000  0.40750000  0.40460000  1
  C  C167  1  0.14720000  0.40750000  0.90460000  1
  C  C168  1  0.40810000  0.39650000  0.63670000  1
  C  C169  1  0.09190000  0.39650000  0.13670000  1
  C  C170  1  0.77520000  0.38280000  0.91550000  1
  C  C171  1  0.72480000  0.38280000  0.41550000  1
  C  C172  1  0.90610000  0.36440000  0.90840000  1
  C  C173  1  0.59390000  0.36440000  0.40840000  1
  C  C174  1  0.29200000  0.36060000  0.75690000  1
  C  C175  1  0.20800000  0.36060000  0.25690000  1
  C  C176  1  0.25760000  0.34110000  0.31690000  1
  C  C177  1  0.24240000  0.34110000  0.81690000  1
  C  C178  1  0.99570000  0.33060000  0.09300000  1
  C  C179  1  0.50430000  0.33060000  0.59300000  1
  C  C180  1  0.35830000  0.31540000  0.74140000  1
  C  C181  1  0.14170000  0.31540000  0.24140000  1
  C  C182  1  0.47340000  0.29110000  0.65090000  1
  C  C183  1  0.02660000  0.29110000  0.15090000  1
  C  C184  1  0.25540000  0.27690000  0.86050000  1
  C  C185  1  0.24460000  0.27690000  0.36050000  1
  C  C186  1  0.82110000  0.26700000  0.84430000  1
  C  C187  1  0.67890000  0.26700000  0.34430000  1
  C  C188  1  0.37320000  0.25030000  0.78370000  1
  C  C189  1  0.12680000  0.25030000  0.28370000  1
  C  C190  1  0.87320000  0.24970000  0.78370000  1
  C  C191  1  0.62680000  0.24970000  0.28370000  1
  C  C192  1  0.32110000  0.23300000  0.84430000  1
  C  C193  1  0.17890000  0.23300000  0.34430000  1
  C  C194  1  0.75540000  0.22310000  0.86050000  1
  C  C195  1  0.74460000  0.22310000  0.36050000  1
  C  C196  1  0.97340000  0.20890000  0.65090000  1
  C  C197  1  0.52660000  0.20890000  0.15090000  1
  C  C198  1  0.85830000  0.18460000  0.74140000  1
  C  C199  1  0.64170000  0.18460000  0.24140000  1
  C  C200  1  0.49570000  0.16940000  0.09300000  1
  C  C201  1  0.00430000  0.16940000  0.59300000  1
  C  C202  1  0.75760000  0.15890000  0.31690000  1
  C  C203  1  0.74240000  0.15890000  0.81690000  1
  C  C204  1  0.79200000  0.13940000  0.75690000  1
  C  C205  1  0.70800000  0.13940000  0.25690000  1
  C  C206  1  0.40610000  0.13560000  0.90840000  1
  C  C207  1  0.09390000  0.13560000  0.40840000  1
  C  C208  1  0.27520000  0.11720000  0.91550000  1
  C  C209  1  0.22480000  0.11720000  0.41550000  1
  C  C210  1  0.90810000  0.10350000  0.63670000  1
  C  C211  1  0.59190000  0.10350000  0.13670000  1
  C  C212  1  0.85280000  0.09250000  0.40460000  1
  C  C213  1  0.64720000  0.09250000  0.90460000  1
  C  C214  1  0.87720000  0.07720000  0.28430000  1
  C  C215  1  0.62280000  0.07720000  0.78430000  1
  C  C216  1  0.31340000  0.06120000  0.95180000  1
  C  C217  1  0.18660000  0.06120000  0.45180000  1
  C  C218  1  0.93330000  0.03930000  0.32580000  1
  C  C219  1  0.56670000  0.03930000  0.82580000  1
  N  N220  1  0.41710000  0.95080000  0.09800000  1
  N  N221  1  0.08290000  0.95080000  0.59800000  1
  N  N222  1  0.89570000  0.92720000  0.55120000  1
  N  N223  1  0.60430000  0.92720000  0.05120000  1
  N  N224  1  0.46300000  0.89740000  0.91700000  1
  N  N225  1  0.03700000  0.89740000  0.41700000  1
  N  N226  1  0.32550000  0.88990000  0.16460000  1
  N  N227  1  0.17450000  0.88990000  0.66460000  1
  N  N228  1  0.83450000  0.83460000  0.61210000  1
  N  N229  1  0.66550000  0.83460000  0.11210000  1
  N  N230  1  0.41070000  0.83420000  0.82060000  1
  N  N231  1  0.08930000  0.83420000  0.32060000  1
  N  N232  1  0.91070000  0.66580000  0.82060000  1
  N  N233  1  0.58930000  0.66580000  0.32060000  1
  N  N234  1  0.33450000  0.66540000  0.61210000  1
  N  N235  1  0.16550000  0.66540000  0.11210000  1
  N  N236  1  0.82550000  0.61010000  0.16460000  1
  N  N237  1  0.67450000  0.61010000  0.66460000  1
  N  N238  1  0.96300000  0.60260000  0.91700000  1
  N  N239  1  0.53700000  0.60260000  0.41700000  1
  N  N240  1  0.39570000  0.57280000  0.55120000  1
  N  N241  1  0.10430000  0.57280000  0.05120000  1
  N  N242  1  0.91710000  0.54920000  0.09800000  1
  N  N243  1  0.58290000  0.54920000  0.59800000  1
  N  N244  1  0.41710000  0.45080000  0.40200000  1
  N  N245  1  0.08290000  0.45080000  0.90200000  1
  N  N246  1  0.89570000  0.42720000  0.94880000  1
  N  N247  1  0.60430000  0.42720000  0.44880000  1
  N  N248  1  0.46300000  0.39740000  0.58300000  1
  N  N249  1  0.03700000  0.39740000  0.08300000  1
  N  N250  1  0.32550000  0.38990000  0.33540000  1
  N  N251  1  0.17450000  0.38990000  0.83540000  1
  N  N252  1  0.83450000  0.33460000  0.88790000  1
  N  N253  1  0.66550000  0.33460000  0.38790000  1
  N  N254  1  0.41070000  0.33420000  0.67940000  1
  N  N255  1  0.08930000  0.33420000  0.17940000  1
  N  N256  1  0.91070000  0.16580000  0.67940000  1
  N  N257  1  0.58930000  0.16580000  0.17940000  1
  N  N258  1  0.33450000  0.16540000  0.88790000  1
  N  N259  1  0.16550000  0.16540000  0.38790000  1
  N  N260  1  0.82550000  0.11010000  0.33540000  1
  N  N261  1  0.67450000  0.11010000  0.83540000  1
  N  N262  1  0.96300000  0.10260000  0.58300000  1
  N  N263  1  0.53700000  0.10260000  0.08300000  1
  N  N264  1  0.39570000  0.07280000  0.94880000  1
  N  N265  1  0.10430000  0.07280000  0.44880000  1
  N  N266  1  0.91710000  0.04920000  0.40200000  1
  N  N267  1  0.58290000  0.04920000  0.90200000  1
