# generated using pymatgen
data_FeH2(C3O2)2
_symmetry_space_group_name_H-M   'P 1'
_cell_length_a   18.78902926
_cell_length_b   18.78902926
_cell_length_c   18.78902926
_cell_angle_alpha   60.00000000
_cell_angle_beta   60.00000000
_cell_angle_gamma   60.00000000
_symmetry_Int_Tables_number   1
_chemical_formula_structural   FeH2(C3O2)2
_chemical_formula_sum   'Fe12 H24 C72 O48'
_cell_volume   4690.27201109
_cell_formula_units_Z   12
loop_
 _symmetry_equiv_pos_site_id
 _symmetry_equiv_pos_as_xyz
  1  'x, y, z'
loop_
 _atom_site_type_symbol
 _atom_site_label
 _atom_site_symmetry_multiplicity
 _atom_site_fract_x
 _atom_site_fract_y
 _atom_site_fract_z
 _atom_site_occupancy
  C  C0  1  0.93030000  0.93030000  0.66470000  1
  C  C1  1  0.52530000  0.33530000  0.06970000  1
  C  C2  1  0.93030000  0.93030000  0.47470000  1
  C  C3  1  0.33530000  0.52530000  0.06970000  1
  C  C4  1  0.88680000  0.88680000  0.75820000  1
  C  C5  1  0.53180000  0.24180000  0.11320000  1
  C  C6  1  0.88680000  0.88680000  0.46820000  1
  C  C7  1  0.24180000  0.53180000  0.11320000  1
  C  C8  1  0.92790000  0.80170000  0.80170000  1
  C  C9  1  0.53130000  0.19830000  0.19830000  1
  C  C10  1  0.80170000  0.92790000  0.80170000  1
  C  C11  1  0.53130000  0.19830000  0.07210000  1
  C  C12  1  0.92790000  0.80170000  0.46870000  1
  C  C13  1  0.19830000  0.53130000  0.19830000  1
  C  C14  1  0.80170000  0.92790000  0.46870000  1
  C  C15  1  0.19830000  0.53130000  0.07210000  1
  C  C16  1  0.88680000  0.75820000  0.88680000  1
  C  C17  1  0.53180000  0.11320000  0.24180000  1
  C  C18  1  0.75820000  0.88680000  0.88680000  1
  C  C19  1  0.53180000  0.11320000  0.11320000  1
  C  C20  1  0.88680000  0.75820000  0.46820000  1
  C  C21  1  0.11320000  0.53180000  0.24180000  1
  C  C22  1  0.75820000  0.88680000  0.46820000  1
  C  C23  1  0.11320000  0.53180000  0.11320000  1
  C  C24  1  0.80170000  0.80170000  0.92790000  1
  C  C25  1  0.53130000  0.07210000  0.19830000  1
  C  C26  1  0.80170000  0.80170000  0.46870000  1
  C  C27  1  0.07210000  0.53130000  0.19830000  1
  C  C28  1  0.93030000  0.66470000  0.93030000  1
  C  C29  1  0.52530000  0.06970000  0.33530000  1
  C  C30  1  0.66470000  0.93030000  0.93030000  1
  C  C31  1  0.52530000  0.06970000  0.06970000  1
  C  C32  1  0.93030000  0.66470000  0.47470000  1
  C  C33  1  0.06970000  0.52530000  0.33530000  1
  C  C34  1  0.66470000  0.93030000  0.47470000  1
  C  C35  1  0.06970000  0.52530000  0.06970000  1
  C  C36  1  0.93030000  0.47470000  0.93030000  1
  C  C37  1  0.33530000  0.06970000  0.52530000  1
  C  C38  1  0.93030000  0.47470000  0.66470000  1
  C  C39  1  0.06970000  0.33530000  0.52530000  1
  C  C40  1  0.47470000  0.93030000  0.93030000  1
  C  C41  1  0.33530000  0.06970000  0.06970000  1
  C  C42  1  0.47470000  0.93030000  0.66470000  1
  C  C43  1  0.06970000  0.33530000  0.06970000  1
  C  C44  1  0.92790000  0.46870000  0.80170000  1
  C  C45  1  0.19830000  0.19830000  0.53130000  1
  C  C46  1  0.46870000  0.92790000  0.80170000  1
  C  C47  1  0.19830000  0.19830000  0.07210000  1
  C  C48  1  0.88680000  0.46820000  0.88680000  1
  C  C49  1  0.24180000  0.11320000  0.53180000  1
  C  C50  1  0.88680000  0.46820000  0.75820000  1
  C  C51  1  0.11320000  0.24180000  0.53180000  1
  C  C52  1  0.46820000  0.88680000  0.88680000  1
  C  C53  1  0.24180000  0.11320000  0.11320000  1
  C  C54  1  0.46820000  0.88680000  0.75820000  1
  C  C55  1  0.11320000  0.24180000  0.11320000  1
  C  C56  1  0.80170000  0.46870000  0.92790000  1
  C  C57  1  0.19830000  0.07210000  0.53130000  1
  C  C58  1  0.80170000  0.46870000  0.80170000  1
  C  C59  1  0.07210000  0.19830000  0.53130000  1
  C  C60  1  0.46870000  0.80170000  0.92790000  1
  C  C61  1  0.19830000  0.07210000  0.19830000  1
  C  C62  1  0.46870000  0.80170000  0.80170000  1
  C  C63  1  0.07210000  0.19830000  0.19830000  1
  C  C64  1  0.75820000  0.46820000  0.88680000  1
  C  C65  1  0.11320000  0.11320000  0.53180000  1
  C  C66  1  0.46820000  0.75820000  0.88680000  1
  C  C67  1  0.11320000  0.11320000  0.24180000  1
  C  C68  1  0.66470000  0.47470000  0.93030000  1
  C  C69  1  0.06970000  0.06970000  0.52530000  1
  C  C70  1  0.47470000  0.66470000  0.93030000  1
  C  C71  1  0.06970000  0.06970000  0.33530000  1
  Fe  Fe72  1  0.07838000  0.92162000  0.50000000  1
  Fe  Fe73  1  0.50000000  0.50000000  0.07838000  1
  Fe  Fe74  1  0.92162000  0.07838000  0.50000000  1
  Fe  Fe75  1  0.50000000  0.50000000  0.92162000  1
  Fe  Fe76  1  0.07838000  0.50000000  0.92162000  1
  Fe  Fe77  1  0.50000000  0.07838000  0.50000000  1
  Fe  Fe78  1  0.07838000  0.50000000  0.50000000  1
  Fe  Fe79  1  0.50000000  0.07838000  0.92162000  1
  Fe  Fe80  1  0.92162000  0.50000000  0.07838000  1
  Fe  Fe81  1  0.50000000  0.92162000  0.50000000  1
  Fe  Fe82  1  0.50000000  0.92162000  0.07838000  1
  Fe  Fe83  1  0.92162000  0.50000000  0.50000000  1
  H  H84  1  0.98600000  0.77220000  0.77220000  1
  H  H85  1  0.53040000  0.22780000  0.22780000  1
  H  H86  1  0.77220000  0.98600000  0.77220000  1
  H  H87  1  0.53040000  0.22780000  0.01400000  1
  H  H88  1  0.98600000  0.77220000  0.46960000  1
  H  H89  1  0.22780000  0.53040000  0.22780000  1
  H  H90  1  0.77220000  0.98600000  0.46960000  1
  H  H91  1  0.22780000  0.53040000  0.01400000  1
  H  H92  1  0.77220000  0.77220000  0.98600000  1
  H  H93  1  0.53040000  0.01400000  0.22780000  1
  H  H94  1  0.77220000  0.77220000  0.46960000  1
  H  H95  1  0.01400000  0.53040000  0.22780000  1
  H  H96  1  0.98600000  0.46960000  0.77220000  1
  H  H97  1  0.22780000  0.22780000  0.53040000  1
  H  H98  1  0.46960000  0.98600000  0.77220000  1
  H  H99  1  0.22780000  0.22780000  0.01400000  1
  H  H100  1  0.77220000  0.46960000  0.98600000  1
  H  H101  1  0.22780000  0.01400000  0.53040000  1
  H  H102  1  0.77220000  0.46960000  0.77220000  1
  H  H103  1  0.01400000  0.22780000  0.53040000  1
  H  H104  1  0.46960000  0.77220000  0.98600000  1
  H  H105  1  0.22780000  0.01400000  0.22780000  1
  H  H106  1  0.46960000  0.77220000  0.77220000  1
  H  H107  1  0.01400000  0.22780000  0.22780000  1
  O  O108  1  0.00530000  0.88730000  0.62890000  1
  O  O109  1  0.52150000  0.37110000  0.11270000  1
  O  O110  1  0.88730000  0.00530000  0.62890000  1
  O  O111  1  0.52150000  0.37110000  0.99470000  1
  O  O112  1  0.00530000  0.88730000  0.47850000  1
  O  O113  1  0.37110000  0.52150000  0.11270000  1
  O  O114  1  0.88730000  0.00530000  0.47850000  1
  O  O115  1  0.37110000  0.52150000  0.99470000  1
  O  O116  1  0.00530000  0.62890000  0.88730000  1
  O  O117  1  0.52150000  0.11270000  0.37110000  1
  O  O118  1  0.62890000  0.00530000  0.88730000  1
  O  O119  1  0.52150000  0.11270000  0.99470000  1
  O  O120  1  0.00530000  0.62890000  0.47850000  1
  O  O121  1  0.11270000  0.52150000  0.37110000  1
  O  O122  1  0.62890000  0.00530000  0.47850000  1
  O  O123  1  0.11270000  0.52150000  0.99470000  1
  O  O124  1  0.88730000  0.62890000  0.00530000  1
  O  O125  1  0.52150000  0.99470000  0.37110000  1
  O  O126  1  0.62890000  0.88730000  0.00530000  1
  O  O127  1  0.52150000  0.99470000  0.11270000  1
  O  O128  1  0.88730000  0.62890000  0.47850000  1
  O  O129  1  0.99470000  0.52150000  0.37110000  1
  O  O130  1  0.62890000  0.88730000  0.47850000  1
  O  O131  1  0.99470000  0.52150000  0.11270000  1
  O  O132  1  0.00530000  0.47850000  0.88730000  1
  O  O133  1  0.37110000  0.11270000  0.52150000  1
  O  O134  1  0.00530000  0.47850000  0.62890000  1
  O  O135  1  0.11270000  0.37110000  0.52150000  1
  O  O136  1  0.47850000  0.00530000  0.88730000  1
  O  O137  1  0.37110000  0.11270000  0.99470000  1
  O  O138  1  0.47850000  0.00530000  0.62890000  1
  O  O139  1  0.11270000  0.37110000  0.99470000  1
  O  O140  1  0.88730000  0.47850000  0.00530000  1
  O  O141  1  0.37110000  0.99470000  0.52150000  1
  O  O142  1  0.88730000  0.47850000  0.62890000  1
  O  O143  1  0.99470000  0.37110000  0.52150000  1
  O  O144  1  0.47850000  0.88730000  0.00530000  1
  O  O145  1  0.37110000  0.99470000  0.11270000  1
  O  O146  1  0.47850000  0.88730000  0.62890000  1
  O  O147  1  0.99470000  0.37110000  0.11270000  1
  O  O148  1  0.62890000  0.47850000  0.00530000  1
  O  O149  1  0.11270000  0.99470000  0.52150000  1
  O  O150  1  0.62890000  0.47850000  0.88730000  1
  O  O151  1  0.99470000  0.11270000  0.52150000  1
  O  O152  1  0.47850000  0.62890000  0.00530000  1
  O  O153  1  0.11270000  0.99470000  0.37110000  1
  O  O154  1  0.47850000  0.62890000  0.88730000  1
  O  O155  1  0.99470000  0.11270000  0.37110000  1
