# generated using pymatgen
data_Dy2FeH2C4(S2O11)2
_symmetry_space_group_name_H-M   'P 1'
_cell_length_a   11.31876876
_cell_length_b   11.31876876
_cell_length_c   12.47700000
_cell_angle_alpha   91.59194449
_cell_angle_beta   91.59194449
_cell_angle_gamma   93.04641570
_symmetry_Int_Tables_number   1
_chemical_formula_structural   Dy2FeH2C4(S2O11)2
_chemical_formula_sum   'Dy4 Fe2 H4 C8 S8 O44'
_cell_volume   1594.92435232
_cell_formula_units_Z   2
loop_
 _symmetry_equiv_pos_site_id
 _symmetry_equiv_pos_as_xyz
  1  'x, y, z'
loop_
 _atom_site_type_symbol
 _atom_site_label
 _atom_site_symmetry_multiplicity
 _atom_site_fract_x
 _atom_site_fract_y
 _atom_site_fract_z
 _atom_site_occupancy
  C  C0  1  0.93920000  0.97760000  0.00220000  1
  C  C1  1  0.97760000  0.93920000  0.50220000  1
  C  C2  1  0.86190000  0.00810000  0.90770000  1
  C  C3  1  0.00810000  0.86190000  0.40770000  1
  C  C4  1  0.13810000  0.99190000  0.09230000  1
  C  C5  1  0.99190000  0.13810000  0.59230000  1
  C  C6  1  0.06080000  0.02240000  0.99780000  1
  C  C7  1  0.02240000  0.06080000  0.49780000  1
  Dy  Dy8  1  0.69316000  0.06738000  0.09270000  1
  Dy  Dy9  1  0.06738000  0.69316000  0.59270000  1
  Dy  Dy10  1  0.30684000  0.93262000  0.90730000  1
  Dy  Dy11  1  0.93262000  0.30684000  0.40730000  1
  Fe  Fe12  1  0.95169000  0.04831000  0.25000000  1
  Fe  Fe13  1  0.04831000  0.95169000  0.75000000  1
  H  H14  1  0.89120000  0.94180000  0.49910000  1
  H  H15  1  0.94180000  0.89120000  0.99910000  1
  H  H16  1  0.10880000  0.05820000  0.50090000  1
  H  H17  1  0.05820000  0.10880000  0.00090000  1
  O  O18  1  0.74470000  0.21210000  0.39250000  1
  O  O19  1  0.21210000  0.74470000  0.89250000  1
  O  O20  1  0.88070000  0.00570000  0.10070000  1
  O  O21  1  0.00570000  0.88070000  0.60070000  1
  O  O22  1  0.88490000  0.96950000  0.81720000  1
  O  O23  1  0.96950000  0.88490000  0.31720000  1
  O  O24  1  0.77120000  0.06140000  0.92720000  1
  O  O25  1  0.06140000  0.77120000  0.42720000  1
  O  O26  1  0.75790000  0.03990000  0.27640000  1
  O  O27  1  0.03990000  0.75790000  0.77640000  1
  O  O28  1  0.59740000  0.16120000  0.25180000  1
  O  O29  1  0.16120000  0.59740000  0.75180000  1
  O  O30  1  0.46500000  0.26540000  0.86500000  1
  O  O31  1  0.26540000  0.46500000  0.36500000  1
  O  O32  1  0.55310000  0.17530000  0.00980000  1
  O  O33  1  0.17530000  0.55310000  0.50980000  1
  O  O34  1  0.60880000  0.04420000  0.41070000  1
  O  O35  1  0.04420000  0.60880000  0.91070000  1
  O  O36  1  0.47460000  0.05720000  0.86060000  1
  O  O37  1  0.05720000  0.47460000  0.36060000  1
  O  O38  1  0.65380000  0.86640000  0.02740000  1
  O  O39  1  0.86640000  0.65380000  0.52740000  1
  O  O40  1  0.34620000  0.13360000  0.97260000  1
  O  O41  1  0.13360000  0.34620000  0.47260000  1
  O  O42  1  0.52540000  0.94280000  0.13940000  1
  O  O43  1  0.94280000  0.52540000  0.63940000  1
  O  O44  1  0.39120000  0.95580000  0.58930000  1
  O  O45  1  0.95580000  0.39120000  0.08930000  1
  O  O46  1  0.44690000  0.82470000  0.99020000  1
  O  O47  1  0.82470000  0.44690000  0.49020000  1
  O  O48  1  0.53500000  0.73460000  0.13500000  1
  O  O49  1  0.73460000  0.53500000  0.63500000  1
  O  O50  1  0.40260000  0.83880000  0.74820000  1
  O  O51  1  0.83880000  0.40260000  0.24820000  1
  O  O52  1  0.24210000  0.96010000  0.72360000  1
  O  O53  1  0.96010000  0.24210000  0.22360000  1
  O  O54  1  0.22880000  0.93860000  0.07280000  1
  O  O55  1  0.93860000  0.22880000  0.57280000  1
  O  O56  1  0.11510000  0.03050000  0.18280000  1
  O  O57  1  0.03050000  0.11510000  0.68280000  1
  O  O58  1  0.11930000  0.99430000  0.89930000  1
  O  O59  1  0.99430000  0.11930000  0.39930000  1
  O  O60  1  0.25530000  0.78790000  0.60750000  1
  O  O61  1  0.78790000  0.25530000  0.10750000  1
  S  S62  1  0.67570000  0.11452000  0.33644000  1
  S  S63  1  0.11452000  0.67570000  0.83644000  1
  S  S64  1  0.45997000  0.16251000  0.92710000  1
  S  S65  1  0.16251000  0.45997000  0.42710000  1
  S  S66  1  0.54003000  0.83749000  0.07290000  1
  S  S67  1  0.83749000  0.54003000  0.57290000  1
  S  S68  1  0.32430000  0.88548000  0.66356000  1
  S  S69  1  0.88548000  0.32430000  0.16356000  1
