# generated using pymatgen
data_Zn(CO2)3
_symmetry_space_group_name_H-M   'P 1'
_cell_length_a   13.31167648
_cell_length_b   13.31167648
_cell_length_c   13.31167648
_cell_angle_alpha   109.47122063
_cell_angle_beta   109.47122063
_cell_angle_gamma   109.47122063
_symmetry_Int_Tables_number   1
_chemical_formula_structural   Zn(CO2)3
_chemical_formula_sum   'Zn4 C12 O24'
_cell_volume   1815.83495491
_cell_formula_units_Z   4
loop_
 _symmetry_equiv_pos_site_id
 _symmetry_equiv_pos_as_xyz
  1  'x, y, z'
loop_
 _atom_site_type_symbol
 _atom_site_label
 _atom_site_symmetry_multiplicity
 _atom_site_fract_x
 _atom_site_fract_y
 _atom_site_fract_z
 _atom_site_occupancy
  C  C0  1  0.25000000  0.41170000  0.58830000  1
  C  C1  1  0.82340000  0.16170000  0.91170000  1
  C  C2  1  0.58830000  0.33830000  0.67660000  1
  C  C3  1  0.66170000  0.41170000  0.82340000  1
  C  C4  1  0.58830000  0.75000000  0.91170000  1
  C  C5  1  0.83830000  0.17660000  0.58830000  1
  C  C6  1  0.66170000  0.75000000  0.83830000  1
  C  C7  1  0.91170000  0.32340000  0.66170000  1
  C  C8  1  0.83830000  0.16170000  0.25000000  1
  C  C9  1  0.91170000  0.08830000  0.25000000  1
  C  C10  1  0.67660000  0.08830000  0.83830000  1
  C  C11  1  0.25000000  0.33830000  0.66170000  1
  O  O12  1  0.14740000  0.39000000  0.51520000  1
  O  O13  1  0.87480000  0.13220000  0.98480000  1
  O  O14  1  0.35260000  0.48480000  0.61000000  1
  O  O15  1  0.87480000  0.24260000  0.89000000  1
  O  O16  1  0.61000000  0.25740000  0.62520000  1
  O  O17  1  0.63220000  0.48480000  0.87480000  1
  O  O18  1  0.51520000  0.36780000  0.62520000  1
  O  O19  1  0.74260000  0.39000000  0.87480000  1
  O  O20  1  0.51520000  0.64740000  0.89000000  1
  O  O21  1  0.75740000  0.12520000  0.61000000  1
  O  O22  1  0.61000000  0.85260000  0.98480000  1
  O  O23  1  0.86780000  0.12520000  0.51520000  1
  O  O24  1  0.63220000  0.64740000  0.75740000  1
  O  O25  1  0.89000000  0.37480000  0.74260000  1
  O  O26  1  0.74260000  0.85260000  0.86780000  1
  O  O27  1  0.98480000  0.37480000  0.63220000  1
  O  O28  1  0.75740000  0.13220000  0.14740000  1
  O  O29  1  0.98480000  0.11000000  0.35260000  1
  O  O30  1  0.86780000  0.24260000  0.35260000  1
  O  O31  1  0.89000000  0.01520000  0.14740000  1
  O  O32  1  0.62520000  0.01520000  0.86780000  1
  O  O33  1  0.14740000  0.25740000  0.63220000  1
  O  O34  1  0.62520000  0.11000000  0.75740000  1
  O  O35  1  0.35260000  0.36780000  0.74260000  1
  Zn  Zn36  1  0.50000000  0.50000000  0.75000000  1
  Zn  Zn37  1  0.75000000  0.25000000  0.75000000  1
  Zn  Zn38  1  0.75000000  1.00000000  1.00000000  1
  Zn  Zn39  1  0.00000000  0.25000000  0.50000000  1
