# generated using pymatgen
data_Er2H42(C23O6)3
_symmetry_space_group_name_H-M   'P 1'
_cell_length_a   14.42210000
_cell_length_b   19.09830000
_cell_length_c   30.55600000
_cell_angle_alpha   90.00000000
_cell_angle_beta   90.00000000
_cell_angle_gamma   90.00000000
_symmetry_Int_Tables_number   1
_chemical_formula_structural   Er2H42(C23O6)3
_chemical_formula_sum   'Er8 H168 C276 O72'
_cell_volume   8416.27107429
_cell_formula_units_Z   4
loop_
 _symmetry_equiv_pos_site_id
 _symmetry_equiv_pos_as_xyz
  1  'x, y, z'
loop_
 _atom_site_type_symbol
 _atom_site_label
 _atom_site_symmetry_multiplicity
 _atom_site_fract_x
 _atom_site_fract_y
 _atom_site_fract_z
 _atom_site_occupancy
  Er  Er0  1  0.53780000  0.85874000  0.25249000  1
  Er  Er1  1  0.47581000  0.81215000  0.37673000  1
  Er  Er2  1  0.97581000  0.68785000  0.87673000  1
  Er  Er3  1  0.03780000  0.64126000  0.75249000  1
  Er  Er4  1  0.96220000  0.35874000  0.25249000  1
  Er  Er5  1  0.02419000  0.31215000  0.37673000  1
  Er  Er6  1  0.52419000  0.18785000  0.87673000  1
  Er  Er7  1  0.46220000  0.14126000  0.75249000  1
  H  H8  1  0.49340000  0.98770000  0.40350000  1
  H  H9  1  0.88020000  0.98490000  0.53610000  1
  H  H10  1  0.78390000  0.98410000  0.59560000  1
  H  H11  1  0.49310000  0.95870000  0.97440000  1
  H  H12  1  0.32530000  0.95620000  0.14510000  1
  H  H13  1  0.97350000  0.95420000  0.61360000  1
  H  H14  1  0.07070000  0.93980000  0.31680000  1
  H  H15  1  0.09970000  0.93580000  0.38070000  1
  H  H16  1  0.03130000  0.93530000  0.14360000  1
  H  H17  1  0.50050000  0.93040000  0.77030000  1
  H  H18  1  0.52030000  0.92510000  0.63960000  1
  H  H19  1  0.13020000  0.92230000  0.45240000  1
  H  H20  1  0.11470000  0.92060000  0.99090000  1
  H  H21  1  0.61410000  0.91660000  0.69880000  1
  H  H22  1  0.01980000  0.91650000  0.21690000  1
  H  H23  1  0.00970000  0.90470000  0.28070000  1
  H  H24  1  0.77560000  0.90250000  0.27640000  1
  H  H25  1  0.00920000  0.90140000  0.50290000  1
  H  H26  1  0.48720000  0.90100000  0.56130000  1
  H  H27  1  0.01070000  0.89740000  0.86230000  1
  H  H28  1  0.86360000  0.88280000  0.47800000  1
  H  H29  1  0.75710000  0.86980000  0.41800000  1
  H  H30  1  0.75880000  0.86710000  0.69120000  1
  H  H31  1  0.99520000  0.86040000  0.65800000  1
  H  H32  1  0.47720000  0.86040000  0.01920000  1
  H  H33  1  0.80760000  0.82040000  0.62730000  1
  H  H34  1  0.19810000  0.82030000  0.00660000  1
  H  H35  1  0.26010000  0.81130000  0.21460000  1
  H  H36  1  0.01250000  0.80960000  0.73190000  1
  H  H37  1  0.15100000  0.80470000  0.15400000  1
  H  H38  1  0.85860000  0.80120000  0.55280000  1
  H  H39  1  0.00220000  0.78950000  0.12770000  1
  H  H40  1  0.63980000  0.78380000  0.46080000  1
  H  H41  1  0.99880000  0.77030000  0.34790000  1
  H  H42  1  0.43970000  0.76570000  0.81160000  1
  H  H43  1  0.00710000  0.76170000  0.41340000  1
  H  H44  1  0.88440000  0.76130000  0.17640000  1
  H  H45  1  0.81410000  0.75860000  0.51450000  1
  H  H46  1  0.47300000  0.75830000  0.13370000  1
  H  H47  1  0.41200000  0.75800000  0.74690000  1
  H  H48  1  0.73190000  0.75060000  0.85470000  1
  H  H49  1  0.98660000  0.75030000  0.48540000  1
  H  H50  1  0.48660000  0.74970000  0.98540000  1
  H  H51  1  0.23190000  0.74940000  0.35470000  1
  H  H52  1  0.91200000  0.74200000  0.24690000  1
  H  H53  1  0.97300000  0.74170000  0.63370000  1
  H  H54  1  0.31410000  0.74140000  0.01450000  1
  H  H55  1  0.38440000  0.73870000  0.67640000  1
  H  H56  1  0.50710000  0.73830000  0.91340000  1
  H  H57  1  0.93970000  0.73430000  0.31160000  1
  H  H58  1  0.49880000  0.72970000  0.84790000  1
  H  H59  1  0.13980000  0.71620000  0.96080000  1
  H  H60  1  0.50220000  0.71050000  0.62770000  1
  H  H61  1  0.35860000  0.69880000  0.05280000  1
  H  H62  1  0.65100000  0.69530000  0.65400000  1
  H  H63  1  0.51250000  0.69040000  0.23190000  1
  H  H64  1  0.76010000  0.68870000  0.71460000  1
  H  H65  1  0.69810000  0.67970000  0.50660000  1
  H  H66  1  0.30760000  0.67960000  0.12730000  1
  H  H67  1  0.97720000  0.63960000  0.51920000  1
  H  H68  1  0.49520000  0.63960000  0.15800000  1
  H  H69  1  0.25880000  0.63290000  0.19120000  1
  H  H70  1  0.25710000  0.63020000  0.91800000  1
  H  H71  1  0.36360000  0.61720000  0.97800000  1
  H  H72  1  0.51070000  0.60260000  0.36230000  1
  H  H73  1  0.98720000  0.59900000  0.06130000  1
  H  H74  1  0.50920000  0.59860000  0.00290000  1
  H  H75  1  0.27560000  0.59750000  0.77640000  1
  H  H76  1  0.50970000  0.59530000  0.78070000  1
  H  H77  1  0.51980000  0.58350000  0.71690000  1
  H  H78  1  0.11410000  0.58340000  0.19880000  1
  H  H79  1  0.61470000  0.57940000  0.49090000  1
  H  H80  1  0.63020000  0.57770000  0.95240000  1
  H  H81  1  0.02030000  0.57490000  0.13960000  1
  H  H82  1  0.00050000  0.56960000  0.27030000  1
  H  H83  1  0.53130000  0.56470000  0.64360000  1
  H  H84  1  0.59970000  0.56420000  0.88070000  1
  H  H85  1  0.57070000  0.56020000  0.81680000  1
  H  H86  1  0.47350000  0.54580000  0.11360000  1
  H  H87  1  0.82530000  0.54380000  0.64510000  1
  H  H88  1  0.99310000  0.54130000  0.47440000  1
  H  H89  1  0.28390000  0.51590000  0.09560000  1
  H  H90  1  0.38020000  0.51510000  0.03610000  1
  H  H91  1  0.99340000  0.51230000  0.90350000  1
  H  H92  1  0.00660000  0.48770000  0.40350000  1
  H  H93  1  0.61980000  0.48490000  0.53610000  1
  H  H94  1  0.71610000  0.48410000  0.59560000  1
  H  H95  1  0.00690000  0.45870000  0.97440000  1
  H  H96  1  0.17470000  0.45620000  0.14510000  1
  H  H97  1  0.52650000  0.45420000  0.61360000  1
  H  H98  1  0.42930000  0.43980000  0.31680000  1
  H  H99  1  0.40030000  0.43580000  0.38070000  1
  H  H100  1  0.46870000  0.43530000  0.14360000  1
  H  H101  1  0.99950000  0.43040000  0.77030000  1
  H  H102  1  0.97970000  0.42510000  0.63960000  1
  H  H103  1  0.36980000  0.42230000  0.45240000  1
  H  H104  1  0.38530000  0.42060000  0.99090000  1
  H  H105  1  0.88590000  0.41660000  0.69880000  1
  H  H106  1  0.48020000  0.41650000  0.21690000  1
  H  H107  1  0.49030000  0.40470000  0.28070000  1
  H  H108  1  0.72440000  0.40250000  0.27640000  1
  H  H109  1  0.49080000  0.40140000  0.50290000  1
  H  H110  1  0.01280000  0.40100000  0.56130000  1
  H  H111  1  0.48930000  0.39740000  0.86230000  1
  H  H112  1  0.63640000  0.38280000  0.47800000  1
  H  H113  1  0.74290000  0.36980000  0.41800000  1
  H  H114  1  0.74120000  0.36710000  0.69120000  1
  H  H115  1  0.50480000  0.36040000  0.65800000  1
  H  H116  1  0.02280000  0.36040000  0.01920000  1
  H  H117  1  0.69240000  0.32040000  0.62730000  1
  H  H118  1  0.30190000  0.32030000  0.00660000  1
  H  H119  1  0.23990000  0.31130000  0.21460000  1
  H  H120  1  0.48750000  0.30960000  0.73190000  1
  H  H121  1  0.34900000  0.30470000  0.15400000  1
  H  H122  1  0.64140000  0.30120000  0.55280000  1
  H  H123  1  0.49780000  0.28950000  0.12770000  1
  H  H124  1  0.86020000  0.28380000  0.46080000  1
  H  H125  1  0.50120000  0.27030000  0.34790000  1
  H  H126  1  0.06030000  0.26570000  0.81160000  1
  H  H127  1  0.49290000  0.26170000  0.41340000  1
  H  H128  1  0.61560000  0.26130000  0.17640000  1
  H  H129  1  0.68590000  0.25860000  0.51450000  1
  H  H130  1  0.02700000  0.25830000  0.13370000  1
  H  H131  1  0.08800000  0.25800000  0.74690000  1
  H  H132  1  0.76810000  0.25060000  0.85470000  1
  H  H133  1  0.51340000  0.25030000  0.48540000  1
  H  H134  1  0.01340000  0.24970000  0.98540000  1
  H  H135  1  0.26810000  0.24940000  0.35470000  1
  H  H136  1  0.58800000  0.24200000  0.24690000  1
  H  H137  1  0.52700000  0.24170000  0.63370000  1
  H  H138  1  0.18590000  0.24140000  0.01450000  1
  H  H139  1  0.11560000  0.23870000  0.67640000  1
  H  H140  1  0.99290000  0.23830000  0.91340000  1
  H  H141  1  0.56030000  0.23430000  0.31160000  1
  H  H142  1  0.00120000  0.22970000  0.84790000  1
  H  H143  1  0.36020000  0.21620000  0.96080000  1
  H  H144  1  0.99780000  0.21050000  0.62770000  1
  H  H145  1  0.14140000  0.19880000  0.05280000  1
  H  H146  1  0.84900000  0.19530000  0.65400000  1
  H  H147  1  0.98750000  0.19040000  0.23190000  1
  H  H148  1  0.73990000  0.18870000  0.71460000  1
  H  H149  1  0.80190000  0.17970000  0.50660000  1
  H  H150  1  0.19240000  0.17960000  0.12730000  1
  H  H151  1  0.52280000  0.13960000  0.51920000  1
  H  H152  1  0.00480000  0.13960000  0.15800000  1
  H  H153  1  0.24120000  0.13290000  0.19120000  1
  H  H154  1  0.24290000  0.13020000  0.91800000  1
  H  H155  1  0.13640000  0.11720000  0.97800000  1
  H  H156  1  0.98930000  0.10260000  0.36230000  1
  H  H157  1  0.51280000  0.09900000  0.06130000  1
  H  H158  1  0.99080000  0.09860000  0.00290000  1
  H  H159  1  0.22440000  0.09750000  0.77640000  1
  H  H160  1  0.99030000  0.09530000  0.78070000  1
  H  H161  1  0.98020000  0.08350000  0.71690000  1
  H  H162  1  0.38590000  0.08340000  0.19880000  1
  H  H163  1  0.88530000  0.07940000  0.49090000  1
  H  H164  1  0.86980000  0.07770000  0.95240000  1
  H  H165  1  0.47970000  0.07490000  0.13960000  1
  H  H166  1  0.49950000  0.06960000  0.27030000  1
  H  H167  1  0.96870000  0.06470000  0.64360000  1
  H  H168  1  0.90030000  0.06420000  0.88070000  1
  H  H169  1  0.92930000  0.06020000  0.81680000  1
  H  H170  1  0.02650000  0.04580000  0.11360000  1
  H  H171  1  0.67470000  0.04380000  0.64510000  1
  H  H172  1  0.50690000  0.04130000  0.47440000  1
  H  H173  1  0.21610000  0.01590000  0.09560000  1
  H  H174  1  0.11980000  0.01510000  0.03610000  1
  H  H175  1  0.50660000  0.01230000  0.90350000  1
  C  C176  1  0.00130000  0.98930000  0.78080000  1
  C  C177  1  0.99420000  0.98110000  0.73490000  1
  C  C178  1  0.21300000  0.97620000  0.07800000  1
  C  C179  1  0.15600000  0.97600000  0.04230000  1
  C  C180  1  0.02400000  0.97360000  0.16200000  1
  C  C181  1  0.49000000  0.96970000  0.31900000  1
  C  C182  1  0.50590000  0.96850000  0.89030000  1
  C  C183  1  0.50960000  0.96450000  0.84570000  1
  C  C184  1  0.01710000  0.96190000  0.20610000  1
  C  C185  1  0.97950000  0.96020000  0.64370000  1
  C  C186  1  0.01000000  0.94070000  0.30310000  1
  C  C187  1  0.00850000  0.92910000  0.80750000  1
  C  C188  1  0.05160000  0.92430000  0.39960000  1
  C  C189  1  0.93800000  0.92030000  0.33810000  1
  C  C190  1  0.15200000  0.91930000  0.01570000  1
  C  C191  1  0.32550000  0.91820000  0.12620000  1
  C  C192  1  0.26630000  0.91770000  0.08840000  1
  C  C193  1  0.06970000  0.91760000  0.44250000  1
  C  C194  1  0.49330000  0.91440000  0.96180000  1
  C  C195  1  0.96090000  0.91430000  0.38230000  1
  C  C196  1  0.99910000  0.91290000  0.71660000  1
  C  C197  1  0.50120000  0.90880000  0.91670000  1
  C  C198  1  0.99160000  0.90500000  0.67010000  1
  C  C199  1  0.84940000  0.90460000  0.32380000  1
  C  C200  1  0.99680000  0.90330000  0.47300000  1
  C  C201  1  0.57740000  0.90290000  0.63690000  1
  C  C202  1  0.63300000  0.89900000  0.67180000  1
  C  C203  1  0.50830000  0.89810000  0.82600000  1
  C  C204  1  0.89000000  0.89660000  0.41280000  1
  C  C205  1  0.91080000  0.89280000  0.45820000  1
  C  C206  1  0.78010000  0.88350000  0.35420000  1
  C  C207  1  0.80280000  0.88160000  0.39790000  1
  C  C208  1  0.54450000  0.87910000  0.55870000  1
  C  C209  1  0.60290000  0.87410000  0.59600000  1
  C  C210  1  0.71930000  0.86830000  0.66710000  1
  C  C211  1  0.44360000  0.86490000  0.17300000  1
  C  C212  1  0.68290000  0.86450000  0.33980000  1
  C  C213  1  0.50480000  0.86230000  0.48090000  1
  C  C214  1  0.38300000  0.86150000  0.13410000  1
  C  C215  1  0.01730000  0.86050000  0.78770000  1
  C  C216  1  0.20270000  0.85900000  0.02490000  1
  C  C217  1  0.48540000  0.85610000  0.98910000  1
  C  C218  1  0.26140000  0.85610000  0.06220000  1
  C  C219  1  0.01010000  0.85410000  0.74430000  1
  C  C220  1  0.57060000  0.85240000  0.51900000  1
  C  C221  1  0.50490000  0.84210000  0.89580000  1
  C  C222  1  0.74860000  0.83990000  0.62900000  1
  C  C223  1  0.68980000  0.83970000  0.59130000  1
  C  C224  1  0.50760000  0.83650000  0.85030000  1
  C  C225  1  0.65800000  0.81870000  0.51480000  1
  C  C226  1  0.71660000  0.81090000  0.55120000  1
  C  C227  1  0.32940000  0.80640000  0.29230000  1
  C  C228  1  0.37890000  0.80100000  0.10580000  1
  C  C229  1  0.02480000  0.79800000  0.81510000  1
  C  C230  1  0.21360000  0.79650000  0.23360000  1
  C  C231  1  0.31640000  0.79640000  0.07190000  1
  C  C232  1  0.10340000  0.79220000  0.17300000  1
  C  C233  1  0.49070000  0.78990000  0.96830000  1
  C  C234  1  0.23230000  0.78810000  0.27700000  1
  C  C235  1  0.01510000  0.78360000  0.15730000  1
  C  C236  1  0.50150000  0.78310000  0.92510000  1
  C  C237  1  0.12220000  0.78250000  0.21700000  1
  C  C238  1  0.80760000  0.77040000  0.54520000  1
  C  C239  1  0.16060000  0.76710000  0.30730000  1
  C  C240  1  0.49950000  0.76650000  0.82610000  1
  C  C241  1  0.94470000  0.76570000  0.18680000  1
  C  C242  1  0.05140000  0.76230000  0.24660000  1
  C  C243  1  0.96080000  0.75480000  0.22870000  1
  C  C244  1  0.07180000  0.75250000  0.29260000  1
  C  C245  1  0.57180000  0.74750000  0.79260000  1
  C  C246  1  0.46080000  0.74520000  0.72870000  1
  C  C247  1  0.55140000  0.73770000  0.74660000  1
  C  C248  1  0.44470000  0.73430000  0.68680000  1
  C  C249  1  0.99950000  0.73350000  0.32610000  1
  C  C250  1  0.66060000  0.73290000  0.80730000  1
  C  C251  1  0.30760000  0.72960000  0.04520000  1
  C  C252  1  0.62220000  0.71750000  0.71700000  1
  C  C253  1  0.00150000  0.71690000  0.42510000  1
  C  C254  1  0.51510000  0.71640000  0.65730000  1
  C  C255  1  0.73230000  0.71190000  0.77700000  1
  C  C256  1  0.99070000  0.71010000  0.46830000  1
  C  C257  1  0.60340000  0.70780000  0.67300000  1
  C  C258  1  0.81640000  0.70360000  0.57190000  1
  C  C259  1  0.71360000  0.70350000  0.73360000  1
  C  C260  1  0.52480000  0.70200000  0.31510000  1
  C  C261  1  0.87890000  0.69900000  0.60580000  1
  C  C262  1  0.82940000  0.69360000  0.79230000  1
  C  C263  1  0.21660000  0.68910000  0.05120000  1
  C  C264  1  0.15800000  0.68130000  0.01480000  1
  C  C265  1  0.00760000  0.66350000  0.35030000  1
  C  C266  1  0.18980000  0.66030000  0.09130000  1
  C  C267  1  0.24860000  0.66010000  0.12900000  1
  C  C268  1  0.00490000  0.65790000  0.39580000  1
  C  C269  1  0.07060000  0.64760000  0.01900000  1
  C  C270  1  0.51010000  0.64590000  0.24430000  1
  C  C271  1  0.98540000  0.64390000  0.48910000  1
  C  C272  1  0.76140000  0.64390000  0.56220000  1
  C  C273  1  0.70270000  0.64100000  0.52490000  1
  C  C274  1  0.51730000  0.63950000  0.28770000  1
  C  C275  1  0.88300000  0.63850000  0.63410000  1
  C  C276  1  0.00480000  0.63770000  0.98090000  1
  C  C277  1  0.18290000  0.63550000  0.83980000  1
  C  C278  1  0.94360000  0.63510000  0.67300000  1
  C  C279  1  0.21930000  0.63170000  0.16710000  1
  C  C280  1  0.10290000  0.62590000  0.09600000  1
  C  C281  1  0.04450000  0.62090000  0.05870000  1
  C  C282  1  0.30280000  0.61840000  0.89790000  1
  C  C283  1  0.28010000  0.61650000  0.85420000  1
  C  C284  1  0.41080000  0.60720000  0.95820000  1
  C  C285  1  0.39000000  0.60340000  0.91280000  1
  C  C286  1  0.00830000  0.60190000  0.32600000  1
  C  C287  1  0.13300000  0.60100000  0.17180000  1
  C  C288  1  0.07740000  0.59710000  0.13690000  1
  C  C289  1  0.49680000  0.59670000  0.97300000  1
  C  C290  1  0.34940000  0.59540000  0.82380000  1
  C  C291  1  0.49160000  0.59500000  0.17010000  1
  C  C292  1  0.00120000  0.59120000  0.41670000  1
  C  C293  1  0.49910000  0.58710000  0.21660000  1
  C  C294  1  0.46090000  0.58570000  0.88230000  1
  C  C295  1  0.99330000  0.58560000  0.46180000  1
  C  C296  1  0.56970000  0.58240000  0.94250000  1
  C  C297  1  0.76630000  0.58230000  0.58840000  1
  C  C298  1  0.82550000  0.58180000  0.62620000  1
  C  C299  1  0.65200000  0.58070000  0.51570000  1
  C  C300  1  0.43800000  0.57970000  0.83810000  1
  C  C301  1  0.55160000  0.57570000  0.89960000  1
  C  C302  1  0.50850000  0.57090000  0.30750000  1
  C  C303  1  0.51000000  0.55930000  0.80310000  1
  C  C304  1  0.47950000  0.53980000  0.14370000  1
  C  C305  1  0.51710000  0.53810000  0.70610000  1
  C  C306  1  0.00960000  0.53550000  0.34570000  1
  C  C307  1  0.00590000  0.53150000  0.39030000  1
  C  C308  1  0.99000000  0.53030000  0.81900000  1
  C  C309  1  0.52400000  0.52640000  0.66200000  1
  C  C310  1  0.65600000  0.52400000  0.54230000  1
  C  C311  1  0.71300000  0.52380000  0.57800000  1
  C  C312  1  0.49420000  0.51890000  0.23490000  1
  C  C313  1  0.50130000  0.51070000  0.28080000  1
  C  C314  1  0.49870000  0.48930000  0.78080000  1
  C  C315  1  0.50580000  0.48110000  0.73490000  1
  C  C316  1  0.28700000  0.47620000  0.07800000  1
  C  C317  1  0.34400000  0.47600000  0.04230000  1
  C  C318  1  0.47600000  0.47360000  0.16200000  1
  C  C319  1  0.01000000  0.46970000  0.31900000  1
  C  C320  1  0.99410000  0.46850000  0.89030000  1
  C  C321  1  0.99040000  0.46450000  0.84570000  1
  C  C322  1  0.48290000  0.46190000  0.20610000  1
  C  C323  1  0.52050000  0.46020000  0.64370000  1
  C  C324  1  0.49000000  0.44070000  0.30310000  1
  C  C325  1  0.49150000  0.42910000  0.80750000  1
  C  C326  1  0.44840000  0.42430000  0.39960000  1
  C  C327  1  0.56200000  0.42030000  0.33810000  1
  C  C328  1  0.34800000  0.41930000  0.01570000  1
  C  C329  1  0.17450000  0.41820000  0.12620000  1
  C  C330  1  0.23370000  0.41770000  0.08840000  1
  C  C331  1  0.43030000  0.41760000  0.44250000  1
  C  C332  1  0.00670000  0.41440000  0.96180000  1
  C  C333  1  0.53910000  0.41430000  0.38230000  1
  C  C334  1  0.50090000  0.41290000  0.71660000  1
  C  C335  1  0.99880000  0.40880000  0.91670000  1
  C  C336  1  0.50840000  0.40500000  0.67010000  1
  C  C337  1  0.65060000  0.40460000  0.32380000  1
  C  C338  1  0.50320000  0.40330000  0.47300000  1
  C  C339  1  0.92260000  0.40290000  0.63690000  1
  C  C340  1  0.86700000  0.39900000  0.67180000  1
  C  C341  1  0.99170000  0.39810000  0.82600000  1
  C  C342  1  0.61000000  0.39660000  0.41280000  1
  C  C343  1  0.58920000  0.39280000  0.45820000  1
  C  C344  1  0.71990000  0.38350000  0.35420000  1
  C  C345  1  0.69720000  0.38160000  0.39790000  1
  C  C346  1  0.95550000  0.37910000  0.55870000  1
  C  C347  1  0.89710000  0.37410000  0.59600000  1
  C  C348  1  0.78070000  0.36830000  0.66710000  1
  C  C349  1  0.05640000  0.36490000  0.17300000  1
  C  C350  1  0.81710000  0.36450000  0.33980000  1
  C  C351  1  0.99520000  0.36230000  0.48090000  1
  C  C352  1  0.11700000  0.36150000  0.13410000  1
  C  C353  1  0.48270000  0.36050000  0.78770000  1
  C  C354  1  0.29730000  0.35900000  0.02490000  1
  C  C355  1  0.23860000  0.35610000  0.06220000  1
  C  C356  1  0.01460000  0.35610000  0.98910000  1
  C  C357  1  0.48990000  0.35410000  0.74430000  1
  C  C358  1  0.92940000  0.35240000  0.51900000  1
  C  C359  1  0.99510000  0.34210000  0.89580000  1
  C  C360  1  0.75140000  0.33990000  0.62900000  1
  C  C361  1  0.81020000  0.33970000  0.59130000  1
  C  C362  1  0.99240000  0.33650000  0.85030000  1
  C  C363  1  0.84200000  0.31870000  0.51480000  1
  C  C364  1  0.78340000  0.31090000  0.55120000  1
  C  C365  1  0.17060000  0.30640000  0.29230000  1
  C  C366  1  0.12110000  0.30100000  0.10580000  1
  C  C367  1  0.47520000  0.29800000  0.81510000  1
  C  C368  1  0.28640000  0.29650000  0.23360000  1
  C  C369  1  0.18360000  0.29640000  0.07190000  1
  C  C370  1  0.39660000  0.29220000  0.17300000  1
  C  C371  1  0.00930000  0.28990000  0.96830000  1
  C  C372  1  0.26770000  0.28810000  0.27700000  1
  C  C373  1  0.48490000  0.28360000  0.15730000  1
  C  C374  1  0.99850000  0.28310000  0.92510000  1
  C  C375  1  0.37780000  0.28250000  0.21700000  1
  C  C376  1  0.69240000  0.27040000  0.54520000  1
  C  C377  1  0.33940000  0.26710000  0.30730000  1
  C  C378  1  0.00050000  0.26650000  0.82610000  1
  C  C379  1  0.55530000  0.26570000  0.18680000  1
  C  C380  1  0.44860000  0.26230000  0.24660000  1
  C  C381  1  0.53920000  0.25480000  0.22870000  1
  C  C382  1  0.42820000  0.25250000  0.29260000  1
  C  C383  1  0.92820000  0.24750000  0.79260000  1
  C  C384  1  0.03920000  0.24520000  0.72870000  1
  C  C385  1  0.94860000  0.23770000  0.74660000  1
  C  C386  1  0.05530000  0.23430000  0.68680000  1
  C  C387  1  0.50050000  0.23350000  0.32610000  1
  C  C388  1  0.83940000  0.23290000  0.80730000  1
  C  C389  1  0.19240000  0.22960000  0.04520000  1
  C  C390  1  0.87780000  0.21750000  0.71700000  1
  C  C391  1  0.49850000  0.21690000  0.42510000  1
  C  C392  1  0.98490000  0.21640000  0.65730000  1
  C  C393  1  0.76770000  0.21190000  0.77700000  1
  C  C394  1  0.50930000  0.21010000  0.46830000  1
  C  C395  1  0.89660000  0.20780000  0.67300000  1
  C  C396  1  0.68360000  0.20360000  0.57190000  1
  C  C397  1  0.78640000  0.20350000  0.73360000  1
  C  C398  1  0.97520000  0.20200000  0.31510000  1
  C  C399  1  0.62110000  0.19900000  0.60580000  1
  C  C400  1  0.67060000  0.19360000  0.79230000  1
  C  C401  1  0.28340000  0.18910000  0.05120000  1
  C  C402  1  0.34200000  0.18130000  0.01480000  1
  C  C403  1  0.49240000  0.16350000  0.35030000  1
  C  C404  1  0.31020000  0.16030000  0.09130000  1
  C  C405  1  0.25140000  0.16010000  0.12900000  1
  C  C406  1  0.49510000  0.15790000  0.39580000  1
  C  C407  1  0.42940000  0.14760000  0.01900000  1
  C  C408  1  0.98990000  0.14590000  0.24430000  1
  C  C409  1  0.73860000  0.14390000  0.56220000  1
  C  C410  1  0.51460000  0.14390000  0.48910000  1
  C  C411  1  0.79730000  0.14100000  0.52490000  1
  C  C412  1  0.98270000  0.13950000  0.28770000  1
  C  C413  1  0.61700000  0.13850000  0.63410000  1
  C  C414  1  0.49520000  0.13770000  0.98090000  1
  C  C415  1  0.31710000  0.13550000  0.83980000  1
  C  C416  1  0.55640000  0.13510000  0.67300000  1
  C  C417  1  0.28070000  0.13170000  0.16710000  1
  C  C418  1  0.39710000  0.12590000  0.09600000  1
  C  C419  1  0.45550000  0.12090000  0.05870000  1
  C  C420  1  0.19720000  0.11840000  0.89790000  1
  C  C421  1  0.21990000  0.11650000  0.85420000  1
  C  C422  1  0.08920000  0.10720000  0.95820000  1
  C  C423  1  0.11000000  0.10340000  0.91280000  1
  C  C424  1  0.49170000  0.10190000  0.32600000  1
  C  C425  1  0.36700000  0.10100000  0.17180000  1
  C  C426  1  0.42260000  0.09710000  0.13690000  1
  C  C427  1  0.00320000  0.09670000  0.97300000  1
  C  C428  1  0.15060000  0.09540000  0.82380000  1
  C  C429  1  0.00840000  0.09500000  0.17010000  1
  C  C430  1  0.49880000  0.09120000  0.41670000  1
  C  C431  1  0.00090000  0.08710000  0.21660000  1
  C  C432  1  0.03910000  0.08570000  0.88230000  1
  C  C433  1  0.50670000  0.08560000  0.46180000  1
  C  C434  1  0.93030000  0.08240000  0.94250000  1
  C  C435  1  0.73370000  0.08230000  0.58840000  1
  C  C436  1  0.67450000  0.08180000  0.62620000  1
  C  C437  1  0.84800000  0.08070000  0.51570000  1
  C  C438  1  0.06200000  0.07970000  0.83810000  1
  C  C439  1  0.94840000  0.07570000  0.89960000  1
  C  C440  1  0.99150000  0.07090000  0.30750000  1
  C  C441  1  0.99000000  0.05930000  0.80310000  1
  C  C442  1  0.02050000  0.03980000  0.14370000  1
  C  C443  1  0.98290000  0.03810000  0.70610000  1
  C  C444  1  0.49040000  0.03550000  0.34570000  1
  C  C445  1  0.49410000  0.03150000  0.39030000  1
  C  C446  1  0.51000000  0.03030000  0.81900000  1
  C  C447  1  0.97600000  0.02640000  0.66200000  1
  C  C448  1  0.84400000  0.02400000  0.54230000  1
  C  C449  1  0.78700000  0.02380000  0.57800000  1
  C  C450  1  0.00580000  0.01890000  0.23490000  1
  C  C451  1  0.99870000  0.01070000  0.28080000  1
  O  O452  1  0.50170000  0.97286000  0.27831000  1
  O  O453  1  0.00690000  0.93610000  0.85079000  1
  O  O454  1  0.44690000  0.91788000  0.19685000  1
  O  O455  1  0.47890000  0.91148000  0.33756000  1
  O  O456  1  0.83100000  0.90960000  0.28065000  1
  O  O457  1  0.50590000  0.89151000  0.78140000  1
  O  O458  1  0.42930000  0.88890000  0.48671000  1
  O  O459  1  0.65960000  0.87976000  0.30100000  1
  O  O460  1  0.53300000  0.83900000  0.44401000  1
  O  O461  1  0.63110000  0.83410000  0.36790000  1
  O  O462  1  0.38330000  0.83220000  0.26615000  1
  O  O463  1  0.49180000  0.80940000  0.18360000  1
  O  O464  1  0.02100000  0.80270000  0.85684000  1
  O  O465  1  0.68550000  0.79260000  0.47576000  1
  O  O466  1  0.34970000  0.79150000  0.33256000  1
  O  O467  1  0.52980000  0.76340000  0.29844000  1
  O  O468  1  0.17780000  0.76090000  0.35092000  1
  O  O469  1  0.93850000  0.75220000  0.61339000  1
  O  O470  1  0.43850000  0.74780000  0.11339000  1
  O  O471  1  0.67780000  0.73910000  0.85092000  1
  O  O472  1  0.02980000  0.73660000  0.79844000  1
  O  O473  1  0.84970000  0.70850000  0.83256000  1
  O  O474  1  0.18550000  0.70740000  0.97576000  1
  O  O475  1  0.52100000  0.69730000  0.35684000  1
  O  O476  1  0.99180000  0.69060000  0.68360000  1
  O  O477  1  0.88330000  0.66780000  0.76615000  1
  O  O478  1  0.13110000  0.66590000  0.86790000  1
  O  O479  1  0.03300000  0.66100000  0.94401000  1
  O  O480  1  0.15960000  0.62024000  0.80100000  1
  O  O481  1  0.92930000  0.61110000  0.98671000  1
  O  O482  1  0.00590000  0.60849000  0.28140000  1
  O  O483  1  0.33100000  0.59040000  0.78065000  1
  O  O484  1  0.97890000  0.58852000  0.83756000  1
  O  O485  1  0.94690000  0.58212000  0.69685000  1
  O  O486  1  0.50690000  0.56390000  0.35079000  1
  O  O487  1  0.00170000  0.52714000  0.77831000  1
  O  O488  1  0.99830000  0.47286000  0.27831000  1
  O  O489  1  0.49310000  0.43610000  0.85079000  1
  O  O490  1  0.05310000  0.41788000  0.19685000  1
  O  O491  1  0.02110000  0.41148000  0.33756000  1
  O  O492  1  0.66900000  0.40960000  0.28065000  1
  O  O493  1  0.99410000  0.39151000  0.78140000  1
  O  O494  1  0.07070000  0.38890000  0.48671000  1
  O  O495  1  0.84040000  0.37976000  0.30100000  1
  O  O496  1  0.96700000  0.33900000  0.44401000  1
  O  O497  1  0.86890000  0.33410000  0.36790000  1
  O  O498  1  0.11670000  0.33220000  0.26615000  1
  O  O499  1  0.00820000  0.30940000  0.18360000  1
  O  O500  1  0.47900000  0.30270000  0.85684000  1
  O  O501  1  0.81450000  0.29260000  0.47576000  1
  O  O502  1  0.15030000  0.29150000  0.33256000  1
  O  O503  1  0.97020000  0.26340000  0.29844000  1
  O  O504  1  0.32220000  0.26090000  0.35092000  1
  O  O505  1  0.56150000  0.25220000  0.61339000  1
  O  O506  1  0.06150000  0.24780000  0.11339000  1
  O  O507  1  0.82220000  0.23910000  0.85092000  1
  O  O508  1  0.47020000  0.23660000  0.79844000  1
  O  O509  1  0.65030000  0.20850000  0.83256000  1
  O  O510  1  0.31450000  0.20740000  0.97576000  1
  O  O511  1  0.97900000  0.19730000  0.35684000  1
  O  O512  1  0.50820000  0.19060000  0.68360000  1
  O  O513  1  0.61670000  0.16780000  0.76615000  1
  O  O514  1  0.36890000  0.16590000  0.86790000  1
  O  O515  1  0.46700000  0.16100000  0.94401000  1
  O  O516  1  0.34040000  0.12024000  0.80100000  1
  O  O517  1  0.57070000  0.11110000  0.98671000  1
  O  O518  1  0.49410000  0.10849000  0.28140000  1
  O  O519  1  0.16900000  0.09040000  0.78065000  1
  O  O520  1  0.52110000  0.08852000  0.83756000  1
  O  O521  1  0.55310000  0.08212000  0.69685000  1
  O  O522  1  0.99310000  0.06390000  0.35079000  1
  O  O523  1  0.49830000  0.02714000  0.77831000  1
