# generated using pymatgen
data_AlPO4
_symmetry_space_group_name_H-M   'P 1'
_cell_length_a   9.44882475
_cell_length_b   9.44882475
_cell_length_c   9.44882475
_cell_angle_alpha   94.40651692
_cell_angle_beta   94.40651692
_cell_angle_gamma   94.40651692
_symmetry_Int_Tables_number   1
_chemical_formula_structural   AlPO4
_chemical_formula_sum   'Al6 P6 O24'
_cell_volume   835.70441212
_cell_formula_units_Z   6
loop_
 _symmetry_equiv_pos_site_id
 _symmetry_equiv_pos_as_xyz
  1  'x, y, z'
loop_
 _atom_site_type_symbol
 _atom_site_label
 _atom_site_symmetry_multiplicity
 _atom_site_fract_x
 _atom_site_fract_y
 _atom_site_fract_z
 _atom_site_occupancy
  Al  Al0  1  0.91220000  0.12870000  0.67330000  1
  Al  Al1  1  0.67330000  0.91220000  0.12870000  1
  Al  Al2  1  0.87130000  0.32670000  0.08780000  1
  Al  Al3  1  0.12870000  0.67330000  0.91220000  1
  Al  Al4  1  0.32670000  0.08780000  0.87130000  1
  Al  Al5  1  0.08780000  0.87130000  0.32670000  1
  O  O6  1  0.83260000  0.50880000  0.13160000  1
  O  O7  1  0.02980000  0.28320000  0.74570000  1
  O  O8  1  0.50880000  0.13160000  0.83260000  1
  O  O9  1  0.86840000  0.16740000  0.49120000  1
  O  O10  1  0.74570000  0.02980000  0.28320000  1
  O  O11  1  0.71680000  0.25430000  0.97020000  1
  O  O12  1  0.95810000  0.68200000  0.99190000  1
  O  O13  1  0.88890000  0.25640000  0.26110000  1
  O  O14  1  0.99190000  0.95810000  0.68200000  1
  O  O15  1  0.25640000  0.26110000  0.88890000  1
  O  O16  1  0.26110000  0.88890000  0.25640000  1
  O  O17  1  0.68200000  0.99190000  0.95810000  1
  O  O18  1  0.31800000  0.00810000  0.04190000  1
  O  O19  1  0.73890000  0.11110000  0.74360000  1
  O  O20  1  0.74360000  0.73890000  0.11110000  1
  O  O21  1  0.00810000  0.04190000  0.31800000  1
  O  O22  1  0.11110000  0.74360000  0.73890000  1
  O  O23  1  0.04190000  0.31800000  0.00810000  1
  O  O24  1  0.28320000  0.74570000  0.02980000  1
  O  O25  1  0.25430000  0.97020000  0.71680000  1
  O  O26  1  0.13160000  0.83260000  0.50880000  1
  O  O27  1  0.49120000  0.86840000  0.16740000  1
  O  O28  1  0.97020000  0.71680000  0.25430000  1
  O  O29  1  0.16740000  0.49120000  0.86840000  1
  P  P30  1  0.12150000  0.33690000  0.87840000  1
  P  P31  1  0.87840000  0.12150000  0.33690000  1
  P  P32  1  0.66310000  0.12160000  0.87850000  1
  P  P33  1  0.33690000  0.87840000  0.12150000  1
  P  P34  1  0.12160000  0.87850000  0.66310000  1
  P  P35  1  0.87850000  0.66310000  0.12160000  1
