# generated using pymatgen
data_ZnH13C20N2O5
_symmetry_space_group_name_H-M   'P 1'
_cell_length_a   12.34400000
_cell_length_b   15.66300000
_cell_length_c   26.32300000
_cell_angle_alpha   90.00000000
_cell_angle_beta   90.00000000
_cell_angle_gamma   97.56000000
_symmetry_Int_Tables_number   1
_chemical_formula_structural   ZnH13C20N2O5
_chemical_formula_sum   'Zn8 H104 C160 N16 O40'
_cell_volume   5045.15709953
_cell_formula_units_Z   8
loop_
 _symmetry_equiv_pos_site_id
 _symmetry_equiv_pos_as_xyz
  1  'x, y, z'
loop_
 _atom_site_type_symbol
 _atom_site_label
 _atom_site_symmetry_multiplicity
 _atom_site_fract_x
 _atom_site_fract_y
 _atom_site_fract_z
 _atom_site_occupancy
  Zn  Zn0  1  0.77632000  0.77880000  0.75901000  1
  Zn  Zn1  1  0.77632000  0.27880000  0.74099000  1
  Zn  Zn2  1  0.61721000  0.09166000  0.76324000  1
  Zn  Zn3  1  0.61721000  0.59166000  0.73676000  1
  Zn  Zn4  1  0.38279000  0.40834000  0.26324000  1
  Zn  Zn5  1  0.38279000  0.90834000  0.23676000  1
  Zn  Zn6  1  0.22368000  0.72120000  0.25901000  1
  Zn  Zn7  1  0.22368000  0.22120000  0.24099000  1
  H  H8  1  0.98920000  0.98990000  0.93250000  1
  H  H9  1  0.98920000  0.48990000  0.56750000  1
  H  H10  1  0.98720000  0.64660000  0.27280000  1
  H  H11  1  0.98720000  0.14660000  0.22720000  1
  H  H12  1  0.98370000  0.27420000  0.32190000  1
  H  H13  1  0.98370000  0.77420000  0.17810000  1
  H  H14  1  0.97090000  0.32120000  0.49070000  1
  H  H15  1  0.97090000  0.82120000  0.00930000  1
  H  H16  1  0.95720000  0.76920000  0.92630000  1
  H  H17  1  0.95720000  0.26920000  0.57370000  1
  H  H18  1  0.95460000  0.82010000  0.29000000  1
  H  H19  1  0.95460000  0.32010000  0.21000000  1
  H  H20  1  0.87690000  0.51660000  0.26510000  1
  H  H21  1  0.87690000  0.01660000  0.23490000  1
  H  H22  1  0.87650000  0.57770000  0.80790000  1
  H  H23  1  0.87650000  0.07770000  0.69210000  1
  H  H24  1  0.84650000  0.00560000  0.87670000  1
  H  H25  1  0.84650000  0.50560000  0.62330000  1
  H  H26  1  0.84190000  0.28880000  0.38000000  1
  H  H27  1  0.84190000  0.78880000  0.12000000  1
  H  H28  1  0.79840000  0.56430000  0.97390000  1
  H  H29  1  0.79840000  0.06430000  0.52610000  1
  H  H30  1  0.77260000  0.44670000  0.79630000  1
  H  H31  1  0.77260000  0.94670000  0.70370000  1
  H  H32  1  0.76810000  0.56960000  0.88620000  1
  H  H33  1  0.76810000  0.06960000  0.61380000  1
  H  H34  1  0.72470000  0.11060000  0.25850000  1
  H  H35  1  0.72470000  0.61060000  0.24150000  1
  H  H36  1  0.68270000  0.91740000  0.99160000  1
  H  H37  1  0.68270000  0.41740000  0.50840000  1
  H  H38  1  0.67750000  0.26160000  0.43280000  1
  H  H39  1  0.67750000  0.76160000  0.06720000  1
  H  H40  1  0.67210000  0.86490000  0.90800000  1
  H  H41  1  0.67210000  0.36490000  0.59200000  1
  H  H42  1  0.64640000  0.81050000  0.29010000  1
  H  H43  1  0.64640000  0.31050000  0.20990000  1
  H  H44  1  0.62080000  0.92300000  0.81360000  1
  H  H45  1  0.62080000  0.42300000  0.68640000  1
  H  H46  1  0.61250000  0.98240000  0.26330000  1
  H  H47  1  0.61250000  0.48240000  0.23670000  1
  H  H48  1  0.57710000  0.41950000  0.83780000  1
  H  H49  1  0.57710000  0.91950000  0.66220000  1
  H  H50  1  0.57660000  0.31890000  0.36890000  1
  H  H51  1  0.57660000  0.81890000  0.13110000  1
  H  H52  1  0.53230000  0.02270000  0.39820000  1
  H  H53  1  0.53230000  0.52270000  0.10180000  1
  H  H54  1  0.51530000  0.83730000  0.41060000  1
  H  H55  1  0.51530000  0.33730000  0.08940000  1
  H  H56  1  0.51340000  0.79070000  0.81990000  1
  H  H57  1  0.51340000  0.29070000  0.68010000  1
  H  H58  1  0.51240000  0.65980000  0.99820000  1
  H  H59  1  0.51240000  0.15980000  0.50180000  1
  H  H60  1  0.48760000  0.84020000  0.49820000  1
  H  H61  1  0.48760000  0.34020000  0.00180000  1
  H  H62  1  0.48660000  0.70930000  0.31990000  1
  H  H63  1  0.48660000  0.20930000  0.18010000  1
  H  H64  1  0.48470000  0.66270000  0.91060000  1
  H  H65  1  0.48470000  0.16270000  0.58940000  1
  H  H66  1  0.46770000  0.47730000  0.89820000  1
  H  H67  1  0.46770000  0.97730000  0.60180000  1
  H  H68  1  0.42340000  0.18110000  0.86890000  1
  H  H69  1  0.42340000  0.68110000  0.63110000  1
  H  H70  1  0.42290000  0.08050000  0.33780000  1
  H  H71  1  0.42290000  0.58050000  0.16220000  1
  H  H72  1  0.38750000  0.51760000  0.76330000  1
  H  H73  1  0.38750000  0.01760000  0.73670000  1
  H  H74  1  0.37920000  0.57700000  0.31360000  1
  H  H75  1  0.37920000  0.07700000  0.18640000  1
  H  H76  1  0.35360000  0.68950000  0.79010000  1
  H  H77  1  0.35360000  0.18950000  0.70990000  1
  H  H78  1  0.32790000  0.63510000  0.40800000  1
  H  H79  1  0.32790000  0.13510000  0.09200000  1
  H  H80  1  0.32250000  0.23840000  0.93280000  1
  H  H81  1  0.32250000  0.73840000  0.56720000  1
  H  H82  1  0.31730000  0.58260000  0.49160000  1
  H  H83  1  0.31730000  0.08260000  0.00840000  1
  H  H84  1  0.27530000  0.38940000  0.75850000  1
  H  H85  1  0.27530000  0.88940000  0.74150000  1
  H  H86  1  0.23190000  0.93040000  0.38620000  1
  H  H87  1  0.23190000  0.43040000  0.11380000  1
  H  H88  1  0.22740000  0.05330000  0.29630000  1
  H  H89  1  0.22740000  0.55330000  0.20370000  1
  H  H90  1  0.20160000  0.93570000  0.47390000  1
  H  H91  1  0.20160000  0.43570000  0.02610000  1
  H  H92  1  0.15810000  0.21120000  0.88000000  1
  H  H93  1  0.15810000  0.71120000  0.62000000  1
  H  H94  1  0.15350000  0.49440000  0.37670000  1
  H  H95  1  0.15350000  0.99440000  0.12330000  1
  H  H96  1  0.12350000  0.92230000  0.30790000  1
  H  H97  1  0.12350000  0.42230000  0.19210000  1
  H  H98  1  0.12310000  0.98340000  0.76510000  1
  H  H99  1  0.12310000  0.48340000  0.73490000  1
  H  H100  1  0.04540000  0.67990000  0.79000000  1
  H  H101  1  0.04540000  0.17990000  0.71000000  1
  H  H102  1  0.04280000  0.73080000  0.42630000  1
  H  H103  1  0.04280000  0.23080000  0.07370000  1
  H  H104  1  0.02910000  0.17880000  0.99070000  1
  H  H105  1  0.02910000  0.67880000  0.50930000  1
  H  H106  1  0.01630000  0.22580000  0.82190000  1
  H  H107  1  0.01630000  0.72580000  0.67810000  1
  H  H108  1  0.01280000  0.85340000  0.77280000  1
  H  H109  1  0.01280000  0.35340000  0.72720000  1
  H  H110  1  0.01080000  0.51010000  0.43250000  1
  H  H111  1  0.01080000  0.01010000  0.06750000  1
  C  C112  1  0.99350000  0.03860000  0.91070000  1
  C  C113  1  0.99350000  0.53860000  0.58930000  1
  C  C114  1  0.98990000  0.32130000  0.34490000  1
  C  C115  1  0.98990000  0.82130000  0.15510000  1
  C  C116  1  0.98590000  0.95250000  0.27200000  1
  C  C117  1  0.98590000  0.45250000  0.22800000  1
  C  C118  1  0.98430000  0.90030000  0.75710000  1
  C  C119  1  0.98430000  0.40030000  0.74290000  1
  C  C120  1  0.94920000  0.52230000  0.25200000  1
  C  C121  1  0.94920000  0.02230000  0.24800000  1
  C  C122  1  0.92270000  0.86710000  0.27630000  1
  C  C123  1  0.92270000  0.36710000  0.22370000  1
  C  C124  1  0.91730000  0.40000000  0.41220000  1
  C  C125  1  0.91730000  0.90000000  0.08780000  1
  C  C126  1  0.91610000  0.11750000  0.84460000  1
  C  C127  1  0.91610000  0.61750000  0.65540000  1
  C  C128  1  0.91050000  0.83060000  0.98870000  1
  C  C129  1  0.91050000  0.33060000  0.51130000  1
  C  C130  1  0.90940000  0.04760000  0.87730000  1
  C  C131  1  0.90940000  0.54760000  0.62270000  1
  C  C132  1  0.90650000  0.53310000  0.79050000  1
  C  C133  1  0.90650000  0.03310000  0.70950000  1
  C  C134  1  0.90570000  0.32990000  0.37920000  1
  C  C135  1  0.90570000  0.82990000  0.12080000  1
  C  C136  1  0.90170000  0.79980000  0.93930000  1
  C  C137  1  0.90170000  0.29980000  0.56070000  1
  C  C138  1  0.84500000  0.45470000  0.78330000  1
  C  C139  1  0.84500000  0.95470000  0.71670000  1
  C  C140  1  0.82960000  0.37530000  0.49290000  1
  C  C141  1  0.82960000  0.87530000  0.00710000  1
  C  C142  1  0.82750000  0.12990000  0.80860000  1
  C  C143  1  0.82750000  0.62990000  0.69140000  1
  C  C144  1  0.81420000  0.81220000  0.90820000  1
  C  C145  1  0.81420000  0.31220000  0.59180000  1
  C  C146  1  0.81240000  0.78640000  0.85390000  1
  C  C147  1  0.81240000  0.28640000  0.64610000  1
  C  C148  1  0.73890000  0.88800000  0.97810000  1
  C  C149  1  0.73890000  0.38800000  0.52190000  1
  C  C150  1  0.73420000  0.58410000  0.96100000  1
  C  C151  1  0.73420000  0.08410000  0.53900000  1
  C  C152  1  0.73300000  0.85630000  0.92850000  1
  C  C153  1  0.73300000  0.35630000  0.57150000  1
  C  C154  1  0.71600000  0.58780000  0.90900000  1
  C  C155  1  0.71600000  0.08780000  0.59100000  1
  C  C156  1  0.67870000  0.76210000  0.27880000  1
  C  C157  1  0.67870000  0.26210000  0.22120000  1
  C  C158  1  0.65620000  0.61000000  0.99380000  1
  C  C159  1  0.65620000  0.11000000  0.50620000  1
  C  C160  1  0.65320000  0.60520000  0.25550000  1
  C  C161  1  0.65320000  0.10520000  0.24450000  1
  C  C162  1  0.62740000  0.22490000  0.41260000  1
  C  C163  1  0.62740000  0.72490000  0.08740000  1
  C  C164  1  0.62340000  0.61740000  0.88990000  1
  C  C165  1  0.62340000  0.11740000  0.61010000  1
  C  C166  1  0.61430000  0.67450000  0.27820000  1
  C  C167  1  0.61430000  0.17450000  0.22180000  1
  C  C168  1  0.61330000  0.13630000  0.41990000  1
  C  C169  1  0.61330000  0.63630000  0.08010000  1
  C  C170  1  0.60000000  0.61530000  0.83460000  1
  C  C171  1  0.60000000  0.11530000  0.66540000  1
  C  C172  1  0.58680000  0.52940000  0.25360000  1
  C  C173  1  0.58680000  0.02940000  0.24640000  1
  C  C174  1  0.57530000  0.25610000  0.80780000  1
  C  C175  1  0.57530000  0.75610000  0.69220000  1
  C  C176  1  0.56650000  0.25870000  0.37510000  1
  C  C177  1  0.56650000  0.75870000  0.12490000  1
  C  C178  1  0.56420000  0.64070000  0.97560000  1
  C  C179  1  0.56420000  0.14070000  0.52440000  1
  C  C180  1  0.55020000  0.91560000  0.79850000  1
  C  C181  1  0.55020000  0.41560000  0.70150000  1
  C  C182  1  0.54880000  0.64290000  0.92350000  1
  C  C183  1  0.54880000  0.14290000  0.57650000  1
  C  C184  1  0.54010000  0.08310000  0.39260000  1
  C  C185  1  0.54010000  0.58310000  0.10740000  1
  C  C186  1  0.52350000  0.38270000  0.85620000  1
  C  C187  1  0.52350000  0.88270000  0.64380000  1
  C  C188  1  0.51210000  0.66330000  0.30190000  1
  C  C189  1  0.51210000  0.16330000  0.19810000  1
  C  C190  1  0.50870000  0.29430000  0.84660000  1
  C  C191  1  0.50870000  0.79430000  0.65340000  1
  C  C192  1  0.49130000  0.20570000  0.34660000  1
  C  C193  1  0.49130000  0.70570000  0.15340000  1
  C  C194  1  0.48790000  0.83670000  0.80190000  1
  C  C195  1  0.48790000  0.33670000  0.69810000  1
  C  C196  1  0.47650000  0.11730000  0.35620000  1
  C  C197  1  0.47650000  0.61730000  0.14380000  1
  C  C198  1  0.45990000  0.41690000  0.89260000  1
  C  C199  1  0.45990000  0.91690000  0.60740000  1
  C  C200  1  0.45120000  0.85710000  0.42350000  1
  C  C201  1  0.45120000  0.35710000  0.07650000  1
  C  C202  1  0.44980000  0.58440000  0.29850000  1
  C  C203  1  0.44980000  0.08440000  0.20150000  1
  C  C204  1  0.43580000  0.85930000  0.47560000  1
  C  C205  1  0.43580000  0.35930000  0.02440000  1
  C  C206  1  0.43350000  0.24130000  0.87510000  1
  C  C207  1  0.43350000  0.74130000  0.62490000  1
  C  C208  1  0.42470000  0.24390000  0.30780000  1
  C  C209  1  0.42470000  0.74390000  0.19220000  1
  C  C210  1  0.41320000  0.97060000  0.75360000  1
  C  C211  1  0.41320000  0.47060000  0.74640000  1
  C  C212  1  0.40000000  0.88470000  0.33460000  1
  C  C213  1  0.40000000  0.38470000  0.16540000  1
  C  C214  1  0.38670000  0.36370000  0.91990000  1
  C  C215  1  0.38670000  0.86370000  0.58010000  1
  C  C216  1  0.38570000  0.82550000  0.77820000  1
  C  C217  1  0.38570000  0.32550000  0.72180000  1
  C  C218  1  0.37660000  0.88260000  0.38990000  1
  C  C219  1  0.37660000  0.38260000  0.11010000  1
  C  C220  1  0.37260000  0.27510000  0.91260000  1
  C  C221  1  0.37260000  0.77510000  0.58740000  1
  C  C222  1  0.34680000  0.89480000  0.75550000  1
  C  C223  1  0.34680000  0.39480000  0.74450000  1
  C  C224  1  0.34380000  0.89000000  0.49380000  1
  C  C225  1  0.34380000  0.39000000  0.00620000  1
  C  C226  1  0.32130000  0.73790000  0.77880000  1
  C  C227  1  0.32130000  0.23790000  0.72120000  1
  C  C228  1  0.28400000  0.91220000  0.40900000  1
  C  C229  1  0.28400000  0.41220000  0.09100000  1
  C  C230  1  0.26700000  0.64370000  0.42850000  1
  C  C231  1  0.26700000  0.14370000  0.07150000  1
  C  C232  1  0.26580000  0.91590000  0.46100000  1
  C  C233  1  0.26580000  0.41590000  0.03900000  1
  C  C234  1  0.26110000  0.61200000  0.47810000  1
  C  C235  1  0.26110000  0.11200000  0.02190000  1
  C  C236  1  0.18760000  0.71360000  0.35390000  1
  C  C237  1  0.18760000  0.21360000  0.14610000  1
  C  C238  1  0.18580000  0.68780000  0.40820000  1
  C  C239  1  0.18580000  0.18780000  0.09180000  1
  C  C240  1  0.17250000  0.37010000  0.30860000  1
  C  C241  1  0.17250000  0.87010000  0.19140000  1
  C  C242  1  0.17040000  0.12470000  0.99290000  1
  C  C243  1  0.17040000  0.62470000  0.50710000  1
  C  C244  1  0.15500000  0.04530000  0.28330000  1
  C  C245  1  0.15500000  0.54530000  0.21670000  1
  C  C246  1  0.09830000  0.70020000  0.43930000  1
  C  C247  1  0.09830000  0.20020000  0.06070000  1
  C  C248  1  0.09430000  0.17010000  0.87920000  1
  C  C249  1  0.09430000  0.67010000  0.62080000  1
  C  C250  1  0.09350000  0.96690000  0.29050000  1
  C  C251  1  0.09350000  0.46690000  0.20950000  1
  C  C252  1  0.09060000  0.45240000  0.37730000  1
  C  C253  1  0.09060000  0.95240000  0.12270000  1
  C  C254  1  0.08950000  0.66940000  0.48870000  1
  C  C255  1  0.08950000  0.16940000  0.01130000  1
  C  C256  1  0.08390000  0.38250000  0.34460000  1
  C  C257  1  0.08390000  0.88250000  0.15540000  1
  C  C258  1  0.08270000  0.10000000  0.91220000  1
  C  C259  1  0.08270000  0.60000000  0.58780000  1
  C  C260  1  0.07730000  0.63290000  0.77630000  1
  C  C261  1  0.07730000  0.13290000  0.72370000  1
  C  C262  1  0.05080000  0.97770000  0.75200000  1
  C  C263  1  0.05080000  0.47770000  0.74800000  1
  C  C264  1  0.01570000  0.59970000  0.25710000  1
  C  C265  1  0.01570000  0.09970000  0.24290000  1
  C  C266  1  0.01410000  0.54750000  0.77200000  1
  C  C267  1  0.01410000  0.04750000  0.72800000  1
  C  C268  1  0.01010000  0.17870000  0.84490000  1
  C  C269  1  0.01010000  0.67870000  0.65510000  1
  C  C270  1  0.00650000  0.46140000  0.41070000  1
  C  C271  1  0.00650000  0.96140000  0.08930000  1
  N  N272  1  0.88040000  0.38920000  0.75945000  1
  N  N273  1  0.88040000  0.88920000  0.74055000  1
  N  N274  1  0.82560000  0.85740000  0.26170000  1
  N  N275  1  0.82560000  0.35740000  0.23830000  1
  N  N276  1  0.77900000  0.77110000  0.26360000  1
  N  N277  1  0.77900000  0.27110000  0.23640000  1
  N  N278  1  0.51490000  0.98330000  0.77460000  1
  N  N279  1  0.51490000  0.48330000  0.72540000  1
  N  N280  1  0.48510000  0.51670000  0.27460000  1
  N  N281  1  0.48510000  0.01670000  0.22540000  1
  N  N282  1  0.22100000  0.72890000  0.76360000  1
  N  N283  1  0.22100000  0.22890000  0.73640000  1
  N  N284  1  0.17440000  0.64260000  0.76170000  1
  N  N285  1  0.17440000  0.14260000  0.73830000  1
  N  N286  1  0.11960000  0.11080000  0.25945000  1
  N  N287  1  0.11960000  0.61080000  0.24055000  1
  O  O288  1  0.88950000  0.75580000  0.83432000  1
  O  O289  1  0.88950000  0.25580000  0.66568000  1
  O  O290  1  0.84540000  0.19290000  0.77811000  1
  O  O291  1  0.84540000  0.69290000  0.72189000  1
  O  O292  1  0.82950000  0.41010000  0.44400000  1
  O  O293  1  0.82950000  0.91010000  0.05600000  1
  O  O294  1  0.74010000  0.07780000  0.80981000  1
  O  O295  1  0.74010000  0.57780000  0.69019000  1
  O  O296  1  0.72790000  0.80100000  0.82767000  1
  O  O297  1  0.72790000  0.30100000  0.67233000  1
  O  O298  1  0.67820000  0.10080000  0.45522000  1
  O  O299  1  0.67820000  0.60080000  0.04478000  1
  O  O300  1  0.67770000  0.59830000  0.80522000  1
  O  O301  1  0.67770000  0.09830000  0.69478000  1
  O  O302  1  0.65610000  0.30260000  0.78881000  1
  O  O303  1  0.65610000  0.80260000  0.71119000  1
  O  O304  1  0.54570000  0.17810000  0.79750000  1
  O  O305  1  0.54570000  0.67810000  0.70250000  1
  O  O306  1  0.50800000  0.62570000  0.81829000  1
  O  O307  1  0.50800000  0.12570000  0.68171000  1
  O  O308  1  0.49200000  0.87430000  0.31829000  1
  O  O309  1  0.49200000  0.37430000  0.18171000  1
  O  O310  1  0.45430000  0.32190000  0.29750000  1
  O  O311  1  0.45430000  0.82190000  0.20250000  1
  O  O312  1  0.34390000  0.19740000  0.28881000  1
  O  O313  1  0.34390000  0.69740000  0.21119000  1
  O  O314  1  0.32230000  0.90170000  0.30522000  1
  O  O315  1  0.32230000  0.40170000  0.19478000  1
  O  O316  1  0.32180000  0.39920000  0.95522000  1
  O  O317  1  0.32180000  0.89920000  0.54478000  1
  O  O318  1  0.27210000  0.69900000  0.32767000  1
  O  O319  1  0.27210000  0.19900000  0.17233000  1
  O  O320  1  0.25990000  0.42220000  0.30981000  1
  O  O321  1  0.25990000  0.92220000  0.19019000  1
  O  O322  1  0.17050000  0.08990000  0.94400000  1
  O  O323  1  0.17050000  0.58990000  0.55600000  1
  O  O324  1  0.15460000  0.30710000  0.27811000  1
  O  O325  1  0.15460000  0.80710000  0.22189000  1
  O  O326  1  0.11050000  0.74420000  0.33432000  1
  O  O327  1  0.11050000  0.24420000  0.16568000  1
