# generated using pymatgen
data_ZnH18C20(NO)4
_symmetry_space_group_name_H-M   'P 1'
_cell_length_a   10.75750000
_cell_length_b   15.31800000
_cell_length_c   29.39060000
_cell_angle_alpha   81.11200000
_cell_angle_beta   87.71100000
_cell_angle_gamma   84.53600000
_symmetry_Int_Tables_number   1
_chemical_formula_structural   ZnH18C20(NO)4
_chemical_formula_sum   'Zn8 H144 C160 N32 O32'
_cell_volume   4761.61905510
_cell_formula_units_Z   8
loop_
 _symmetry_equiv_pos_site_id
 _symmetry_equiv_pos_as_xyz
  1  'x, y, z'
loop_
 _atom_site_type_symbol
 _atom_site_label
 _atom_site_symmetry_multiplicity
 _atom_site_fract_x
 _atom_site_fract_y
 _atom_site_fract_z
 _atom_site_occupancy
  Zn  Zn0  1  0.20491000  0.14310000  0.19025000  1
  Zn  Zn1  1  0.23574000  0.39167000  0.68358000  1
  Zn  Zn2  1  0.27361000  0.64965000  0.69180000  1
  Zn  Zn3  1  0.30113000  0.87076000  0.17906000  1
  Zn  Zn4  1  0.69887000  0.12924000  0.82094000  1
  Zn  Zn5  1  0.72639000  0.35035000  0.30820000  1
  Zn  Zn6  1  0.76426000  0.60833000  0.31642000  1
  Zn  Zn7  1  0.79509000  0.85690000  0.80975000  1
  H  H8  1  0.00010000  0.75510000  0.09200000  1
  H  H9  1  0.00180000  0.27930000  0.83060000  1
  H  H10  1  0.00510000  0.85290000  0.10110000  1
  H  H11  1  0.00910000  0.11120000  0.35020000  1
  H  H12  1  0.02280000  0.45890000  0.08670000  1
  H  H13  1  0.03040000  0.96980000  0.46060000  1
  H  H14  1  0.03460000  0.35430000  0.75850000  1
  H  H15  1  0.03700000  0.65860000  0.40170000  1
  H  H16  1  0.04020000  0.06750000  0.43610000  1
  H  H17  1  0.04130000  0.49480000  0.95880000  1
  H  H18  1  0.04160000  0.17000000  0.27460000  1
  H  H19  1  0.04360000  0.99440000  0.58440000  1
  H  H20  1  0.04630000  0.76080000  0.39930000  1
  H  H21  1  0.04980000  0.16540000  0.94480000  1
  H  H22  1  0.05500000  0.22120000  0.10320000  1
  H  H23  1  0.05820000  0.74380000  0.31970000  1
  H  H24  1  0.06720000  0.63970000  0.84940000  1
  H  H25  1  0.07680000  0.28900000  0.02890000  1
  H  H26  1  0.07910000  0.58750000  0.93490000  1
  H  H27  1  0.09090000  0.69510000  0.44310000  1
  H  H28  1  0.09170000  0.08920000  0.80700000  1
  H  H29  1  0.09710000  0.80850000  0.24600000  1
  H  H30  1  0.10620000  0.43160000  0.19730000  1
  H  H31  1  0.10930000  0.74460000  0.61140000  1
  H  H32  1  0.11800000  0.69440000  0.77520000  1
  H  H33  1  0.11930000  0.81200000  0.53680000  1
  H  H34  1  0.12360000  0.12380000  0.66760000  1
  H  H35  1  0.13140000  0.54130000  0.60650000  1
  H  H36  1  0.13220000  0.36820000  0.30800000  1
  H  H37  1  0.14790000  0.54640000  0.30630000  1
  H  H38  1  0.15740000  0.59230000  0.53010000  1
  H  H39  1  0.17420000  0.96350000  0.68290000  1
  H  H40  1  0.17510000  0.57860000  0.18120000  1
  H  H41  1  0.17660000  0.07940000  0.03380000  1
  H  H42  1  0.17770000  0.02230000  0.10970000  1
  H  H43  1  0.18170000  0.91580000  0.80620000  1
  H  H44  1  0.28390000  0.43880000  0.42780000  1
  H  H45  1  0.31220000  0.94240000  0.33990000  1
  H  H46  1  0.31640000  0.43300000  0.84110000  1
  H  H47  1  0.31770000  0.06690000  0.80220000  1
  H  H48  1  0.31910000  0.93760000  0.91960000  1
  H  H49  1  0.33530000  0.00530000  0.26520000  1
  H  H50  1  0.34500000  0.40600000  0.30880000  1
  H  H51  1  0.35900000  0.43200000  0.18550000  1
  H  H52  1  0.36200000  0.59400000  0.30550000  1
  H  H53  1  0.36440000  0.49460000  0.76790000  1
  H  H54  1  0.37000000  0.07390000  0.68590000  1
  H  H55  1  0.37320000  0.21870000  0.83840000  1
  H  H56  1  0.38610000  0.50110000  0.40710000  1
  H  H57  1  0.39170000  0.31060000  0.92100000  1
  H  H58  1  0.39450000  0.35310000  0.60110000  1
  H  H59  1  0.39460000  0.29780000  0.76630000  1
  H  H60  1  0.39500000  0.01880000  0.90120000  1
  H  H61  1  0.41360000  0.89300000  0.80890000  1
  H  H62  1  0.41490000  0.18860000  0.11720000  1
  H  H63  1  0.41680000  0.83140000  0.41830000  1
  H  H64  1  0.41710000  0.42640000  0.44890000  1
  H  H65  1  0.41950000  0.91060000  0.70180000  1
  H  H66  1  0.42250000  0.83150000  0.08800000  1
  H  H67  1  0.42300000  0.74560000  0.34400000  1
  H  H68  1  0.42490000  0.39600000  0.52400000  1
  H  H69  1  0.42650000  0.58600000  0.16930000  1
  H  H70  1  0.42790000  0.88320000  0.01100000  1
  H  H71  1  0.44060000  0.24560000  0.96440000  1
  H  H72  1  0.44740000  0.25000000  0.04250000  1
  H  H73  1  0.44820000  0.94590000  0.94070000  1
  H  H74  1  0.45010000  0.81170000  0.26910000  1
  H  H75  1  0.45880000  0.74960000  0.45510000  1
  H  H76  1  0.46250000  0.34640000  0.95890000  1
  H  H77  1  0.46660000  0.67560000  0.61050000  1
  H  H78  1  0.48600000  0.73810000  0.53500000  1
  H  H79  1  0.49460000  0.84430000  0.46030000  1
  H  H80  1  0.50540000  0.15570000  0.53970000  1
  H  H81  1  0.51400000  0.26190000  0.46500000  1
  H  H82  1  0.53340000  0.32440000  0.38950000  1
  H  H83  1  0.53750000  0.65360000  0.04110000  1
  H  H84  1  0.54120000  0.25040000  0.54490000  1
  H  H85  1  0.54990000  0.18830000  0.73090000  1
  H  H86  1  0.55180000  0.05410000  0.05930000  1
  H  H87  1  0.55260000  0.75000000  0.95750000  1
  H  H88  1  0.55940000  0.75440000  0.03560000  1
  H  H89  1  0.57210000  0.11680000  0.98900000  1
  H  H90  1  0.57350000  0.41400000  0.83070000  1
  H  H91  1  0.57510000  0.60400000  0.47600000  1
  H  H92  1  0.57700000  0.25440000  0.65600000  1
  H  H93  1  0.57750000  0.16850000  0.91200000  1
  H  H94  1  0.58050000  0.08940000  0.29820000  1
  H  H95  1  0.58290000  0.57360000  0.55110000  1
  H  H96  1  0.58320000  0.16860000  0.58170000  1
  H  H97  1  0.58510000  0.81140000  0.88280000  1
  H  H98  1  0.58640000  0.10700000  0.19110000  1
  H  H99  1  0.60500000  0.98120000  0.09880000  1
  H  H100  1  0.60540000  0.70220000  0.23370000  1
  H  H101  1  0.60550000  0.64690000  0.39890000  1
  H  H102  1  0.60830000  0.68940000  0.07900000  1
  H  H103  1  0.61390000  0.49890000  0.59290000  1
  H  H104  1  0.62680000  0.78130000  0.16160000  1
  H  H105  1  0.63000000  0.92610000  0.31410000  1
  H  H106  1  0.63560000  0.50540000  0.23210000  1
  H  H107  1  0.63800000  0.40600000  0.69450000  1
  H  H108  1  0.64100000  0.56800000  0.81450000  1
  H  H109  1  0.65500000  0.59400000  0.69120000  1
  H  H110  1  0.66470000  0.99470000  0.73480000  1
  H  H111  1  0.68090000  0.06240000  0.08040000  1
  H  H112  1  0.68230000  0.93310000  0.19780000  1
  H  H113  1  0.68360000  0.56700000  0.15890000  1
  H  H114  1  0.68780000  0.05760000  0.66010000  1
  H  H115  1  0.71610000  0.56120000  0.57220000  1
  H  H116  1  0.81830000  0.08420000  0.19380000  1
  H  H117  1  0.82230000  0.97770000  0.89030000  1
  H  H118  1  0.82340000  0.92060000  0.96620000  1
  H  H119  1  0.82490000  0.42140000  0.81880000  1
  H  H120  1  0.82580000  0.03650000  0.31710000  1
  H  H121  1  0.84260000  0.40770000  0.46990000  1
  H  H122  1  0.85210000  0.45360000  0.69370000  1
  H  H123  1  0.86780000  0.63180000  0.69200000  1
  H  H124  1  0.86860000  0.45870000  0.39350000  1
  H  H125  1  0.87640000  0.87620000  0.33240000  1
  H  H126  1  0.88070000  0.18800000  0.46320000  1
  H  H127  1  0.88200000  0.30560000  0.22480000  1
  H  H128  1  0.89070000  0.25540000  0.38860000  1
  H  H129  1  0.89380000  0.56840000  0.80270000  1
  H  H130  1  0.90290000  0.19150000  0.75400000  1
  H  H131  1  0.90830000  0.91080000  0.19300000  1
  H  H132  1  0.90910000  0.30490000  0.55690000  1
  H  H133  1  0.92090000  0.41250000  0.06510000  1
  H  H134  1  0.92320000  0.71100000  0.97110000  1
  H  H135  1  0.93280000  0.36030000  0.15060000  1
  H  H136  1  0.94180000  0.25620000  0.68030000  1
  H  H137  1  0.94500000  0.77880000  0.89680000  1
  H  H138  1  0.95020000  0.83460000  0.05520000  1
  H  H139  1  0.95370000  0.23920000  0.60070000  1
  H  H140  1  0.95640000  0.00560000  0.41560000  1
  H  H141  1  0.95840000  0.83000000  0.72540000  1
  H  H142  1  0.95870000  0.50520000  0.04120000  1
  H  H143  1  0.95980000  0.93250000  0.56390000  1
  H  H144  1  0.96300000  0.34140000  0.59830000  1
  H  H145  1  0.96540000  0.64570000  0.24150000  1
  H  H146  1  0.96960000  0.03020000  0.53940000  1
  H  H147  1  0.97720000  0.54110000  0.91330000  1
  H  H148  1  0.99090000  0.88880000  0.64980000  1
  H  H149  1  0.99490000  0.14710000  0.89890000  1
  H  H150  1  0.99820000  0.72070000  0.16940000  1
  H  H151  1  0.99990000  0.24490000  0.90800000  1
  C  C152  1  0.03230000  0.00770000  0.43133000  1
  C  C153  1  0.03730000  0.55510000  0.68861000  1
  C  C154  1  0.04210000  0.18620000  0.91242000  1
  C  C155  1  0.04260000  0.00170000  0.18548000  1
  C  C156  1  0.05380000  0.53150000  0.92972000  1
  C  C157  1  0.07650000  0.08820000  0.33355000  1
  C  C158  1  0.08260000  0.28170000  0.81818000  1
  C  C159  1  0.08450000  0.02870000  0.80904000  1
  C  C160  1  0.08560000  0.70280000  0.41014000  1
  C  C161  1  0.09660000  0.12330000  0.28782000  1
  C  C162  1  0.09990000  0.42640000  0.30882000  1
  C  C163  1  0.10340000  0.32670000  0.77488000  1
  C  C164  1  0.12740000  0.60800000  0.83328000  1
  C  C165  1  0.13510000  0.22800000  0.09088000  1
  C  C166  1  0.13890000  0.75670000  0.31031000  1
  C  C167  1  0.14060000  0.97710000  0.40309000  1
  C  C168  1  0.14740000  0.26850000  0.04601000  1
  C  C169  1  0.15250000  0.48700000  0.90219000  1
  C  C170  1  0.15670000  0.01900000  0.35455000  1
  C  C171  1  0.15910000  0.64100000  0.78866000  1
  C  C172  1  0.16320000  0.79590000  0.26614000  1
  C  C173  1  0.16860000  0.18830000  0.89007000  1
  C  C174  1  0.18010000  0.48750000  0.30764000  1
  C  C175  1  0.18420000  0.52810000  0.85444000  1
  C  C176  1  0.18470000  0.23920000  0.84347000  1
  C  C177  1  0.18640000  0.74400000  0.59597000  1
  C  C178  1  0.18700000  0.40510000  0.19446000  1
  C  C179  1  0.18840000  0.97570000  0.80688000  1
  C  C180  1  0.19160000  0.78420000  0.55093000  1
  C  C181  1  0.19210000  0.51160000  0.58963000  1
  C  C182  1  0.20300000  0.30630000  0.19910000  1
  C  C183  1  0.20550000  0.13340000  0.67288000  1
  C  C184  1  0.20650000  0.54240000  0.54349000  1
  C  C185  1  0.21440000  0.69310000  0.38896000  1
  C  C186  1  0.22880000  0.02860000  0.04372000  1
  C  C187  1  0.22940000  0.99340000  0.08950000  1
  C  C188  1  0.23680000  0.73630000  0.34121000  1
  C  C189  1  0.23710000  0.22640000  0.67032000  1
  C  C190  1  0.25520000  0.98860000  0.32751000  1
  C  C191  1  0.25680000  0.97300000  0.68702000  1
  C  C192  1  0.25740000  0.55400000  0.17994000  1
  C  C193  1  0.26550000  0.27880000  0.02624000  1
  C  C194  1  0.26840000  0.02680000  0.28254000  1
  C  C195  1  0.27450000  0.48660000  0.82856000  1
  C  C196  1  0.27730000  0.45780000  0.18673000  1
  C  C197  1  0.28460000  0.32280000  0.97832000  1
  C  C198  1  0.28730000  0.06390000  0.68221000  1
  C  C199  1  0.29300000  0.49970000  0.51708000  1
  C  C200  1  0.30080000  0.81070000  0.70023000  1
  C  C201  1  0.30260000  0.52400000  0.78443000  1
  C  C202  1  0.30280000  0.24600000  0.82284000  1
  C  C203  1  0.30410000  0.78360000  0.52647000  1
  C  C204  1  0.30450000  0.98980000  0.01242000  1
  C  C205  1  0.30870000  0.02910000  0.96310000  1
  C  C206  1  0.31070000  0.53190000  0.46731000  1
  C  C207  1  0.31180000  0.00600000  0.80549000  1
  C  C208  1  0.31280000  0.82730000  0.47765000  1
  C  C209  1  0.31480000  0.29330000  0.77937000  1
  C  C210  1  0.31480000  0.46850000  0.30837000  1
  C  C211  1  0.31790000  0.70700000  0.16803000  1
  C  C212  1  0.33680000  0.90240000  0.69681000  1
  C  C213  1  0.34410000  0.60920000  0.17226000  1
  C  C214  1  0.34480000  0.40160000  0.58655000  1
  C  C215  1  0.34590000  0.20810000  0.09906000  1
  C  C216  1  0.35320000  0.46900000  0.43490000  1
  C  C217  1  0.35500000  0.75790000  0.32472000  1
  C  C218  1  0.36410000  0.42730000  0.54006000  1
  C  C219  1  0.36620000  0.24610000  0.05419000  1
  C  C220  1  0.37060000  0.79775000  0.27955000  1
  C  C221  1  0.37170000  0.88230000  0.07702000  1
  C  C222  1  0.37360000  0.97830000  0.92798000  1
  C  C223  1  0.37610000  0.91370000  0.03045000  1
  C  C224  1  0.39260000  0.53130000  0.30754000  1
  C  C225  1  0.39560000  0.70310000  0.59548000  1
  C  C226  1  0.40560000  0.30470000  0.95345000  1
  C  C227  1  0.40820000  0.74100000  0.54997000  1
  C  C228  1  0.41730000  0.95340000  0.80861000  1
  C  C229  1  0.43140000  0.81180000  0.45039000  1
  C  C230  1  0.45870000  0.01280000  0.18828000  1
  C  C231  1  0.46890000  0.48620000  0.68973000  1
  C  C232  1  0.53110000  0.51380000  0.31027000  1
  C  C233  1  0.54130000  0.98720000  0.81172000  1
  C  C234  1  0.56860000  0.18820000  0.54961000  1
  C  C235  1  0.58270000  0.04660000  0.19139000  1
  C  C236  1  0.59180000  0.25900000  0.45003000  1
  C  C237  1  0.59440000  0.69530000  0.04655000  1
  C  C238  1  0.60440000  0.29690000  0.40452000  1
  C  C239  1  0.60740000  0.46870000  0.69246000  1
  C  C240  1  0.62390000  0.08630000  0.96955000  1
  C  C241  1  0.62640000  0.02170000  0.07202000  1
  C  C242  1  0.62830000  0.11770000  0.92298000  1
  C  C243  1  0.62940000  0.20225000  0.72045000  1
  C  C244  1  0.63380000  0.75390000  0.94581000  1
  C  C245  1  0.63590000  0.57270000  0.45994000  1
  C  C246  1  0.64500000  0.24210000  0.67528000  1
  C  C247  1  0.64680000  0.53100000  0.56510000  1
  C  C248  1  0.65410000  0.79190000  0.90094000  1
  C  C249  1  0.65520000  0.59840000  0.41345000  1
  C  C250  1  0.65590000  0.39080000  0.82774000  1
  C  C251  1  0.66320000  0.09760000  0.30319000  1
  C  C252  1  0.68210000  0.29300000  0.83197000  1
  C  C253  1  0.68520000  0.53150000  0.69163000  1
  C  C254  1  0.68520000  0.70670000  0.22063000  1
  C  C255  1  0.68720000  0.17270000  0.52235000  1
  C  C256  1  0.68820000  0.99400000  0.19451000  1
  C  C257  1  0.68930000  0.46810000  0.53269000  1
  C  C258  1  0.69130000  0.97090000  0.03690000  1
  C  C259  1  0.69550000  0.01020000  0.98758000  1
  C  C260  1  0.69590000  0.21640000  0.47353000  1
  C  C261  1  0.69720000  0.75400000  0.17716000  1
  C  C262  1  0.69740000  0.47600000  0.21557000  1
  C  C263  1  0.69920000  0.18930000  0.29977000  1
  C  C264  1  0.70700000  0.50030000  0.48292000  1
  C  C265  1  0.71270000  0.93610000  0.31779000  1
  C  C266  1  0.71540000  0.67720000  0.02168000  1
  C  C267  1  0.72270000  0.54220000  0.81327000  1
  C  C268  1  0.72550000  0.51340000  0.17144000  1
  C  C269  1  0.73160000  0.97320000  0.71746000  1
  C  C270  1  0.73450000  0.72120000  0.97376000  1
  C  C271  1  0.74260000  0.44600000  0.82006000  1
  C  C272  1  0.74320000  0.02700000  0.31298000  1
  C  C273  1  0.74480000  0.01140000  0.67249000  1
  C  C274  1  0.76290000  0.77360000  0.32968000  1
  C  C275  1  0.76320000  0.26370000  0.65879000  1
  C  C276  1  0.77060000  0.00660000  0.91050000  1
  C  C277  1  0.77120000  0.97140000  0.95628000  1
  C  C278  1  0.78560000  0.30690000  0.61104000  1
  C  C279  1  0.79350000  0.45760000  0.45651000  1
  C  C280  1  0.79450000  0.86660000  0.32712000  1
  C  C281  1  0.79700000  0.69370000  0.80090000  1
  C  C282  1  0.80790000  0.48840000  0.41037000  1
  C  C283  1  0.80840000  0.21580000  0.44907000  1
  C  C284  1  0.81160000  0.02430000  0.19312000  1
  C  C285  1  0.81300000  0.59490000  0.80554000  1
  C  C286  1  0.81360000  0.25600000  0.40403000  1
  C  C287  1  0.81530000  0.76080000  0.15653000  1
  C  C288  1  0.81580000  0.47190000  0.14556000  1
  C  C289  1  0.81990000  0.51250000  0.69236000  1
  C  C290  1  0.83140000  0.81170000  0.10993000  1
  C  C291  1  0.83680000  0.20410000  0.73386000  1
  C  C292  1  0.84090000  0.35900000  0.21134000  1
  C  C293  1  0.84330000  0.98100000  0.64545000  1
  C  C294  1  0.84750000  0.51300000  0.09781000  1
  C  C295  1  0.85260000  0.73150000  0.95399000  1
  C  C296  1  0.85940000  0.02290000  0.59691000  1
  C  C297  1  0.86110000  0.24330000  0.68969000  1
  C  C298  1  0.86490000  0.77200000  0.90912000  1
  C  C299  1  0.87260000  0.39200000  0.16672000  1
  C  C300  1  0.89660000  0.67330000  0.22512000  1
  C  C301  1  0.90010000  0.57360000  0.69118000  1
  C  C302  1  0.90340000  0.87670000  0.71218000  1
  C  C303  1  0.91440000  0.29720000  0.58986000  1
  C  C304  1  0.91550000  0.97130000  0.19096000  1
  C  C305  1  0.91740000  0.71830000  0.18182000  1
  C  C306  1  0.92350000  0.91180000  0.66645000  1
  C  C307  1  0.94620000  0.46850000  0.07028000  1
  C  C308  1  0.95740000  0.99830000  0.81452000  1
  C  C309  1  0.95790000  0.81380000  0.08758000  1
  C  C310  1  0.96270000  0.44490000  0.31139000  1
  C  C311  1  0.96770000  0.99230000  0.56867000  1
  N  N312  1  0.19010000  0.09368000  0.26199000  1
  N  N313  1  0.19210000  0.37550000  0.96110000  1
  N  N314  1  0.21480000  0.87680000  0.46307000  1
  N  N315  1  0.21690000  0.33340000  0.75476000  1
  N  N316  1  0.21830000  0.41520000  0.91632000  1
  N  N317  1  0.22810000  0.91690000  0.41711000  1
  N  N318  1  0.23220000  0.19785000  0.11788000  1
  N  N319  1  0.24560000  0.60058000  0.76373000  1
  N  N320  1  0.25630000  0.10749000  0.95382000  1
  N  N321  1  0.26000000  0.44175000  0.61158000  1
  N  N322  1  0.26770000  0.14849000  0.90886000  1
  N  N323  1  0.27610000  0.81712000  0.25016000  1
  N  N324  1  0.28670000  0.61496000  0.45531000  1
  N  N325  1  0.28720000  0.70377000  0.61896000  1
  N  N326  1  0.29870000  0.92099000  0.10685000  1
  N  N327  1  0.30850000  0.64938000  0.40952000  1
  N  N328  1  0.69150000  0.35062000  0.59048000  1
  N  N329  1  0.70130000  0.07901000  0.89315000  1
  N  N330  1  0.71280000  0.29623000  0.38104000  1
  N  N331  1  0.71330000  0.38504000  0.54469000  1
  N  N332  1  0.72390000  0.18288000  0.74984000  1
  N  N333  1  0.73230000  0.85151000  0.09114000  1
  N  N334  1  0.74000000  0.55825000  0.38842000  1
  N  N335  1  0.74370000  0.89251000  0.04618000  1
  N  N336  1  0.75440000  0.39942000  0.23627000  1
  N  N337  1  0.76780000  0.80215000  0.88212000  1
  N  N338  1  0.77190000  0.08310000  0.58289000  1
  N  N339  1  0.78170000  0.58480000  0.08368000  1
  N  N340  1  0.78310000  0.66666667  0.24524000  1
  N  N341  1  0.78520000  0.12320000  0.53693000  1
  N  N342  1  0.80790000  0.62450000  0.03890000  1
  N  N343  1  0.80990000  0.90632000  0.73801000  1
  O  O344  1  0.05136000  0.08478000  0.17797000  1
  O  O345  1  0.08140000  0.47568000  0.69245000  1
  O  O346  1  0.09825000  0.62212000  0.68110000  1
  O  O347  1  0.10720000  0.26647000  0.19679000  1
  O  O348  1  0.13140000  0.94335000  0.18750000  1
  O  O349  1  0.14800000  0.28671000  0.66787000  1
  O  O350  1  0.18990000  0.79567000  0.69770000  1
  O  O351  1  0.20900000  0.74303000  0.16594000  1
  O  O352  1  0.30990000  0.26608000  0.20332000  1
  O  O353  1  0.34810000  0.24194000  0.67309000  1
  O  O354  1  0.36720000  0.06957000  0.18156000  1
  O  O355  1  0.38790000  0.74778000  0.70463000  1
  O  O356  1  0.41003000  0.41831000  0.69598000  1
  O  O357  1  0.41080000  0.75120000  0.16935000  1
  O  O358  1  0.42351000  0.56508000  0.68172000  1
  O  O359  1  0.45327000  0.93063000  0.19170000  1
  O  O360  1  0.54673000  0.06937000  0.80830000  1
  O  O361  1  0.57649000  0.43492000  0.31828000  1
  O  O362  1  0.58920000  0.24880000  0.83065000  1
  O  O363  1  0.58997000  0.58169000  0.30402000  1
  O  O364  1  0.61210000  0.25222000  0.29537000  1
  O  O365  1  0.63280000  0.93043000  0.81844000  1
  O  O366  1  0.65190000  0.75806000  0.32691000  1
  O  O367  1  0.69010000  0.73392000  0.79668000  1
  O  O368  1  0.79100000  0.25697000  0.83406000  1
  O  O369  1  0.81010000  0.20433000  0.30230000  1
  O  O370  1  0.85200000  0.71329000  0.33213000  1
  O  O371  1  0.86860000  0.05665000  0.81250000  1
  O  O372  1  0.89280000  0.73353000  0.80321000  1
  O  O373  1  0.90175000  0.37788000  0.31890000  1
  O  O374  1  0.91860000  0.52432000  0.30755000  1
  O  O375  1  0.94864000  0.91522000  0.82203000  1
