# generated using pymatgen
data_Zn2H22C27(NO)8
_symmetry_space_group_name_H-M   'P 1'
_cell_length_a   8.98500000
_cell_length_b   19.11400000
_cell_length_c   19.99475024
_cell_angle_alpha   92.37559403
_cell_angle_beta   102.98462433
_cell_angle_gamma   90.00000000
_symmetry_Int_Tables_number   1
_chemical_formula_structural   Zn2H22C27(NO)8
_chemical_formula_sum   'Zn8 H88 C108 N32 O32'
_cell_volume   3343.05248403
_cell_formula_units_Z   4
loop_
 _symmetry_equiv_pos_site_id
 _symmetry_equiv_pos_as_xyz
  1  'x, y, z'
loop_
 _atom_site_type_symbol
 _atom_site_label
 _atom_site_symmetry_multiplicity
 _atom_site_fract_x
 _atom_site_fract_y
 _atom_site_fract_z
 _atom_site_occupancy
  Zn  Zn0  1  0.10312000  0.91122000  0.05814000  1
  Zn  Zn1  1  0.59588000  0.09897000  0.54700000  1
  Zn  Zn2  1  0.04498000  0.58878000  0.94186000  1
  Zn  Zn3  1  0.95112000  0.59897000  0.54700000  1
  Zn  Zn4  1  0.04888000  0.40103000  0.45300000  1
  Zn  Zn5  1  0.95502000  0.41122000  0.05814000  1
  Zn  Zn6  1  0.40412000  0.90103000  0.45300000  1
  Zn  Zn7  1  0.89688000  0.08878000  0.94186000  1
  H  H8  1  0.45920000  0.61030000  0.45920000  1
  H  H9  1  0.54080000  0.38970000  0.54080000  1
  H  H10  1  0.89220000  0.73340000  0.88820000  1
  H  H11  1  0.81070000  0.81940000  0.80520000  1
  H  H12  1  0.90980000  0.42360000  0.90020000  1
  H  H13  1  0.37290000  0.02970000  0.35940000  1
  H  H14  1  0.67220000  0.40180000  0.65660000  1
  H  H15  1  0.26950000  0.09020000  0.25000000  1
  H  H16  1  0.28610000  0.45810000  0.25640000  1
  H  H17  1  0.78700000  0.78380000  0.73200000  1
  H  H18  1  0.86510000  0.94730000  0.80240000  1
  H  H19  1  0.70810000  0.61450000  0.64500000  1
  H  H20  1  0.35340000  0.79330000  0.27080000  1
  H  H21  1  0.99040000  0.92360000  0.90020000  1
  H  H22  1  0.99600000  0.23340000  0.88820000  1
  H  H23  1  0.35350000  0.57220000  0.22240000  1
  H  H24  1  0.93730000  0.44730000  0.80240000  1
  H  H25  1  0.35910000  0.88650000  0.19160000  1
  H  H26  1  0.40720000  0.65020000  0.23680000  1
  H  H27  1  0.81840000  0.36390000  0.64440000  1
  H  H28  1  0.82600000  0.86390000  0.64440000  1
  H  H29  1  0.99450000  0.31940000  0.80520000  1
  H  H30  1  0.79170000  0.23960000  0.60060000  1
  H  H31  1  0.80890000  0.73960000  0.60060000  1
  H  H32  1  0.94500000  0.28380000  0.73200000  1
  H  H33  1  0.57430000  0.68360000  0.34260000  1
  H  H34  1  0.63880000  0.79810000  0.40200000  1
  H  H35  1  0.01950000  0.40980000  0.75000000  1
  H  H36  1  0.02970000  0.04190000  0.74360000  1
  H  H37  1  0.93690000  0.11450000  0.64500000  1
  H  H38  1  0.98440000  0.90180000  0.65660000  1
  H  H39  1  0.46550000  0.69260000  0.12880000  1
  H  H40  1  0.35220000  0.68160000  0.00620000  1
  H  H41  1  0.34600000  0.81840000  0.99380000  1
  H  H42  1  0.08260000  0.70670000  0.72920000  1
  H  H43  1  0.13110000  0.92780000  0.77760000  1
  H  H44  1  0.16750000  0.61350000  0.80840000  1
  H  H45  1  0.76320000  0.29810000  0.40200000  1
  H  H46  1  0.01350000  0.47030000  0.64060000  1
  H  H47  1  0.17040000  0.84980000  0.76320000  1
  H  H48  1  0.76830000  0.18360000  0.34260000  1
  H  H49  1  0.54650000  0.49030000  0.11760000  1
  H  H50  1  0.57110000  0.99030000  0.11760000  1
  H  H51  1  0.00000000  0.88970000  0.54080000  1
  H  H52  1  0.33670000  0.80740000  0.87120000  1
  H  H53  1  0.66330000  0.19260000  0.12880000  1
  H  H54  1  0.00000000  0.11030000  0.45920000  1
  H  H55  1  0.42890000  0.00970000  0.88240000  1
  H  H56  1  0.45350000  0.50970000  0.88240000  1
  H  H57  1  0.23170000  0.81640000  0.65740000  1
  H  H58  1  0.82960000  0.15020000  0.23680000  1
  H  H59  1  0.98650000  0.52970000  0.35940000  1
  H  H60  1  0.23680000  0.70190000  0.59800000  1
  H  H61  1  0.83250000  0.38650000  0.19160000  1
  H  H62  1  0.86890000  0.07220000  0.22240000  1
  H  H63  1  0.91740000  0.29330000  0.27080000  1
  H  H64  1  0.65400000  0.18160000  0.00620000  1
  H  H65  1  0.64780000  0.31840000  0.99380000  1
  H  H66  1  0.53450000  0.30740000  0.87120000  1
  H  H67  1  0.01560000  0.09820000  0.34340000  1
  H  H68  1  0.06310000  0.88550000  0.35500000  1
  H  H69  1  0.97030000  0.95810000  0.25640000  1
  H  H70  1  0.98050000  0.59020000  0.25000000  1
  H  H71  1  0.36120000  0.20190000  0.59800000  1
  H  H72  1  0.42570000  0.31640000  0.65740000  1
  H  H73  1  0.05500000  0.71620000  0.26800000  1
  H  H74  1  0.19110000  0.26040000  0.39940000  1
  H  H75  1  0.20830000  0.76040000  0.39940000  1
  H  H76  1  0.00550000  0.68060000  0.19480000  1
  H  H77  1  0.17400000  0.13610000  0.35560000  1
  H  H78  1  0.18160000  0.63610000  0.35560000  1
  H  H79  1  0.59280000  0.34980000  0.76320000  1
  H  H80  1  0.64090000  0.11350000  0.80840000  1
  H  H81  1  0.06270000  0.55270000  0.19760000  1
  H  H82  1  0.64650000  0.42780000  0.77760000  1
  H  H83  1  0.00400000  0.76660000  0.11180000  1
  H  H84  1  0.00960000  0.07640000  0.09980000  1
  H  H85  1  0.64660000  0.20670000  0.72920000  1
  H  H86  1  0.29190000  0.38550000  0.35500000  1
  H  H87  1  0.13490000  0.05270000  0.19760000  1
  H  H88  1  0.21300000  0.21620000  0.26800000  1
  H  H89  1  0.71390000  0.54190000  0.74360000  1
  H  H90  1  0.73050000  0.90980000  0.75000000  1
  H  H91  1  0.32780000  0.59820000  0.34340000  1
  H  H92  1  0.62710000  0.97030000  0.64060000  1
  H  H93  1  0.09020000  0.57640000  0.09980000  1
  H  H94  1  0.18930000  0.18060000  0.19480000  1
  H  H95  1  0.10780000  0.26660000  0.11180000  1
  C  C96  1  0.47614000  0.56560000  0.47588000  1
  C  C97  1  0.90825000  0.21510000  0.85870000  1
  C  C98  1  0.28443000  0.79920000  0.22926000  1
  C  C99  1  0.80610000  0.36600000  0.74640000  1
  C  C100  1  0.71565000  0.99740000  0.65390000  1
  C  C101  1  0.77293000  0.53610000  0.71106000  1
  C  C102  1  0.73580000  0.36110000  0.66820000  1
  C  C103  1  0.16902000  0.60400000  0.09164000  1
  C  C104  1  0.83342000  0.92810000  0.75564000  1
  C  C105  1  0.69349000  0.24390000  0.60798000  1
  C  C106  1  0.95045000  0.71510000  0.85870000  1
  C  C107  1  0.86395000  0.80230000  0.77070000  1
  C  C108  1  0.28676000  0.85060000  0.18552000  1
  C  C109  1  0.32085000  0.62030000  0.21550000  1
  C  C110  1  0.77115000  0.57620000  0.65670000  1
  C  C111  1  0.90675000  0.30230000  0.77070000  1
  C  C112  1  0.60502000  0.53110000  0.46704000  1
  C  C113  1  0.63029000  0.46260000  0.49178000  1
  C  C114  1  0.50904000  0.71300000  0.36048000  1
  C  C115  1  0.54358000  0.77610000  0.39356000  1
  C  C116  1  0.92222000  0.42810000  0.75564000  1
  C  C117  1  0.07738000  0.89600000  0.90836000  1
  C  C118  1  0.94030000  0.86600000  0.74640000  1
  C  C119  1  0.26263000  0.44910000  0.06526000  1
  C  C120  1  0.29873000  0.04080000  0.09006000  1
  C  C121  1  0.93813000  0.03610000  0.71106000  1
  C  C122  1  0.71673000  0.92290000  0.48886000  1
  C  C123  1  0.88555000  0.07620000  0.65670000  1
  C  C124  1  0.19737000  0.05090000  0.93474000  1
  C  C125  1  0.93240000  0.86110000  0.66820000  1
  C  C126  1  0.37657000  0.66810000  0.10814000  1
  C  C127  1  0.31348000  0.66180000  0.04056000  1
  C  C128  1  0.70494000  0.56600000  0.42608000  1
  C  C129  1  0.77213000  0.42290000  0.48886000  1
  C  C130  1  0.93825000  0.49740000  0.65390000  1
  C  C131  1  0.05517000  0.70080000  0.77074000  1
  C  C132  1  0.10124000  0.64940000  0.81448000  1
  C  C133  1  0.72114000  0.06600000  0.42608000  1
  C  C134  1  0.20867000  0.45920000  0.90994000  1
  C  C135  1  0.91449000  0.74390000  0.60798000  1
  C  C136  1  0.27292000  0.83820000  0.95944000  1
  C  C137  1  0.10535000  0.87970000  0.78450000  1
  C  C138  1  0.39680000  0.01920000  0.04140000  1
  C  C139  1  0.38573000  0.47380000  0.02986000  1
  C  C140  1  0.86149000  0.96260000  0.49178000  1
  C  C141  1  0.26843000  0.83190000  0.89186000  1
  C  C142  1  0.35587000  0.02620000  0.97014000  1
  C  C143  1  0.86202000  0.03110000  0.46704000  1
  C  C144  1  0.35540000  0.48080000  0.95860000  1
  C  C145  1  0.84998000  0.27610000  0.39356000  1
  C  C146  1  0.52838000  0.49390000  0.07016000  1
  C  C147  1  0.54178000  0.99390000  0.07016000  1
  C  C148  1  0.00026000  0.93440000  0.52412000  1
  C  C149  1  0.85144000  0.21300000  0.36048000  1
  C  C150  1  0.14856000  0.78700000  0.63952000  1
  C  C151  1  0.99974000  0.06560000  0.47588000  1
  C  C152  1  0.45822000  0.00610000  0.92984000  1
  C  C153  1  0.47162000  0.50610000  0.92984000  1
  C  C154  1  0.15002000  0.72390000  0.60644000  1
  C  C155  1  0.64460000  0.51920000  0.04140000  1
  C  C156  1  0.13798000  0.96890000  0.53296000  1
  C  C157  1  0.64413000  0.97380000  0.02986000  1
  C  C158  1  0.73157000  0.16810000  0.10814000  1
  C  C159  1  0.13851000  0.03740000  0.50822000  1
  C  C160  1  0.61427000  0.52620000  0.97014000  1
  C  C161  1  0.60320000  0.98080000  0.95860000  1
  C  C162  1  0.89465000  0.12030000  0.21550000  1
  C  C163  1  0.72708000  0.16180000  0.04056000  1
  C  C164  1  0.08551000  0.25610000  0.39202000  1
  C  C165  1  0.79133000  0.54080000  0.09006000  1
  C  C166  1  0.27886000  0.93400000  0.57392000  1
  C  C167  1  0.89876000  0.35060000  0.18552000  1
  C  C168  1  0.94483000  0.29920000  0.22926000  1
  C  C169  1  0.06175000  0.50260000  0.34610000  1
  C  C170  1  0.22787000  0.57710000  0.51114000  1
  C  C171  1  0.29506000  0.43400000  0.57392000  1
  C  C172  1  0.68652000  0.33820000  0.95944000  1
  C  C173  1  0.62343000  0.33190000  0.89186000  1
  C  C174  1  0.06760000  0.13890000  0.33180000  1
  C  C175  1  0.80263000  0.94910000  0.06526000  1
  C  C176  1  0.11445000  0.92380000  0.34330000  1
  C  C177  1  0.28327000  0.07710000  0.51114000  1
  C  C178  1  0.06187000  0.96390000  0.28894000  1
  C  C179  1  0.70127000  0.95920000  0.90994000  1
  C  C180  1  0.73737000  0.55090000  0.93474000  1
  C  C181  1  0.05970000  0.13400000  0.25360000  1
  C  C182  1  0.92262000  0.10400000  0.09164000  1
  C  C183  1  0.07778000  0.57190000  0.24436000  1
  C  C184  1  0.45642000  0.22390000  0.60644000  1
  C  C185  1  0.49096000  0.28700000  0.63952000  1
  C  C186  1  0.36971000  0.53740000  0.50822000  1
  C  C187  1  0.39498000  0.46890000  0.53296000  1
  C  C188  1  0.09325000  0.69770000  0.22930000  1
  C  C189  1  0.22885000  0.42380000  0.34330000  1
  C  C190  1  0.67915000  0.37970000  0.78450000  1
  C  C191  1  0.71324000  0.14940000  0.81448000  1
  C  C192  1  0.13605000  0.19770000  0.22930000  1
  C  C193  1  0.04955000  0.28490000  0.14130000  1
  C  C194  1  0.30651000  0.75610000  0.39202000  1
  C  C195  1  0.16658000  0.07190000  0.24436000  1
  C  C196  1  0.83098000  0.39600000  0.90836000  1
  C  C197  1  0.26420000  0.63890000  0.33180000  1
  C  C198  1  0.22707000  0.46390000  0.28894000  1
  C  C199  1  0.28435000  0.00260000  0.34610000  1
  C  C200  1  0.19390000  0.63400000  0.25360000  1
  C  C201  1  0.71557000  0.20080000  0.77074000  1
  C  C202  1  0.09175000  0.78490000  0.14130000  1
  C  C203  1  0.52386000  0.43440000  0.52412000  1
  N  N204  1  0.64395000  0.29860000  0.64110000  1
  N  N205  1  0.41717000  0.80280000  0.41274000  1
  N  N206  1  0.16396000  0.84150000  0.13012000  1
  N  N207  1  0.83963000  0.24330000  0.79946000  1
  N  N208  1  0.82956000  0.98530000  0.70872000  1
  N  N209  1  0.74531000  0.05190000  0.62182000  1
  N  N210  1  0.28487000  0.63130000  0.14074000  1
  N  N211  1  0.18301000  0.62170000  0.03022000  1
  N  N212  1  0.95983000  0.74330000  0.79946000  1
  N  N213  1  0.03384000  0.65850000  0.86988000  1
  N  N214  1  0.87916000  0.48530000  0.70872000  1
  N  N215  1  0.15279000  0.87830000  0.96978000  1
  N  N216  1  0.87651000  0.55190000  0.62182000  1
  N  N217  1  0.14413000  0.86870000  0.85926000  1
  N  N218  1  0.99715000  0.79860000  0.64110000  1
  N  N219  1  0.00443000  0.69720000  0.58726000  1
  N  N220  1  0.99557000  0.30280000  0.41274000  1
  N  N221  1  0.00285000  0.20140000  0.35890000  1
  N  N222  1  0.85587000  0.13130000  0.14074000  1
  N  N223  1  0.12349000  0.44810000  0.37818000  1
  N  N224  1  0.84721000  0.12170000  0.03022000  1
  N  N225  1  0.12084000  0.51470000  0.29128000  1
  N  N226  1  0.96616000  0.34150000  0.13012000  1
  N  N227  1  0.04017000  0.25670000  0.20054000  1
  N  N228  1  0.81699000  0.37830000  0.96978000  1
  N  N229  1  0.71513000  0.36870000  0.85926000  1
  N  N230  1  0.25469000  0.94810000  0.37818000  1
  N  N231  1  0.17044000  0.01470000  0.29128000  1
  N  N232  1  0.16037000  0.75670000  0.20054000  1
  N  N233  1  0.83604000  0.15850000  0.86988000  1
  N  N234  1  0.58283000  0.19720000  0.58726000  1
  N  N235  1  0.35605000  0.70140000  0.35890000  1
  O  O236  1  0.21023000  0.99446000  0.10506000  1
  O  O237  1  0.13461000  0.43510000  0.02542000  1
  O  O238  1  0.10919000  0.06490000  0.97458000  1
  O  O239  1  0.59361000  0.95140000  0.45702000  1
  O  O240  1  0.29168000  0.44530000  0.12796000  1
  O  O241  1  0.64562000  0.10580000  0.45844000  1
  O  O242  1  0.31624000  0.09960000  0.11748000  1
  O  O243  1  0.72027000  0.86690000  0.51654000  1
  O  O244  1  0.10517000  0.50554000  0.89494000  1
  O  O245  1  0.79627000  0.36690000  0.51654000  1
  O  O246  1  0.16372000  0.05470000  0.87204000  1
  O  O247  1  0.66672000  0.55940000  0.36324000  1
  O  O248  1  0.19876000  0.40040000  0.88252000  1
  O  O249  1  0.69652000  0.05940000  0.36324000  1
  O  O250  1  0.81282000  0.60580000  0.45844000  1
  O  O251  1  0.86341000  0.45140000  0.45702000  1
  O  O252  1  0.13659000  0.54860000  0.54298000  1
  O  O253  1  0.18718000  0.39420000  0.54156000  1
  O  O254  1  0.30342667  0.94060000  0.63676000  1
  O  O255  1  0.80124000  0.59960000  0.11748000  1
  O  O256  1  0.33328000  0.44060000  0.63676000  1
  O  O257  1  0.83628000  0.94530000  0.12796000  1
  O  O258  1  0.20373000  0.63310000  0.48346000  1
  O  O259  1  0.89483000  0.49446000  0.10506000  1
  O  O260  1  0.27973000  0.13310000  0.48346000  1
  O  O261  1  0.68376000  0.90040000  0.88252000  1
  O  O262  1  0.35438000  0.89420000  0.54156000  1
  O  O263  1  0.70832000  0.55470000  0.87204000  1
  O  O264  1  0.40639000  0.04860000  0.54298000  1
  O  O265  1  0.89081000  0.93510000  0.02542000  1
  O  O266  1  0.86539000  0.56490000  0.97458000  1
  O  O267  1  0.78977000  0.00554000  0.89494000  1
