# generated using pymatgen
data_Zn3H24C30(NO6)2
_symmetry_space_group_name_H-M   'P 1'
_cell_length_a   9.77500000
_cell_length_b   11.46900000
_cell_length_c   18.95800000
_cell_angle_alpha   90.00000000
_cell_angle_beta   90.00000000
_cell_angle_gamma   111.35400000
_symmetry_Int_Tables_number   1
_chemical_formula_structural   Zn3H24C30(NO6)2
_chemical_formula_sum   'Zn6 H48 C60 N4 O24'
_cell_volume   1979.46140046
_cell_formula_units_Z   2
loop_
 _symmetry_equiv_pos_site_id
 _symmetry_equiv_pos_as_xyz
  1  'x, y, z'
loop_
 _atom_site_type_symbol
 _atom_site_label
 _atom_site_symmetry_multiplicity
 _atom_site_fract_x
 _atom_site_fract_y
 _atom_site_fract_z
 _atom_site_occupancy
  Zn  Zn0  1  0.00000000  0.50000000  0.00000000  1
  Zn  Zn1  1  0.86499000  0.04654000  0.50557000  1
  Zn  Zn2  1  0.63501000  0.45346000  0.00557000  1
  Zn  Zn3  1  0.50000000  1.00000000  0.50000000  1
  Zn  Zn4  1  0.36499000  0.54654000  0.99443000  1
  Zn  Zn5  1  0.13501000  0.95346000  0.49443000  1
  H  H6  1  0.99980000  0.29390000  0.51190000  1
  H  H7  1  0.99270000  0.40990000  0.21890000  1
  H  H8  1  0.98020000  0.32090000  0.33060000  1
  H  H9  1  0.96420000  0.32960000  0.81640000  1
  H  H10  1  0.96100000  0.62810000  0.41600000  1
  H  H11  1  0.95130000  0.24200000  0.70410000  1
  H  H12  1  0.94840000  0.03290000  0.08800000  1
  H  H13  1  0.93470000  0.09620000  0.89320000  1
  H  H14  1  0.93390000  0.22210000  0.05550000  1
  H  H15  1  0.89930000  0.56060000  0.48950000  1
  H  H16  1  0.80330000  0.08280000  0.94680000  1
  H  H17  1  0.76790000  0.02920000  0.86820000  1
  H  H18  1  0.73210000  0.47080000  0.36820000  1
  H  H19  1  0.69670000  0.41720000  0.44680000  1
  H  H20  1  0.60070000  0.93940000  0.98950000  1
  H  H21  1  0.56610000  0.27790000  0.55550000  1
  H  H22  1  0.56530000  0.40380000  0.39320000  1
  H  H23  1  0.55160000  0.46710000  0.58800000  1
  H  H24  1  0.54870000  0.25800000  0.20410000  1
  H  H25  1  0.53900000  0.87190000  0.91600000  1
  H  H26  1  0.53580000  0.17040000  0.31640000  1
  H  H27  1  0.51980000  0.17910000  0.83060000  1
  H  H28  1  0.50730000  0.09010000  0.71890000  1
  H  H29  1  0.50020000  0.20610000  0.01190000  1
  H  H30  1  0.49980000  0.79390000  0.98810000  1
  H  H31  1  0.49270000  0.90990000  0.28110000  1
  H  H32  1  0.48020000  0.82090000  0.16940000  1
  H  H33  1  0.46420000  0.82960000  0.68360000  1
  H  H34  1  0.46100000  0.12810000  0.08400000  1
  H  H35  1  0.45130000  0.74200000  0.79590000  1
  H  H36  1  0.44840000  0.53290000  0.41200000  1
  H  H37  1  0.43470000  0.59620000  0.60680000  1
  H  H38  1  0.43390000  0.72210000  0.44450000  1
  H  H39  1  0.39930000  0.06060000  0.01050000  1
  H  H40  1  0.30330000  0.58280000  0.55320000  1
  H  H41  1  0.26790000  0.52920000  0.63180000  1
  H  H42  1  0.23210000  0.97080000  0.13180000  1
  H  H43  1  0.19670000  0.91720000  0.05320000  1
  H  H44  1  0.10070000  0.43940000  0.51050000  1
  H  H45  1  0.06610000  0.77790000  0.94450000  1
  H  H46  1  0.06530000  0.90380000  0.10680000  1
  H  H47  1  0.05160000  0.96710000  0.91200000  1
  H  H48  1  0.04870000  0.75800000  0.29590000  1
  H  H49  1  0.03900000  0.37190000  0.58400000  1
  H  H50  1  0.03580000  0.67040000  0.18360000  1
  H  H51  1  0.01980000  0.67910000  0.66940000  1
  H  H52  1  0.00730000  0.59010000  0.78110000  1
  H  H53  1  0.00020000  0.70610000  0.48810000  1
  C  C54  1  0.97446000  0.78905000  0.94653000  1
  C  C55  1  0.96587000  0.90141000  0.92801000  1
  C  C56  1  0.92422000  0.63877000  0.46276000  1
  C  C57  1  0.90009000  0.36040000  0.23828000  1
  C  C58  1  0.89257000  0.30759000  0.30474000  1
  C  C59  1  0.87152000  0.28214000  0.79635000  1
  C  C60  1  0.86358000  0.22971000  0.72966000  1
  C  C61  1  0.84800000  0.69037000  0.96843000  1
  C  C62  1  0.83570000  0.04244000  0.90806000  1
  C  C63  1  0.78995000  0.67158000  0.45472000  1
  C  C64  1  0.78873000  0.78915000  0.47040000  1
  C  C65  1  0.78135000  0.39317000  0.12631000  1
  C  C66  1  0.77176000  0.34077000  0.19994000  1
  C  C67  1  0.75741000  0.23526000  0.33373000  1
  C  C68  1  0.75058000  0.32502000  0.90508000  1
  C  C69  1  0.74942000  0.17498000  0.40508000  1
  C  C70  1  0.74259000  0.26474000  0.83373000  1
  C  C71  1  0.72824000  0.15923000  0.69994000  1
  C  C72  1  0.71865000  0.10683000  0.62631000  1
  C  C73  1  0.71127000  0.71085000  0.97040000  1
  C  C74  1  0.71005000  0.82842000  0.95472000  1
  C  C75  1  0.66430000  0.45756000  0.40806000  1
  C  C76  1  0.65200000  0.80963000  0.46843000  1
  C  C77  1  0.63642000  0.27029000  0.22966000  1
  C  C78  1  0.62848000  0.21786000  0.29635000  1
  C  C79  1  0.60743000  0.19241000  0.80474000  1
  C  C80  1  0.59991000  0.13960000  0.73828000  1
  C  C81  1  0.57578000  0.86123000  0.96276000  1
  C  C82  1  0.53413000  0.59859000  0.42801000  1
  C  C83  1  0.52554000  0.71095000  0.44653000  1
  C  C84  1  0.47446000  0.28905000  0.55347000  1
  C  C85  1  0.46587000  0.40141000  0.57199000  1
  C  C86  1  0.42422000  0.13877000  0.03724000  1
  C  C87  1  0.40009000  0.86040000  0.26172000  1
  C  C88  1  0.39257000  0.80759000  0.19526000  1
  C  C89  1  0.37152000  0.78214000  0.70365000  1
  C  C90  1  0.36358000  0.72971000  0.77034000  1
  C  C91  1  0.34800000  0.19037000  0.53157000  1
  C  C92  1  0.33570000  0.54244000  0.59194000  1
  C  C93  1  0.28995000  0.17158000  0.04528000  1
  C  C94  1  0.28873000  0.28915000  0.02960000  1
  C  C95  1  0.28135000  0.89317000  0.37369000  1
  C  C96  1  0.27176000  0.84077000  0.30006000  1
  C  C97  1  0.25741000  0.73526000  0.16627000  1
  C  C98  1  0.25058000  0.82502000  0.59492000  1
  C  C99  1  0.24942000  0.67498000  0.09492000  1
  C  C100  1  0.24259000  0.76474000  0.66627000  1
  C  C101  1  0.22824000  0.65923000  0.80006000  1
  C  C102  1  0.21865000  0.60683000  0.87369000  1
  C  C103  1  0.21127000  0.21085000  0.52960000  1
  C  C104  1  0.21005000  0.32842000  0.54528000  1
  C  C105  1  0.16430000  0.95756000  0.09194000  1
  C  C106  1  0.15200000  0.30963000  0.03157000  1
  C  C107  1  0.13642000  0.77029000  0.27034000  1
  C  C108  1  0.12848000  0.71786000  0.20365000  1
  C  C109  1  0.10743000  0.69241000  0.69526000  1
  C  C110  1  0.09991000  0.63960000  0.76172000  1
  C  C111  1  0.07578000  0.36123000  0.53724000  1
  C  C112  1  0.03413000  0.09859000  0.07199000  1
  C  C113  1  0.02554000  0.21095000  0.05347000  1
  N  N114  1  0.83775000  0.92066000  0.93215000  1
  N  N115  1  0.66225000  0.57934000  0.43215000  1
  N  N116  1  0.33775000  0.42066000  0.56785000  1
  N  N117  1  0.16225000  0.07934000  0.06785000  1
  O  O118  1  0.90641000  0.88635000  0.49021000  1
  O  O119  1  0.90361000  0.42753000  0.09685000  1
  O  O120  1  0.86331000  0.34483000  0.94141000  1
  O  O121  1  0.86148000  0.15014000  0.42240000  1
  O  O122  1  0.84488000  0.58058000  0.98720000  1
  O  O123  1  0.83765000  0.10424000  0.60050000  1
  O  O124  1  0.66235000  0.39576000  0.10050000  1
  O  O125  1  0.65512000  0.91942000  0.48720000  1
  O  O126  1  0.63852000  0.34986000  0.92240000  1
  O  O127  1  0.63669000  0.15517000  0.44141000  1
  O  O128  1  0.59639000  0.07247000  0.59685000  1
  O  O129  1  0.59359000  0.61365000  0.99021000  1
  O  O130  1  0.40641000  0.38635000  0.00979000  1
  O  O131  1  0.40361000  0.92753000  0.40315000  1
  O  O132  1  0.36331000  0.84483000  0.55859000  1
  O  O133  1  0.36148000  0.65014000  0.07760000  1
  O  O134  1  0.34488000  0.08058000  0.51280000  1
  O  O135  1  0.33765000  0.60424000  0.89950000  1
  O  O136  1  0.16235000  0.89576000  0.39950000  1
  O  O137  1  0.15512000  0.41942000  0.01280000  1
  O  O138  1  0.13852000  0.84986000  0.57760000  1
  O  O139  1  0.13669000  0.65517000  0.05859000  1
  O  O140  1  0.09639000  0.57247000  0.90315000  1
  O  O141  1  0.09359000  0.11365000  0.50979000  1
