# generated using pymatgen
data_CuH8(C7O2)2
_symmetry_space_group_name_H-M   'P 1'
_cell_length_a   12.93500000
_cell_length_b   14.35190000
_cell_length_c   14.35189461
_cell_angle_alpha   78.28323508
_cell_angle_beta   63.21544263
_cell_angle_gamma   63.21540000
_symmetry_Int_Tables_number   1
_chemical_formula_structural   CuH8(C7O2)2
_chemical_formula_sum   'Cu4 H32 C56 O16'
_cell_volume   2123.25955404
_cell_formula_units_Z   4
loop_
 _symmetry_equiv_pos_site_id
 _symmetry_equiv_pos_as_xyz
  1  'x, y, z'
loop_
 _atom_site_type_symbol
 _atom_site_label
 _atom_site_symmetry_multiplicity
 _atom_site_fract_x
 _atom_site_fract_y
 _atom_site_fract_z
 _atom_site_occupancy
  Cu  Cu0  1  0.78563000  0.02303000  0.10021000  1
  Cu  Cu1  1  0.90887000  0.97697000  0.89979000  1
  Cu  Cu2  1  0.13584000  0.39979000  0.52303000  1
  Cu  Cu3  1  0.05866000  0.60021000  0.47697000  1
  H  H4  1  0.05310000  0.70370000  0.91570000  1
  H  H5  1  0.03040000  0.45620000  0.93080000  1
  H  H6  1  0.64210000  0.79590000  0.22350000  1
  H  H7  1  0.57620000  0.66250000  0.27150000  1
  H  H8  1  0.00680000  0.41570000  0.79630000  1
  H  H9  1  0.03330000  0.68680000  0.76740000  1
  H  H10  1  0.97010000  0.26740000  0.81320000  1
  H  H11  1  0.73660000  0.43080000  0.04380000  1
  H  H12  1  0.67250000  0.29630000  0.08430000  1
  H  H13  1  0.48750000  0.31320000  0.23260000  1
  H  H14  1  0.43380000  0.59920000  0.28140000  1
  H  H15  1  0.77950000  0.72940000  0.92240000  1
  H  H16  1  0.70920000  0.59930000  0.96710000  1
  H  H17  1  0.75890000  0.42240000  0.77060000  1
  H  H18  1  0.43130000  0.27060000  0.07760000  1
  H  H19  1  0.41740000  0.54380000  0.06920000  1
  H  H20  1  0.55850000  0.46710000  0.90070000  1
  H  H21  1  0.66150000  0.20410000  0.77650000  1
  H  H22  1  0.21880000  0.58430000  0.20370000  1
  H  H23  1  0.11560000  0.27650000  0.29590000  1
  H  H24  1  0.68800000  0.72350000  0.70410000  1
  H  H25  1  0.48870000  0.77150000  0.83750000  1
  H  H26  1  0.27560000  0.40070000  0.03290000  1
  H  H27  1  0.09770000  0.22850000  0.16250000  1
  H  H28  1  0.51020000  0.33750000  0.72850000  1
  H  H29  1  0.05070000  0.73260000  0.18680000  1
  H  H30  1  0.28300000  0.78140000  0.90080000  1
  H  H31  1  0.95190000  0.57760000  0.22940000  1
  H  H32  1  0.21120000  0.56920000  0.95620000  1
  H  H33  1  0.96520000  0.21860000  0.09920000  1
  H  H34  1  0.31440000  0.40080000  0.71860000  1
  H  H35  1  0.92630000  0.53290000  0.09930000  1
  C  C36  1  0.10500000  0.64340000  0.87540000  1
  C  C37  1  0.00890000  0.40040000  0.93920000  1
  C  C38  1  0.95870000  0.23430000  0.95870000  1
  C  C39  1  0.16740000  0.54130000  0.73430000  1
  C  C40  1  0.92200000  0.14060000  0.97460000  1
  C  C41  1  0.09250000  0.63240000  0.78880000  1
  C  C42  1  0.99840000  0.37540000  0.85660000  1
  C  C43  1  0.97490000  0.28880000  0.86760000  1
  C  C44  1  0.65560000  0.75670000  0.17170000  1
  C  C45  1  0.61540000  0.67590000  0.20090000  1
  C  C46  1  0.75860000  0.86280000  0.03840000  1
  C  C47  1  0.14660000  0.52540000  0.64060000  1
  C  C48  1  0.71540000  0.78090000  0.06750000  1
  C  C49  1  0.63210000  0.61550000  0.12770000  1
  C  C50  1  0.65930000  0.43920000  0.09960000  1
  C  C51  1  0.62380000  0.35660000  0.12460000  1
  C  C52  1  0.58850000  0.53210000  0.15150000  1
  C  C53  1  0.73640000  0.71750000  0.99270000  1
  C  C54  1  0.51370000  0.36760000  0.21120000  1
  C  C55  1  0.48080000  0.53990000  0.23970000  1
  C  C56  1  0.69570000  0.63830000  0.01910000  1
  C  C57  1  0.44300000  0.45870000  0.26570000  1
  C  C58  1  0.31260000  0.47460000  0.35940000  1
  C  C59  1  0.65980000  0.13720000  0.96160000  1
  C  C60  1  0.87140000  0.53840000  0.63720000  1
  C  C61  1  0.56380000  0.21910000  0.93250000  1
  C  C62  1  0.70390000  0.49270000  0.78250000  1
  C  C63  1  0.74630000  0.56750000  0.71910000  1
  C  C64  1  0.44660000  0.28250000  0.00730000  1
  C  C65  1  0.58400000  0.51910000  0.86170000  1
  C  C66  1  0.58400000  0.24330000  0.82830000  1
  C  C67  1  0.04700000  0.46160000  0.36280000  1
  C  C68  1  0.34850000  0.59960000  0.06080000  1
  C  C69  1  0.66230000  0.67170000  0.74330000  1
  C  C70  1  0.49760000  0.62770000  0.88450000  1
  C  C71  1  0.23040000  0.62460000  0.14340000  1
  C  C72  1  0.54130000  0.70090000  0.82410000  1
  C  C73  1  0.37060000  0.65150000  0.96790000  1
  C  C74  1  0.35310000  0.36170000  0.98090000  1
  C  C75  1  0.07730000  0.32830000  0.25670000  1
  C  C76  1  0.03290000  0.43250000  0.28090000  1
  C  C77  1  0.49220000  0.32410000  0.79910000  1
  C  C78  1  0.13130000  0.71120000  0.13240000  1
  C  C79  1  0.37530000  0.38450000  0.87230000  1
  C  C80  1  0.06630000  0.29910000  0.17590000  1
  C  C81  1  0.27070000  0.73970000  0.96010000  1
  C  C82  1  0.97910000  0.50730000  0.21750000  1
  C  C83  1  0.15170000  0.76570000  0.04130000  1
  C  C84  1  0.00980000  0.37230000  0.11550000  1
  C  C85  1  0.27210000  0.46790000  0.84850000  1
  C  C86  1  0.96480000  0.48090000  0.13830000  1
  C  C87  1  0.19810000  0.56080000  0.90040000  1
  C  C88  1  0.03720000  0.85940000  0.02540000  1
  C  C89  1  0.99000000  0.34850000  0.03210000  1
  C  C90  1  0.26040000  0.46010000  0.76030000  1
  C  C91  1  0.97050000  0.26030000  0.03990000  1
  O  O92  1  0.05500000  0.88700000  0.93540000  1
  O  O93  1  0.87740000  0.11300000  0.06460000  1
  O  O94  1  0.94510000  0.10040000  0.89440000  1
  O  O95  1  0.71440000  0.92650000  0.11170000  1
  O  O96  1  0.19200000  0.43540000  0.61300000  1
  O  O97  1  0.83850000  0.86800000  0.95220000  1
  O  O98  1  0.65870000  0.13200000  0.04780000  1
  O  O99  1  0.29550000  0.39440000  0.39960000  1
  O  O100  1  0.08950000  0.60560000  0.60040000  1
  O  O101  1  0.75260000  0.07350000  0.88830000  1
  O  O102  1  0.24040000  0.56460000  0.38700000  1
  O  O103  1  0.95650000  0.45220000  0.63200000  1
  O  O104  1  0.07610000  0.38830000  0.42650000  1
  O  O105  1  0.89090000  0.61170000  0.57350000  1
  O  O106  1  0.04070000  0.54780000  0.36800000  1
  O  O107  1  0.93990000  0.89960000  0.10560000  1
