# generated using pymatgen
data_ErH6C14(NO4)2
_symmetry_space_group_name_H-M   'P 1'
_cell_length_a   12.49072274
_cell_length_b   12.49072274
_cell_length_c   15.82354244
_cell_angle_alpha   112.46334342
_cell_angle_beta   112.46334342
_cell_angle_gamma   91.82878889
_symmetry_Int_Tables_number   1
_chemical_formula_structural   ErH6C14(NO4)2
_chemical_formula_sum   'Er4 H24 C56 N8 O32'
_cell_volume   2062.07861623
_cell_formula_units_Z   4
loop_
 _symmetry_equiv_pos_site_id
 _symmetry_equiv_pos_as_xyz
  1  'x, y, z'
loop_
 _atom_site_type_symbol
 _atom_site_label
 _atom_site_symmetry_multiplicity
 _atom_site_fract_x
 _atom_site_fract_y
 _atom_site_fract_z
 _atom_site_occupancy
  C  C0  1  0.02350000  0.34830000  0.00280000  1
  C  C1  1  0.47930000  0.65450000  0.00280000  1
  C  C2  1  0.98907000  0.87487000  0.02814000  1
  C  C3  1  0.53907000  0.15327000  0.02814000  1
  C  C4  1  0.44301000  0.84661000  0.05202000  1
  C  C5  1  0.10901000  0.20541000  0.05202000  1
  C  C6  1  0.45130000  0.74690000  0.06680000  1
  C  C7  1  0.11550000  0.31990000  0.06680000  1
  C  C8  1  0.50590000  0.33910000  0.07660000  1
  C  C9  1  0.07073333  0.73746667  0.07660000  1
  C  C10  1  0.20363000  0.16563000  0.11926000  1
  C  C11  1  0.41563000  0.95363000  0.11926000  1
  C  C12  1  0.47640000  0.43820000  0.15160000  1
  C  C13  1  0.17520000  0.71340000  0.15160000  1
  C  C14  1  0.06180000  0.02360000  0.34840000  1
  C  C15  1  0.78660000  0.32480000  0.34840000  1
  C  C16  1  0.33437000  0.29637000  0.38074000  1
  C  C17  1  0.54637000  0.08437000  0.38074000  1
  C  C18  1  0.16090000  0.99410000  0.42340000  1
  C  C19  1  0.76253333  0.42926667  0.42340000  1
  C  C20  1  0.75310000  0.04870000  0.43320000  1
  C  C21  1  0.18010000  0.38450000  0.43320000  1
  C  C22  1  0.65339000  0.05699000  0.44798000  1
  C  C23  1  0.29459000  0.39099000  0.44798000  1
  C  C24  1  0.62513000  0.51093000  0.47186000  1
  C  C25  1  0.34673000  0.96093000  0.47186000  1
  C  C26  1  0.15170000  0.47650000  0.49720000  1
  C  C27  1  0.84550000  0.02070000  0.49720000  1
  C  C28  1  0.15450000  0.97930000  0.50280000  1
  C  C29  1  0.84830000  0.52350000  0.50280000  1
  C  C30  1  0.65327000  0.03907000  0.52814000  1
  C  C31  1  0.37487000  0.48907000  0.52814000  1
  C  C32  1  0.70541000  0.60901000  0.55202000  1
  C  C33  1  0.34661000  0.94301000  0.55202000  1
  C  C34  1  0.81990000  0.61550000  0.56680000  1
  C  C35  1  0.24690000  0.95130000  0.56680000  1
  C  C36  1  0.23750000  0.57070000  0.57660000  1
  C  C37  1  0.83910000  0.00590000  0.57660000  1
  C  C38  1  0.45363000  0.91563000  0.61926000  1
  C  C39  1  0.66563000  0.70363000  0.61926000  1
  C  C40  1  0.21340000  0.67520000  0.65160000  1
  C  C41  1  0.93820000  0.97640000  0.65160000  1
  C  C42  1  0.82480000  0.28660000  0.84840000  1
  C  C43  1  0.52360000  0.56180000  0.84840000  1
  C  C44  1  0.58437000  0.04637000  0.88074000  1
  C  C45  1  0.79637000  0.83437000  0.88074000  1
  C  C46  1  0.92930000  0.26250000  0.92340000  1
  C  C47  1  0.49410000  0.66090000  0.92340000  1
  C  C48  1  0.88450000  0.68010000  0.93320000  1
  C  C49  1  0.54870000  0.25310000  0.93320000  1
  C  C50  1  0.89099000  0.79459000  0.94798000  1
  C  C51  1  0.55699000  0.15339000  0.94798000  1
  C  C52  1  0.46093000  0.84673000  0.97186000  1
  C  C53  1  0.01093000  0.12513000  0.97186000  1
  C  C54  1  0.52070000  0.34550000  0.99720000  1
  C  C55  1  0.97650000  0.65170000  0.99720000  1
  Er  Er56  1  0.50283000  0.25283000  0.25000000  1
  Er  Er57  1  0.24717000  0.99717000  0.25000000  1
  Er  Er58  1  0.75283000  0.00283000  0.75000000  1
  Er  Er59  1  0.49717000  0.74717000  0.75000000  1
  H  H60  1  0.02540000  0.42700000  0.01340000  1
  H  H61  1  0.48800000  0.58640000  0.01340000  1
  H  H62  1  0.99430000  0.95370000  0.03860000  1
  H  H63  1  0.54430000  0.08490000  0.03860000  1
  H  H64  1  0.43820000  0.74100000  0.11900000  1
  H  H65  1  0.18080000  0.37800000  0.11900000  1
  H  H66  1  0.75900000  0.06180000  0.38100000  1
  H  H67  1  0.12200000  0.31920000  0.38100000  1
  H  H68  1  0.54630000  0.50570000  0.46140000  1
  H  H69  1  0.41510000  0.95570000  0.46140000  1
  H  H70  1  0.07300000  0.47460000  0.48660000  1
  H  H71  1  0.91360000  0.01200000  0.48660000  1
  H  H72  1  0.08640000  0.98800000  0.51340000  1
  H  H73  1  0.92700000  0.52540000  0.51340000  1
  H  H74  1  0.58490000  0.04430000  0.53860000  1
  H  H75  1  0.45370000  0.49430000  0.53860000  1
  H  H76  1  0.87800000  0.68080000  0.61900000  1
  H  H77  1  0.24100000  0.93820000  0.61900000  1
  H  H78  1  0.81920000  0.62200000  0.88100000  1
  H  H79  1  0.56180000  0.25900000  0.88100000  1
  H  H80  1  0.45570000  0.91510000  0.96140000  1
  H  H81  1  0.00570000  0.04630000  0.96140000  1
  H  H82  1  0.51200000  0.41360000  0.98660000  1
  H  H83  1  0.97460000  0.57300000  0.98660000  1
  N  N84  1  0.07732000  0.84868000  0.09216000  1
  N  N85  1  0.51484000  0.24348000  0.09216000  1
  N  N86  1  0.65132000  0.42268000  0.40784000  1
  N  N87  1  0.25652000  0.98516000  0.40784000  1
  N  N88  1  0.74348000  0.01484000  0.59216000  1
  N  N89  1  0.34868000  0.57732000  0.59216000  1
  N  N90  1  0.48516000  0.75652000  0.90784000  1
  N  N91  1  0.92268000  0.15132000  0.90784000  1
  O  O92  1  0.18490000  0.61110000  0.13500000  1
  O  O93  1  0.45010000  0.52390000  0.13500000  1
  O  O94  1  0.30779000  0.20327000  0.14046000  1
  O  O95  1  0.33267000  0.93719000  0.14046000  1
  O  O96  1  0.16931000  0.09735000  0.14850000  1
  O  O97  1  0.47919000  0.05115000  0.14850000  1
  O  O98  1  0.48210000  0.42458000  0.22780000  1
  O  O99  1  0.24570000  0.80322000  0.22780000  1
  O  O100  1  0.07542000  0.01790000  0.27220000  1
  O  O101  1  0.69678000  0.25430000  0.27220000  1
  O  O102  1  0.40265000  0.33069000  0.35150000  1
  O  O103  1  0.44885000  0.02081000  0.35150000  1
  O  O104  1  0.29673000  0.19221000  0.35954000  1
  O  O105  1  0.56281000  0.16733000  0.35954000  1
  O  O106  1  0.88890000  0.31510000  0.36500000  1
  O  O107  1  0.97610000  0.04990000  0.36500000  1
  O  O108  1  0.02390000  0.95010000  0.63500000  1
  O  O109  1  0.11110000  0.68490000  0.63500000  1
  O  O110  1  0.43719000  0.83267000  0.64046000  1
  O  O111  1  0.70327000  0.80779000  0.64046000  1
  O  O112  1  0.55115000  0.97919000  0.64850000  1
  O  O113  1  0.59735000  0.66931000  0.64850000  1
  O  O114  1  0.30322000  0.74570000  0.72780000  1
  O  O115  1  0.92458000  0.98210000  0.72780000  1
  O  O116  1  0.75430000  0.19678000  0.77220000  1
  O  O117  1  0.51790000  0.57542000  0.77220000  1
  O  O118  1  0.52081000  0.94885000  0.85150000  1
  O  O119  1  0.83069000  0.90265000  0.85150000  1
  O  O120  1  0.66733000  0.06281000  0.85954000  1
  O  O121  1  0.69221000  0.79673000  0.85954000  1
  O  O122  1  0.54990000  0.47610000  0.86500000  1
  O  O123  1  0.81510000  0.38890000  0.86500000  1
