# generated using pymatgen
data_ZnFeH4C2(N5F2)2
_symmetry_space_group_name_H-M   'P 1'
_cell_length_a   6.57000000
_cell_length_b   13.29280000
_cell_length_c   13.64610000
_cell_angle_alpha   119.06900000
_cell_angle_beta   90.00000000
_cell_angle_gamma   90.00000000
_symmetry_Int_Tables_number   1
_chemical_formula_structural   ZnFeH4C2(N5F2)2
_chemical_formula_sum   'Zn3 Fe3 H12 C6 N30 F12'
_cell_volume   1041.64402436
_cell_formula_units_Z   3
loop_
 _symmetry_equiv_pos_site_id
 _symmetry_equiv_pos_as_xyz
  1  'x, y, z'
loop_
 _atom_site_type_symbol
 _atom_site_label
 _atom_site_symmetry_multiplicity
 _atom_site_fract_x
 _atom_site_fract_y
 _atom_site_fract_z
 _atom_site_occupancy
  Zn  Zn0  1  0.09829000  0.95027000  0.99672000  1
  Zn  Zn1  1  0.90845000  0.49483000  0.99451000  1
  Zn  Zn2  1  0.59829000  0.04973000  0.00328000  1
  Fe  Fe3  1  0.75452000  0.75261000  0.50430000  1
  Fe  Fe4  1  0.40845000  0.50517000  0.00549000  1
  Fe  Fe5  1  0.25452000  0.24739000  0.49570000  1
  H  H6  1  0.53370000  0.84660000  0.01010000  1
  H  H7  1  0.27570000  0.82600000  0.74280000  1
  H  H8  1  0.19000000  0.77200000  0.62720000  1
  H  H9  1  0.60740000  0.74520000  0.01870000  1
  H  H10  1  0.31470000  0.71750000  0.38810000  1
  H  H11  1  0.22550000  0.66190000  0.27330000  1
  H  H12  1  0.72550000  0.33810000  0.72670000  1
  H  H13  1  0.81470000  0.28250000  0.61190000  1
  H  H14  1  0.10740000  0.25480000  0.98130000  1
  H  H15  1  0.69000000  0.22800000  0.37280000  1
  H  H16  1  0.77570000  0.17400000  0.25720000  1
  H  H17  1  0.03370000  0.15340000  0.98990000  1
  C  C18  1  0.98620000  0.84750000  0.74140000  1
  C  C19  1  0.31070000  0.74700000  0.00610000  1
  C  C20  1  0.51980000  0.65650000  0.27170000  1
  C  C21  1  0.01980000  0.34350000  0.72830000  1
  C  C22  1  0.81070000  0.25300000  0.99390000  1
  C  C23  1  0.48620000  0.15250000  0.25860000  1
  N  N24  1  0.73610000  0.92290000  0.85610000  1
  N  N25  1  0.94460000  0.90810000  0.85070000  1
  N  N26  1  0.65800000  0.87540000  0.75690000  1
  N  N27  1  0.81280000  0.82450000  0.68120000  1
  N  N28  1  0.17310000  0.81080000  0.69870000  1
  N  N29  1  0.14360000  0.80310000  0.00130000  1
  N  N30  1  0.50880000  0.78430000  0.01240000  1
  N  N31  1  0.98450000  0.73780000  0.99960000  1
  N  N32  1  0.69570000  0.68480000  0.33180000  1
  N  N33  1  0.33020000  0.68170000  0.31650000  1
  N  N34  1  0.26030000  0.65190000  0.00910000  1
  N  N35  1  0.05510000  0.64900000  0.00500000  1
  N  N36  1  0.84750000  0.64530000  0.25530000  1
  N  N37  1  0.56260000  0.60090000  0.16120000  1
  N  N38  1  0.76700000  0.59670000  0.15590000  1
  N  N39  1  0.26700000  0.40330000  0.84410000  1
  N  N40  1  0.06260000  0.39910000  0.83880000  1
  N  N41  1  0.34750000  0.35470000  0.74470000  1
  N  N42  1  0.55510000  0.35100000  0.99500000  1
  N  N43  1  0.76030000  0.34810000  0.99090000  1
  N  N44  1  0.83020000  0.31830000  0.68350000  1
  N  N45  1  0.19570000  0.31520000  0.66820000  1
  N  N46  1  0.48450000  0.26220000  0.00040000  1
  N  N47  1  0.00880000  0.21570000  0.98760000  1
  N  N48  1  0.64360000  0.19690000  0.99870000  1
  N  N49  1  0.67310000  0.18920000  0.30130000  1
  N  N50  1  0.31280000  0.17550000  0.31880000  1
  N  N51  1  0.15800000  0.12460000  0.24310000  1
  N  N52  1  0.44460000  0.09190000  0.14930000  1
  N  N53  1  0.23610000  0.07710000  0.14390000  1
  F  F54  1  0.34400000  0.97010000  0.92290000  1
  F  F55  1  0.85110000  0.89240000  0.51380000  1
  F  F56  1  0.48220000  0.81320000  0.53540000  1
  F  F57  1  0.02300000  0.69230000  0.47670000  1
  F  F58  1  0.65530000  0.61330000  0.49670000  1
  F  F59  1  0.65640000  0.52420000  0.92860000  1
  F  F60  1  0.15640000  0.47580000  0.07140000  1
  F  F61  1  0.15530000  0.38670000  0.50330000  1
  F  F62  1  0.52300000  0.30770000  0.52330000  1
  F  F63  1  0.98220000  0.18680000  0.46460000  1
  F  F64  1  0.35110000  0.10760000  0.48620000  1
  F  F65  1  0.84400000  0.02990000  0.07710000  1
