# generated using pymatgen
data_ErC3SeO10
_symmetry_space_group_name_H-M   'P 1'
_cell_length_a   8.75400000
_cell_length_b   9.46600000
_cell_length_c   15.87300000
_cell_angle_alpha   90.00000000
_cell_angle_beta   90.00000000
_cell_angle_gamma   99.88700000
_symmetry_Int_Tables_number   1
_chemical_formula_structural   ErC3SeO10
_chemical_formula_sum   'Er4 C12 Se4 O40'
_cell_volume   1295.78716968
_cell_formula_units_Z   4
loop_
 _symmetry_equiv_pos_site_id
 _symmetry_equiv_pos_as_xyz
  1  'x, y, z'
loop_
 _atom_site_type_symbol
 _atom_site_label
 _atom_site_symmetry_multiplicity
 _atom_site_fract_x
 _atom_site_fract_y
 _atom_site_fract_z
 _atom_site_occupancy
  Er  Er0  1  0.97168000  0.47549000  0.80471000  1
  Er  Er1  1  0.52832000  0.02451000  0.30471000  1
  Er  Er2  1  0.47168000  0.97549000  0.69529000  1
  Er  Er3  1  0.02832000  0.52451000  0.19529000  1
  C  C4  1  0.93250000  0.54150000  0.00080000  1
  C  C5  1  0.79250000  0.29800000  0.29600000  1
  C  C6  1  0.76900000  0.24900000  0.20370000  1
  C  C7  1  0.73100000  0.25100000  0.70370000  1
  C  C8  1  0.70750000  0.20200000  0.79600000  1
  C  C9  1  0.56750000  0.95850000  0.50080000  1
  C  C10  1  0.43250000  0.04150000  0.49920000  1
  C  C11  1  0.29250000  0.79800000  0.20400000  1
  C  C12  1  0.26900000  0.74900000  0.29630000  1
  C  C13  1  0.23100000  0.75100000  0.79630000  1
  C  C14  1  0.20750000  0.70200000  0.70400000  1
  C  C15  1  0.06750000  0.45850000  0.99920000  1
  Se  Se16  1  0.77797000  0.79129000  0.77872000  1
  Se  Se17  1  0.72203000  0.70871000  0.27872000  1
  Se  Se18  1  0.27797000  0.29129000  0.72128000  1
  Se  Se19  1  0.22203000  0.20871000  0.22128000  1
  O  O20  1  0.92400000  0.90220000  0.74140000  1
  O  O21  1  0.90410000  0.59680000  0.06937000  1
  O  O22  1  0.88850000  0.40820000  0.31024000  1
  O  O23  1  0.88260000  0.69740000  0.22730000  1
  O  O24  1  0.86050000  0.54570000  0.93252000  1
  O  O25  1  0.85220000  0.32550000  0.15003000  1
  O  O26  1  0.83050000  0.35960000  0.68904000  1
  O  O27  1  0.80310000  0.62520000  0.76620000  1
  O  O28  1  0.78970000  0.27910000  0.85013000  1
  O  O29  1  0.75870000  0.82590000  0.87796000  1
  O  O30  1  0.74130000  0.67410000  0.37796000  1
  O  O31  1  0.71030000  0.22090000  0.35013000  1
  O  O32  1  0.69690000  0.87480000  0.26620000  1
  O  O33  1  0.66950000  0.14040000  0.18904000  1
  O  O34  1  0.64780000  0.17450000  0.65003000  1
  O  O35  1  0.63950000  0.95430000  0.43252000  1
  O  O36  1  0.61740000  0.80260000  0.72730000  1
  O  O37  1  0.61150000  0.09180000  0.81024000  1
  O  O38  1  0.59590000  0.90320000  0.56937000  1
  O  O39  1  0.57600000  0.59780000  0.24140000  1
  O  O40  1  0.42400000  0.40220000  0.75860000  1
  O  O41  1  0.40410000  0.09680000  0.43063000  1
  O  O42  1  0.38850000  0.90820000  0.18976000  1
  O  O43  1  0.38260000  0.19740000  0.27270000  1
  O  O44  1  0.36050000  0.04570000  0.56748000  1
  O  O45  1  0.35220000  0.82550000  0.34997000  1
  O  O46  1  0.33050000  0.85960000  0.81096000  1
  O  O47  1  0.30310000  0.12520000  0.73380000  1
  O  O48  1  0.28970000  0.77910000  0.64987000  1
  O  O49  1  0.25870000  0.32590000  0.62204000  1
  O  O50  1  0.24130000  0.17410000  0.12204000  1
  O  O51  1  0.21030000  0.72090000  0.14987000  1
  O  O52  1  0.19690000  0.37480000  0.23380000  1
  O  O53  1  0.16950000  0.64040000  0.31096000  1
  O  O54  1  0.14780000  0.67450000  0.84997000  1
  O  O55  1  0.13950000  0.45430000  0.06748000  1
  O  O56  1  0.11740000  0.30260000  0.77270000  1
  O  O57  1  0.11150000  0.59180000  0.68976000  1
  O  O58  1  0.09590000  0.40320000  0.93063000  1
  O  O59  1  0.07600000  0.09780000  0.25860000  1
