# generated using pymatgen
data_Sm2ZnH12C32(NO4)4
_symmetry_space_group_name_H-M   'P 1'
_cell_length_a   13.17900000
_cell_length_b   13.39000000
_cell_length_c   15.26872307
_cell_angle_alpha   116.00681534
_cell_angle_beta   115.56714270
_cell_angle_gamma   90.00000000
_symmetry_Int_Tables_number   1
_chemical_formula_structural   Sm2ZnH12C32(NO4)4
_chemical_formula_sum   'Sm4 Zn2 H24 C64 N8 O32'
_cell_volume   2124.13099197
_cell_formula_units_Z   2
loop_
 _symmetry_equiv_pos_site_id
 _symmetry_equiv_pos_as_xyz
  1  'x, y, z'
loop_
 _atom_site_type_symbol
 _atom_site_label
 _atom_site_symmetry_multiplicity
 _atom_site_fract_x
 _atom_site_fract_y
 _atom_site_fract_z
 _atom_site_occupancy
  C  C0  1  0.72230000  0.15020000  0.23840000  1
  C  C1  1  0.98390000  0.91180000  0.76160000  1
  C  C2  1  0.65530000  0.12640000  0.13120000  1
  C  C3  1  0.02410000  0.99520000  0.86880000  1
  C  C4  1  0.84450000  0.29620000  0.44600000  1
  C  C5  1  0.89850000  0.85020000  0.55400000  1
  C  C6  1  0.77130000  0.26440000  0.32300000  1
  C  C7  1  0.94830000  0.94140000  0.67700000  1
  C  C8  1  0.85490000  0.14590000  0.03440000  1
  C  C9  1  0.32050000  0.11150000  0.96560000  1
  C  C10  1  0.51820000  0.57490000  0.83680000  1
  C  C11  1  0.18140000  0.73810000  0.16320000  1
  C  C12  1  0.16160000  0.58880000  0.86020000  1
  C  C13  1  0.80140000  0.72860000  0.13980000  1
  C  C14  1  0.87680000  0.56890000  0.81900000  1
  C  C15  1  0.55780000  0.74990000  0.18100000  1
  C  C16  1  0.83740000  0.65080000  0.97780000  1
  C  C17  1  0.35960000  0.67300000  0.02220000  1
  C  C18  1  0.63680000  0.21680000  0.10460000  1
  C  C19  1  0.03220000  0.11220000  0.89540000  1
  C  C20  1  0.94700000  0.23580000  0.11320000  1
  C  C21  1  0.33380000  0.12260000  0.88680000  1
  C  C22  1  0.31550000  0.20610000  0.05360000  1
  C  C23  1  0.76190000  0.15250000  0.94640000  1
  C  C24  1  0.75190000  0.34900000  0.29520000  1
  C  C25  1  0.95670000  0.05380000  0.70480000  1
  C  C26  1  0.84780000  0.66330000  0.89520000  1
  C  C27  1  0.45260000  0.76810000  0.10480000  1
  C  C28  1  0.26170000  0.68930000  0.94540000  1
  C  C29  1  0.81630000  0.74390000  0.05460000  1
  C  C30  1  0.68990000  0.33020000  0.18660000  1
  C  C31  1  0.00330000  0.14360000  0.81340000  1
  C  C32  1  0.50330000  0.66980000  0.81340000  1
  C  C33  1  0.18990000  0.85640000  0.18660000  1
  C  C34  1  0.31630000  0.31070000  0.05460000  1
  C  C35  1  0.76170000  0.25610000  0.94540000  1
  C  C36  1  0.95260000  0.33670000  0.10480000  1
  C  C37  1  0.34780000  0.23190000  0.89520000  1
  C  C38  1  0.45670000  0.65100000  0.70480000  1
  C  C39  1  0.25190000  0.94620000  0.29520000  1
  C  C40  1  0.26190000  0.79390000  0.94640000  1
  C  C41  1  0.81550000  0.84750000  0.05360000  1
  C  C42  1  0.83380000  0.76420000  0.88680000  1
  C  C43  1  0.44700000  0.87740000  0.11320000  1
  C  C44  1  0.53220000  0.78320000  0.89540000  1
  C  C45  1  0.13680000  0.88780000  0.10460000  1
  C  C46  1  0.85960000  0.34920000  0.02220000  1
  C  C47  1  0.33740000  0.32700000  0.97780000  1
  C  C48  1  0.05780000  0.43110000  0.18100000  1
  C  C49  1  0.37680000  0.25010000  0.81900000  1
  C  C50  1  0.30140000  0.41120000  0.13980000  1
  C  C51  1  0.66160000  0.27140000  0.86020000  1
  C  C52  1  0.68140000  0.42510000  0.16320000  1
  C  C53  1  0.01820000  0.26190000  0.83680000  1
  C  C54  1  0.82050000  0.85410000  0.96560000  1
  C  C55  1  0.35490000  0.88850000  0.03440000  1
  C  C56  1  0.44830000  0.73560000  0.67700000  1
  C  C57  1  0.27130000  0.05860000  0.32300000  1
  C  C58  1  0.39850000  0.70380000  0.55400000  1
  C  C59  1  0.34450000  0.14980000  0.44600000  1
  C  C60  1  0.52410000  0.87360000  0.86880000  1
  C  C61  1  0.15530000  0.00480000  0.13120000  1
  C  C62  1  0.48390000  0.84980000  0.76160000  1
  C  C63  1  0.22230000  0.08820000  0.23840000  1
  H  H64  1  0.23540000  0.16430000  0.25540000  1
  H  H65  1  0.48000000  0.90890000  0.74460000  1
  H  H66  1  0.84430000  0.58370000  0.98200000  1
  H  H67  1  0.36230000  0.60170000  0.01800000  1
  H  H68  1  0.31170000  0.19870000  0.11000000  1
  H  H69  1  0.70170000  0.08870000  0.89000000  1
  H  H70  1  0.00600000  0.23130000  0.17240000  1
  H  H71  1  0.33360000  0.05890000  0.82760000  1
  H  H72  1  0.58870000  0.19990000  0.03160000  1
  H  H73  1  0.05710000  0.16830000  0.96840000  1
  H  H74  1  0.78200000  0.42430000  0.35240000  1
  H  H75  1  0.92960000  0.07190000  0.64760000  1
  H  H76  1  0.42960000  0.57570000  0.64760000  1
  H  H77  1  0.28200000  0.92810000  0.35240000  1
  H  H78  1  0.55710000  0.80010000  0.96840000  1
  H  H79  1  0.08870000  0.83170000  0.03160000  1
  H  H80  1  0.83360000  0.76870000  0.82760000  1
  H  H81  1  0.50600000  0.94110000  0.17240000  1
  H  H82  1  0.20170000  0.80130000  0.89000000  1
  H  H83  1  0.81170000  0.91130000  0.11000000  1
  H  H84  1  0.86230000  0.41630000  0.01800000  1
  H  H85  1  0.34430000  0.39830000  0.98200000  1
  H  H86  1  0.98000000  0.83570000  0.74460000  1
  H  H87  1  0.73540000  0.09110000  0.25540000  1
  N  N88  1  0.10890000  0.03910000  0.04780000  1
  N  N89  1  0.56110000  0.99130000  0.95220000  1
  N  N90  1  0.85940000  0.04720000  0.04620000  1
  N  N91  1  0.31320000  0.00100000  0.95380000  1
  N  N92  1  0.81320000  0.95280000  0.95380000  1
  N  N93  1  0.35940000  0.99900000  0.04620000  1
  N  N94  1  0.06110000  0.96090000  0.95220000  1
  N  N95  1  0.60890000  0.00870000  0.04780000  1
  O  O96  1  0.36470000  0.25180000  0.47760000  1
  O  O97  1  0.38710000  0.77420000  0.52240000  1
  O  O98  1  0.15060000  0.50630000  0.87760000  1
  O  O99  1  0.77300000  0.62870000  0.12240000  1
  O  O100  1  0.92600000  0.49660000  0.85100000  1
  O  O101  1  0.57500000  0.64560000  0.14900000  1
  O  O102  1  0.49290000  0.47710000  0.75580000  1
  O  O103  1  0.23710000  0.72130000  0.24420000  1
  O  O104  1  0.55570000  0.59900000  0.93540000  1
  O  O105  1  0.12030000  0.66360000  0.06460000  1
  O  O106  1  0.86770000  0.40380000  0.51480000  1
  O  O107  1  0.85290000  0.88900000  0.48520000  1
  O  O108  1  0.85970000  0.56100000  0.72720000  1
  O  O109  1  0.63250000  0.83380000  0.27280000  1
  O  O110  1  0.09620000  0.58900000  0.77520000  1
  O  O111  1  0.82100000  0.81380000  0.22480000  1
  O  O112  1  0.32100000  0.41100000  0.22480000  1
  O  O113  1  0.59620000  0.18620000  0.77520000  1
  O  O114  1  0.13250000  0.43900000  0.27280000  1
  O  O115  1  0.35970000  0.16620000  0.72720000  1
  O  O116  1  0.35290000  0.59620000  0.48520000  1
  O  O117  1  0.36770000  0.11100000  0.51480000  1
  O  O118  1  0.62030000  0.40100000  0.06460000  1
  O  O119  1  0.05570000  0.33640000  0.93540000  1
  O  O120  1  0.73710000  0.52290000  0.24420000  1
  O  O121  1  0.99290000  0.27870000  0.75580000  1
  O  O122  1  0.07500000  0.50340000  0.14900000  1
  O  O123  1  0.42600000  0.35440000  0.85100000  1
  O  O124  1  0.27300000  0.49370000  0.12240000  1
  O  O125  1  0.65060000  0.37130000  0.87760000  1
  O  O126  1  0.88710000  0.74820000  0.52240000  1
  O  O127  1  0.86470000  0.22580000  0.47760000  1
  Sm  Sm128  1  0.95951000  0.40190000  0.68596000  1
  Sm  Sm129  1  0.77355000  0.71594000  0.31404000  1
  Sm  Sm130  1  0.27355000  0.59810000  0.31404000  1
  Sm  Sm131  1  0.45951000  0.28406000  0.68596000  1
  Zn  Zn132  1  0.61790000  0.50000000  0.00000000  1
  Zn  Zn133  1  0.11790000  0.50000000  0.00000000  1
