# generated using pymatgen
data_Cu2H8C7N6
_symmetry_space_group_name_H-M   'P 1'
_cell_length_a   11.62780000
_cell_length_b   14.33638638
_cell_length_c   15.43967929
_cell_angle_alpha   65.41696553
_cell_angle_beta   67.87949968
_cell_angle_gamma   66.07537086
_symmetry_Int_Tables_number   1
_chemical_formula_structural   Cu2H8C7N6
_chemical_formula_sum   'Cu16 H64 C56 N48'
_cell_volume   2071.45219936
_cell_formula_units_Z   8
loop_
 _symmetry_equiv_pos_site_id
 _symmetry_equiv_pos_as_xyz
  1  'x, y, z'
loop_
 _atom_site_type_symbol
 _atom_site_label
 _atom_site_symmetry_multiplicity
 _atom_site_fract_x
 _atom_site_fract_y
 _atom_site_fract_z
 _atom_site_occupancy
  C  C0  1  0.82550000  0.37750000  0.52930000  1
  C  C1  1  0.26770000  0.87750000  0.02930000  1
  C  C2  1  0.83900000  0.45590000  0.42770000  1
  C  C3  1  0.27740000  0.95590000  0.92770000  1
  C  C4  1  0.80840000  0.27360000  0.54460000  1
  C  C5  1  0.37340000  0.77360000  0.04460000  1
  C  C6  1  0.86850000  0.53470000  0.27330000  1
  C  C7  1  0.32350000  0.03470000  0.77330000  1
  C  C8  1  0.02550000  0.04330000  0.75890000  1
  C  C9  1  0.17230000  0.54330000  0.25890000  1
  C  C10  1  0.07580000  0.11280000  0.65840000  1
  C  C11  1  0.15300000  0.61280000  0.15840000  1
  C  C12  1  0.76210000  0.12460000  0.61780000  1
  C  C13  1  0.49550000  0.62460000  0.11780000  1
  C  C14  1  0.71140000  0.03650000  0.69550000  1
  C  C15  1  0.55660000  0.53650000  0.19550000  1
  C  C16  1  0.89340000  0.55590000  0.16550000  1
  C  C17  1  0.38520000  0.05590000  0.66550000  1
  C  C18  1  0.00530000  0.94230000  0.76830000  1
  C  C19  1  0.28410000  0.44230000  0.26830000  1
  C  C20  1  0.14870000  0.18000000  0.50460000  1
  C  C21  1  0.16670000  0.68000000  0.00460000  1
  C  C22  1  0.94340000  0.80100000  0.83320000  1
  C  C23  1  0.42240000  0.30100000  0.33320000  1
  C  C24  1  0.88180000  0.71600000  0.90320000  1
  C  C25  1  0.49900000  0.21600000  0.40320000  1
  C  C26  1  0.19000000  0.19680000  0.39680000  1
  C  C27  1  0.21640000  0.69680000  0.89680000  1
  C  C28  1  0.81000000  0.80320000  0.60320000  1
  C  C29  1  0.78360000  0.30320000  0.10320000  1
  C  C30  1  0.11820000  0.28400000  0.09680000  1
  C  C31  1  0.50100000  0.78400000  0.59680000  1
  C  C32  1  0.05660000  0.19900000  0.16680000  1
  C  C33  1  0.57760000  0.69900000  0.66680000  1
  C  C34  1  0.85130000  0.82000000  0.49540000  1
  C  C35  1  0.83330000  0.32000000  0.99540000  1
  C  C36  1  0.99470000  0.05770000  0.23170000  1
  C  C37  1  0.71590000  0.55770000  0.73170000  1
  C  C38  1  0.10660000  0.44410000  0.83450000  1
  C  C39  1  0.61480000  0.94410000  0.33450000  1
  C  C40  1  0.28860000  0.96350000  0.30450000  1
  C  C41  1  0.44340000  0.46350000  0.80450000  1
  C  C42  1  0.23790000  0.87540000  0.38220000  1
  C  C43  1  0.50450000  0.37540000  0.88220000  1
  C  C44  1  0.92420000  0.88720000  0.34160000  1
  C  C45  1  0.84700000  0.38720000  0.84160000  1
  C  C46  1  0.97450000  0.95670000  0.24110000  1
  C  C47  1  0.82770000  0.45670000  0.74110000  1
  C  C48  1  0.13150000  0.46530000  0.72670000  1
  C  C49  1  0.67650000  0.96530000  0.22670000  1
  C  C50  1  0.19160000  0.72640000  0.45540000  1
  C  C51  1  0.62660000  0.22640000  0.95540000  1
  C  C52  1  0.16100000  0.54410000  0.57230000  1
  C  C53  1  0.72260000  0.04410000  0.07230000  1
  C  C54  1  0.17450000  0.62250000  0.47070000  1
  C  C55  1  0.73230000  0.12250000  0.97070000  1
  Cu  Cu56  1  0.89124000  0.75000000  0.25000000  1
  Cu  Cu57  1  0.67748000  0.25000000  0.75000000  1
  Cu  Cu58  1  0.32252000  0.75000000  0.25000000  1
  Cu  Cu59  1  0.10876000  0.25000000  0.75000000  1
  Cu  Cu60  1  0.92182000  0.87223000  0.99189000  1
  Cu  Cu61  1  0.21406000  0.37223000  0.49189000  1
  Cu  Cu62  1  0.91996000  0.29684000  0.32770000  1
  Cu  Cu63  1  0.45550000  0.79684000  0.82770000  1
  Cu  Cu64  1  0.12492000  0.96540000  0.55002000  1
  Cu  Cu65  1  0.35966000  0.46540000  0.05002000  1
  Cu  Cu66  1  0.87508000  0.03460000  0.44998000  1
  Cu  Cu67  1  0.64034000  0.53460000  0.94998000  1
  Cu  Cu68  1  0.08004000  0.70316000  0.67230000  1
  Cu  Cu69  1  0.54450000  0.20316000  0.17230000  1
  Cu  Cu70  1  0.07818000  0.12777000  0.00811000  1
  Cu  Cu71  1  0.78594000  0.62777000  0.50811000  1
  H  H72  1  0.75010000  0.41360000  0.57360000  1
  H  H73  1  0.26270000  0.91360000  0.07360000  1
  H  H74  1  0.90360000  0.36100000  0.55080000  1
  H  H75  1  0.18460000  0.86100000  0.05080000  1
  H  H76  1  0.94130000  0.08790000  0.78910000  1
  H  H77  1  0.18170000  0.58790000  0.28910000  1
  H  H78  1  0.08640000  0.02320000  0.79880000  1
  H  H79  1  0.09160000  0.52320000  0.29880000  1
  H  H80  1  0.61630000  0.06270000  0.71570000  1
  H  H81  1  0.60530000  0.56270000  0.21570000  1
  H  H82  1  0.85870000  0.63290000  0.13370000  1
  H  H83  1  0.37470000  0.13290000  0.63370000  1
  H  H84  1  0.74700000  0.01160000  0.75220000  1
  H  H85  1  0.48920000  0.51160000  0.25220000  1
  H  H86  1  0.79610000  0.74860000  0.94080000  1
  H  H87  1  0.51450000  0.24860000  0.44080000  1
  H  H88  1  0.85070000  0.51610000  0.15530000  1
  H  H89  1  0.47790000  0.01610000  0.65530000  1
  H  H90  1  0.98720000  0.53240000  0.13700000  1
  H  H91  1  0.34340000  0.03240000  0.63700000  1
  H  H92  1  0.73720000  0.97690000  0.66990000  1
  H  H93  1  0.61600000  0.47690000  0.16990000  1
  H  H94  1  0.17400000  0.27360000  0.36120000  1
  H  H95  1  0.19120000  0.77360000  0.86120000  1
  H  H96  1  0.93640000  0.66470000  0.94830000  1
  H  H97  1  0.45060000  0.16470000  0.44830000  1
  H  H98  1  0.14040000  0.16780000  0.38040000  1
  H  H99  1  0.31140000  0.66780000  0.88040000  1
  H  H100  1  0.87210000  0.67890000  0.86670000  1
  H  H101  1  0.58230000  0.17890000  0.36670000  1
  H  H102  1  0.17950000  0.65960000  0.87800000  1
  H  H103  1  0.28290000  0.15960000  0.37800000  1
  H  H104  1  0.82050000  0.34040000  0.12200000  1
  H  H105  1  0.71710000  0.84040000  0.62200000  1
  H  H106  1  0.12790000  0.32110000  0.13330000  1
  H  H107  1  0.41770000  0.82110000  0.63330000  1
  H  H108  1  0.85960000  0.83220000  0.61960000  1
  H  H109  1  0.68860000  0.33220000  0.11960000  1
  H  H110  1  0.06360000  0.33530000  0.05170000  1
  H  H111  1  0.54940000  0.83530000  0.55170000  1
  H  H112  1  0.82600000  0.72640000  0.63880000  1
  H  H113  1  0.80880000  0.22640000  0.13880000  1
  H  H114  1  0.26280000  0.02310000  0.33010000  1
  H  H115  1  0.38400000  0.52310000  0.83010000  1
  H  H116  1  0.01280000  0.46760000  0.86300000  1
  H  H117  1  0.65660000  0.96760000  0.36300000  1
  H  H118  1  0.14930000  0.48390000  0.84470000  1
  H  H119  1  0.52210000  0.98390000  0.34470000  1
  H  H120  1  0.20390000  0.25140000  0.05920000  1
  H  H121  1  0.48550000  0.75140000  0.55920000  1
  H  H122  1  0.25300000  0.98840000  0.24780000  1
  H  H123  1  0.51080000  0.48840000  0.74780000  1
  H  H124  1  0.14130000  0.36710000  0.86630000  1
  H  H125  1  0.62530000  0.86710000  0.36630000  1
  H  H126  1  0.38370000  0.93730000  0.28430000  1
  H  H127  1  0.39470000  0.43730000  0.78430000  1
  H  H128  1  0.91360000  0.97680000  0.20120000  1
  H  H129  1  0.90840000  0.47680000  0.70120000  1
  H  H130  1  0.05870000  0.91210000  0.21090000  1
  H  H131  1  0.81830000  0.41210000  0.71090000  1
  H  H132  1  0.09640000  0.63900000  0.44920000  1
  H  H133  1  0.81540000  0.13900000  0.94920000  1
  H  H134  1  0.24990000  0.58640000  0.42640000  1
  H  H135  1  0.73730000  0.08640000  0.92640000  1
  N  N136  1  0.82193000  0.55794000  0.41340000  1
  N  N137  1  0.20673000  0.05794000  0.91340000  1
  N  N138  1  0.84059000  0.60942000  0.31320000  1
  N  N139  1  0.23679000  0.10942000  0.81320000  1
  N  N140  1  0.05717000  0.70396000  0.14630000  1
  N  N141  1  0.09257000  0.20396000  0.64630000  1
  N  N142  1  0.75330000  0.21430000  0.63390000  1
  N  N143  1  0.39850000  0.71430000  0.13390000  1
  N  N144  1  0.06516000  0.74768000  0.04700000  1
  N  N145  1  0.14016000  0.24768000  0.54700000  1
  N  N146  1  0.86880000  0.43680000  0.34180000  1
  N  N147  1  0.35260000  0.93680000  0.84180000  1
  N  N148  1  0.94027000  0.88516000  0.85530000  1
  N  N149  1  0.31927000  0.38516000  0.35530000  1
  N  N150  1  0.84803000  0.22614000  0.47700000  1
  N  N151  1  0.44883000  0.72614000  0.97700000  1
  N  N152  1  0.10992000  0.09386000  0.57130000  1
  N  N153  1  0.22492000  0.59386000  0.07130000  1
  N  N154  1  0.81940000  0.12950000  0.52430000  1
  N  N155  1  0.52680000  0.62950000  0.02430000  1
  N  N156  1  0.04597000  0.89806000  0.69860000  1
  N  N157  1  0.35737000  0.39806000  0.19860000  1
  N  N158  1  0.00685000  0.80640000  0.74030000  1
  N  N159  1  0.44645000  0.30640000  0.24030000  1
  N  N160  1  0.99315000  0.19360000  0.25970000  1
  N  N161  1  0.55355000  0.69360000  0.75970000  1
  N  N162  1  0.95403000  0.10194000  0.30140000  1
  N  N163  1  0.64263000  0.60194000  0.80140000  1
  N  N164  1  0.18060000  0.87050000  0.47570000  1
  N  N165  1  0.47320000  0.37050000  0.97570000  1
  N  N166  1  0.89008000  0.90614000  0.42870000  1
  N  N167  1  0.77508000  0.40614000  0.92870000  1
  N  N168  1  0.15197000  0.77386000  0.52300000  1
  N  N169  1  0.55117000  0.27386000  0.02300000  1
  N  N170  1  0.05973000  0.11484000  0.14470000  1
  N  N171  1  0.68073000  0.61484000  0.64470000  1
  N  N172  1  0.13120000  0.56320000  0.65820000  1
  N  N173  1  0.64740000  0.06320000  0.15820000  1
  N  N174  1  0.93484000  0.25232000  0.95300000  1
  N  N175  1  0.85984000  0.75232000  0.45300000  1
  N  N176  1  0.24670000  0.78570000  0.36610000  1
  N  N177  1  0.60150000  0.28570000  0.86610000  1
  N  N178  1  0.94283000  0.29604000  0.85370000  1
  N  N179  1  0.90743000  0.79604000  0.35370000  1
  N  N180  1  0.15941000  0.39058000  0.68680000  1
  N  N181  1  0.76321000  0.89058000  0.18680000  1
  N  N182  1  0.17807000  0.44206000  0.58660000  1
  N  N183  1  0.79327000  0.94206000  0.08660000  1
