# generated using pymatgen
data_Cd3H8C32(NO6)4
_symmetry_space_group_name_H-M   'P 1'
_cell_length_a   13.07190000
_cell_length_b   16.89380000
_cell_length_c   22.53400000
_cell_angle_alpha   90.00000000
_cell_angle_beta   90.00000000
_cell_angle_gamma   99.90800000
_symmetry_Int_Tables_number   1
_chemical_formula_structural   Cd3H8C32(NO6)4
_chemical_formula_sum   'Cd12 H32 C128 N16 O96'
_cell_volume   4902.05521068
_cell_formula_units_Z   4
loop_
 _symmetry_equiv_pos_site_id
 _symmetry_equiv_pos_as_xyz
  1  'x, y, z'
loop_
 _atom_site_type_symbol
 _atom_site_label
 _atom_site_symmetry_multiplicity
 _atom_site_fract_x
 _atom_site_fract_y
 _atom_site_fract_z
 _atom_site_occupancy
  Cd  Cd0  1  0.83387000  0.82872000  0.85351000  1
  Cd  Cd1  1  0.83387000  0.32872000  0.64649000  1
  Cd  Cd2  1  0.69401000  0.54720000  0.25185000  1
  Cd  Cd3  1  0.69401000  0.04720000  0.24815000  1
  Cd  Cd4  1  0.51912000  0.89546000  0.84597000  1
  Cd  Cd5  1  0.51912000  0.39546000  0.65403000  1
  Cd  Cd6  1  0.48088000  0.60454000  0.34597000  1
  Cd  Cd7  1  0.48088000  0.10454000  0.15403000  1
  Cd  Cd8  1  0.30599000  0.95280000  0.75185000  1
  Cd  Cd9  1  0.30599000  0.45280000  0.74815000  1
  Cd  Cd10  1  0.16613000  0.67128000  0.35351000  1
  Cd  Cd11  1  0.16613000  0.17128000  0.14649000  1
  H  H12  1  0.96380000  0.10490000  0.92490000  1
  H  H13  1  0.96380000  0.60490000  0.57510000  1
  H  H14  1  0.90170000  0.83520000  0.30590000  1
  H  H15  1  0.90170000  0.33520000  0.19410000  1
  H  H16  1  0.77610000  0.56480000  0.75420000  1
  H  H17  1  0.77610000  0.06480000  0.74580000  1
  H  H18  1  0.76650000  0.47050000  0.46420000  1
  H  H19  1  0.76650000  0.97050000  0.03580000  1
  H  H20  1  0.69850000  0.15930000  0.83950000  1
  H  H21  1  0.69850000  0.65930000  0.66050000  1
  H  H22  1  0.66490000  0.86730000  0.41000000  1
  H  H23  1  0.66490000  0.36730000  0.09000000  1
  H  H24  1  0.60160000  0.57670000  0.89910000  1
  H  H25  1  0.60160000  0.07670000  0.60090000  1
  H  H26  1  0.57830000  0.31160000  0.27510000  1
  H  H27  1  0.57830000  0.81160000  0.22490000  1
  H  H28  1  0.42170000  0.18840000  0.77510000  1
  H  H29  1  0.42170000  0.68840000  0.72490000  1
  H  H30  1  0.39840000  0.92330000  0.39910000  1
  H  H31  1  0.39840000  0.42330000  0.10090000  1
  H  H32  1  0.33510000  0.63270000  0.91000000  1
  H  H33  1  0.33510000  0.13270000  0.59000000  1
  H  H34  1  0.30150000  0.34070000  0.33950000  1
  H  H35  1  0.30150000  0.84070000  0.16050000  1
  H  H36  1  0.23350000  0.02950000  0.96420000  1
  H  H37  1  0.23350000  0.52950000  0.53580000  1
  H  H38  1  0.22390000  0.93520000  0.25420000  1
  H  H39  1  0.22390000  0.43520000  0.24580000  1
  H  H40  1  0.09830000  0.66480000  0.80590000  1
  H  H41  1  0.09830000  0.16480000  0.69410000  1
  H  H42  1  0.03620000  0.39510000  0.42490000  1
  H  H43  1  0.03620000  0.89510000  0.07510000  1
  C  C44  1  0.97820000  0.72270000  0.36640000  1
  C  C45  1  0.97820000  0.22270000  0.13360000  1
  C  C46  1  0.91770000  0.10080000  0.95660000  1
  C  C47  1  0.91770000  0.60080000  0.54340000  1
  C  C48  1  0.90530000  0.16810000  0.98930000  1
  C  C49  1  0.90530000  0.66810000  0.51070000  1
  C  C50  1  0.88480000  0.76140000  0.37734000  1
  C  C51  1  0.88480000  0.26140000  0.12266000  1
  C  C52  1  0.86260000  0.82240000  0.34011000  1
  C  C53  1  0.86260000  0.32240000  0.15989000  1
  C  C54  1  0.86170000  0.95550000  0.93300000  1
  C  C55  1  0.86170000  0.45550000  0.56700000  1
  C  C56  1  0.85910000  0.02650000  0.97260000  1
  C  C57  1  0.85910000  0.52650000  0.52740000  1
  C  C58  1  0.83930000  0.66550000  0.46277000  1
  C  C59  1  0.83930000  0.16550000  0.03723000  1
  C  C60  1  0.82140000  0.73720000  0.42741000  1
  C  C61  1  0.82140000  0.23720000  0.07259000  1
  C  C62  1  0.79940000  0.52070000  0.47709000  1
  C  C63  1  0.79940000  0.02070000  0.02291000  1
  C  C64  1  0.78710000  0.58990000  0.44431000  1
  C  C65  1  0.78710000  0.08990000  0.05569000  1
  C  C66  1  0.78370000  0.86380000  0.35353000  1
  C  C67  1  0.78370000  0.36380000  0.14647000  1
  C  C68  1  0.76240000  0.93100000  0.31410000  1
  C  C69  1  0.76240000  0.43100000  0.18590000  1
  C  C70  1  0.73950000  0.91070000  0.76855000  1
  C  C71  1  0.73950000  0.41070000  0.73145000  1
  C  C72  1  0.73870000  0.77760000  0.43679000  1
  C  C73  1  0.73870000  0.27760000  0.06321000  1
  C  C74  1  0.73650000  0.67390000  0.83120000  1
  C  C75  1  0.73650000  0.17390000  0.66880000  1
  C  C76  1  0.73060000  0.53970000  0.78288000  1
  C  C77  1  0.73060000  0.03970000  0.71712000  1
  C  C78  1  0.71990000  0.84080000  0.40145000  1
  C  C79  1  0.71990000  0.34080000  0.09855000  1
  C  C80  1  0.71830000  0.58040000  0.39029000  1
  C  C81  1  0.71830000  0.08040000  0.10971000  1
  C  C82  1  0.69920000  0.45730000  0.78096000  1
  C  C83  1  0.69920000  0.95730000  0.71904000  1
  C  C84  1  0.69520000  0.58530000  0.82721000  1
  C  C85  1  0.69520000  0.08530000  0.67279000  1
  C  C86  1  0.67730000  0.27470000  0.83498000  1
  C  C87  1  0.67730000  0.77470000  0.66502000  1
  C  C88  1  0.65130000  0.19230000  0.82896000  1
  C  C89  1  0.65130000  0.69230000  0.67104000  1
  C  C90  1  0.63520000  0.41650000  0.82483000  1
  C  C91  1  0.63520000  0.91650000  0.67517000  1
  C  C92  1  0.62740000  0.54690000  0.86970000  1
  C  C93  1  0.62740000  0.04690000  0.63030000  1
  C  C94  1  0.60740000  0.32720000  0.82218000  1
  C  C95  1  0.60740000  0.82720000  0.67782000  1
  C  C96  1  0.59880000  0.46530000  0.86850000  1
  C  C97  1  0.59880000  0.96530000  0.63150000  1
  C  C98  1  0.57020000  0.15670000  0.28780000  1
  C  C99  1  0.57020000  0.65670000  0.21220000  1
  C  C100  1  0.55430000  0.15910000  0.80708000  1
  C  C101  1  0.55430000  0.65910000  0.69292000  1
  C  C102  1  0.51930000  0.07010000  0.80200000  1
  C  C103  1  0.51930000  0.57010000  0.69800000  1
  C  C104  1  0.51440000  0.29000000  0.29160000  1
  C  C105  1  0.51440000  0.79000000  0.20840000  1
  C  C106  1  0.51060000  0.29190000  0.80034000  1
  C  C107  1  0.51060000  0.79190000  0.69966000  1
  C  C108  1  0.48940000  0.20810000  0.30034000  1
  C  C109  1  0.48940000  0.70810000  0.19966000  1
  C  C110  1  0.48560000  0.21000000  0.79160000  1
  C  C111  1  0.48560000  0.71000000  0.70840000  1
  C  C112  1  0.48070000  0.42990000  0.30200000  1
  C  C113  1  0.48070000  0.92990000  0.19800000  1
  C  C114  1  0.44570000  0.34090000  0.30708000  1
  C  C115  1  0.44570000  0.84090000  0.19292000  1
  C  C116  1  0.42980000  0.34330000  0.78780000  1
  C  C117  1  0.42980000  0.84330000  0.71220000  1
  C  C118  1  0.40120000  0.03470000  0.36850000  1
  C  C119  1  0.40120000  0.53470000  0.13150000  1
  C  C120  1  0.39260000  0.17280000  0.32218000  1
  C  C121  1  0.39260000  0.67280000  0.17782000  1
  C  C122  1  0.37260000  0.95310000  0.36970000  1
  C  C123  1  0.37260000  0.45310000  0.13030000  1
  C  C124  1  0.36480000  0.08350000  0.32483000  1
  C  C125  1  0.36480000  0.58350000  0.17517000  1
  C  C126  1  0.34870000  0.30770000  0.32896000  1
  C  C127  1  0.34870000  0.80770000  0.17104000  1
  C  C128  1  0.32270000  0.22530000  0.33498000  1
  C  C129  1  0.32270000  0.72530000  0.16502000  1
  C  C130  1  0.30480000  0.91470000  0.32721000  1
  C  C131  1  0.30480000  0.41470000  0.17279000  1
  C  C132  1  0.30080000  0.04270000  0.28096000  1
  C  C133  1  0.30080000  0.54270000  0.21904000  1
  C  C134  1  0.28170000  0.91960000  0.89029000  1
  C  C135  1  0.28170000  0.41960000  0.60971000  1
  C  C136  1  0.28010000  0.65920000  0.90145000  1
  C  C137  1  0.28010000  0.15920000  0.59855000  1
  C  C138  1  0.26940000  0.96030000  0.28288000  1
  C  C139  1  0.26940000  0.46030000  0.21712000  1
  C  C140  1  0.26350000  0.82610000  0.33120000  1
  C  C141  1  0.26350000  0.32610000  0.16880000  1
  C  C142  1  0.26130000  0.72240000  0.93679000  1
  C  C143  1  0.26130000  0.22240000  0.56321000  1
  C  C144  1  0.26050000  0.58930000  0.26855000  1
  C  C145  1  0.26050000  0.08930000  0.23145000  1
  C  C146  1  0.23760000  0.56900000  0.81410000  1
  C  C147  1  0.23760000  0.06900000  0.68590000  1
  C  C148  1  0.21630000  0.63620000  0.85353000  1
  C  C149  1  0.21630000  0.13620000  0.64647000  1
  C  C150  1  0.21290000  0.91010000  0.94431000  1
  C  C151  1  0.21290000  0.41010000  0.55569000  1
  C  C152  1  0.20060000  0.97930000  0.97709000  1
  C  C153  1  0.20060000  0.47930000  0.52291000  1
  C  C154  1  0.17860000  0.76280000  0.92741000  1
  C  C155  1  0.17860000  0.26280000  0.57259000  1
  C  C156  1  0.16070000  0.83450000  0.96277000  1
  C  C157  1  0.16070000  0.33450000  0.53723000  1
  C  C158  1  0.14090000  0.47350000  0.47260000  1
  C  C159  1  0.14090000  0.97350000  0.02740000  1
  C  C160  1  0.13830000  0.54450000  0.43300000  1
  C  C161  1  0.13830000  0.04450000  0.06700000  1
  C  C162  1  0.13740000  0.67760000  0.84011000  1
  C  C163  1  0.13740000  0.17760000  0.65989000  1
  C  C164  1  0.11520000  0.73860000  0.87734000  1
  C  C165  1  0.11520000  0.23860000  0.62266000  1
  C  C166  1  0.09470000  0.33190000  0.48930000  1
  C  C167  1  0.09470000  0.83190000  0.01070000  1
  C  C168  1  0.08230000  0.39920000  0.45660000  1
  C  C169  1  0.08230000  0.89920000  0.04340000  1
  C  C170  1  0.02180000  0.77730000  0.86640000  1
  C  C171  1  0.02180000  0.27730000  0.63360000  1
  N  N172  1  0.96730000  0.24450000  0.97030000  1
  N  N173  1  0.96730000  0.74450000  0.52970000  1
  N  N174  1  0.78250000  0.30510000  0.85890000  1
  N  N175  1  0.78250000  0.80510000  0.64110000  1
  N  N176  1  0.66480000  0.75140000  0.48455000  1
  N  N177  1  0.66480000  0.25140000  0.01545000  1
  N  N178  1  0.52990000  0.42860000  0.91640000  1
  N  N179  1  0.52990000  0.92860000  0.58360000  1
  N  N180  1  0.47010000  0.07140000  0.41640000  1
  N  N181  1  0.47010000  0.57140000  0.08360000  1
  N  N182  1  0.33520000  0.74860000  0.98455000  1
  N  N183  1  0.33520000  0.24860000  0.51545000  1
  N  N184  1  0.21750000  0.19490000  0.35890000  1
  N  N185  1  0.21750000  0.69490000  0.14110000  1
  N  N186  1  0.03270000  0.25550000  0.47030000  1
  N  N187  1  0.03270000  0.75550000  0.02970000  1
  O  O188  1  0.98160000  0.68150000  0.31981000  1
  O  O189  1  0.98160000  0.18150000  0.18019000  1
  O  O190  1  0.95270000  0.25840000  0.44090000  1
  O  O191  1  0.95270000  0.75840000  0.05910000  1
  O  O192  1  0.95100000  0.76530000  0.90355000  1
  O  O193  1  0.95100000  0.26530000  0.59645000  1
  O  O194  1  0.93900000  0.30750000  0.98337000  1
  O  O195  1  0.93900000  0.80750000  0.51663000  1
  O  O196  1  0.92800000  0.95950000  0.89447000  1
  O  O197  1  0.92800000  0.45950000  0.60553000  1
  O  O198  1  0.84760000  0.26310000  0.85388000  1
  O  O199  1  0.84760000  0.76310000  0.64612000  1
  O  O200  1  0.83420000  0.90750000  0.76901000  1
  O  O201  1  0.83420000  0.40750000  0.73099000  1
  O  O202  1  0.80240000  0.70537000  0.79502000  1
  O  O203  1  0.80240000  0.20537000  0.70498000  1
  O  O204  1  0.79860000  0.37080000  0.88210000  1
  O  O205  1  0.79860000  0.87080000  0.61790000  1
  O  O206  1  0.79140000  0.93400000  0.26202000  1
  O  O207  1  0.79140000  0.43400000  0.23798000  1
  O  O208  1  0.79060000  0.89522000  0.93921000  1
  O  O209  1  0.79060000  0.39522000  0.56079000  1
  O  O210  1  0.75110000  0.54970000  0.34564000  1
  O  O211  1  0.75110000  0.04970000  0.15436000  1
  O  O212  1  0.71560000  0.98210000  0.33645000  1
  O  O213  1  0.71560000  0.48210000  0.16355000  1
  O  O214  1  0.70460000  0.71397000  0.87336000  1
  O  O215  1  0.70460000  0.21397000  0.62664000  1
  O  O216  1  0.69640000  0.22190000  0.97058000  1
  O  O217  1  0.69640000  0.72190000  0.52942000  1
  O  O218  1  0.67900000  0.87774000  0.80747000  1
  O  O219  1  0.67900000  0.37774000  0.69253000  1
  O  O220  1  0.63460000  0.60570000  0.39515000  1
  O  O221  1  0.63460000  0.10570000  0.10485000  1
  O  O222  1  0.61920000  0.13350000  0.32780000  1
  O  O223  1  0.61920000  0.63350000  0.17220000  1
  O  O224  1  0.58350000  0.63760000  0.26594000  1
  O  O225  1  0.58350000  0.13760000  0.23406000  1
  O  O226  1  0.57370000  0.75830000  0.47638000  1
  O  O227  1  0.57370000  0.25830000  0.02362000  1
  O  O228  1  0.56530000  0.02655000  0.83265000  1
  O  O229  1  0.56530000  0.52655000  0.66735000  1
  O  O230  1  0.55360000  0.45300000  0.26700000  1
  O  O231  1  0.55360000  0.95300000  0.23300000  1
  O  O232  1  0.53680000  0.36150000  0.93280000  1
  O  O233  1  0.53680000  0.86150000  0.56720000  1
  O  O234  1  0.52860000  0.03170000  0.43810000  1
  O  O235  1  0.52860000  0.53170000  0.06190000  1
  O  O236  1  0.47140000  0.46830000  0.93810000  1
  O  O237  1  0.47140000  0.96830000  0.56190000  1
  O  O238  1  0.46320000  0.13850000  0.43280000  1
  O  O239  1  0.46320000  0.63850000  0.06720000  1
  O  O240  1  0.44640000  0.04700000  0.76700000  1
  O  O241  1  0.44640000  0.54700000  0.73300000  1
  O  O242  1  0.43470000  0.47345000  0.33265000  1
  O  O243  1  0.43470000  0.97345000  0.16735000  1
  O  O244  1  0.42630000  0.74170000  0.97638000  1
  O  O245  1  0.42630000  0.24170000  0.52362000  1
  O  O246  1  0.41650000  0.86240000  0.76594000  1
  O  O247  1  0.41650000  0.36240000  0.73406000  1
  O  O248  1  0.38080000  0.36650000  0.82780000  1
  O  O249  1  0.38080000  0.86650000  0.67220000  1
  O  O250  1  0.36540000  0.89430000  0.89515000  1
  O  O251  1  0.36540000  0.39430000  0.60485000  1
  O  O252  1  0.32100000  0.62226000  0.30747000  1
  O  O253  1  0.32100000  0.12226000  0.19253000  1
  O  O254  1  0.30360000  0.27810000  0.47058000  1
  O  O255  1  0.30360000  0.77810000  0.02942000  1
  O  O256  1  0.29540000  0.78603000  0.37336000  1
  O  O257  1  0.29540000  0.28603000  0.12664000  1
  O  O258  1  0.28440000  0.51790000  0.83645000  1
  O  O259  1  0.28440000  0.01790000  0.66355000  1
  O  O260  1  0.24890000  0.95030000  0.84564000  1
  O  O261  1  0.24890000  0.45030000  0.65436000  1
  O  O262  1  0.20940000  0.60478000  0.43921000  1
  O  O263  1  0.20940000  0.10478000  0.06079000  1
  O  O264  1  0.20860000  0.56600000  0.76202000  1
  O  O265  1  0.20860000  0.06600000  0.73798000  1
  O  O266  1  0.20140000  0.12920000  0.38210000  1
  O  O267  1  0.20140000  0.62920000  0.11790000  1
  O  O268  1  0.19760000  0.79463000  0.29502000  1
  O  O269  1  0.19760000  0.29463000  0.20498000  1
  O  O270  1  0.16580000  0.59250000  0.26901000  1
  O  O271  1  0.16580000  0.09250000  0.23099000  1
  O  O272  1  0.15240000  0.23690000  0.35388000  1
  O  O273  1  0.15240000  0.73690000  0.14612000  1
  O  O274  1  0.07200000  0.54050000  0.39447000  1
  O  O275  1  0.07200000  0.04050000  0.10553000  1
  O  O276  1  0.06100000  0.19250000  0.48337000  1
  O  O277  1  0.06100000  0.69250000  0.01663000  1
  O  O278  1  0.04900000  0.73470000  0.40355000  1
  O  O279  1  0.04900000  0.23470000  0.09645000  1
  O  O280  1  0.04730000  0.24160000  0.94090000  1
  O  O281  1  0.04730000  0.74160000  0.55910000  1
  O  O282  1  0.01840000  0.81850000  0.81981000  1
  O  O283  1  0.01840000  0.31850000  0.68019000  1
