# generated using pymatgen
data_Mn8H84C87(N15O7)2
_symmetry_space_group_name_H-M   'P 1'
_cell_length_a   19.37170000
_cell_length_b   19.37170000
_cell_length_c   20.80125995
_cell_angle_alpha   62.24850191
_cell_angle_beta   62.24850191
_cell_angle_gamma   60.00000000
_symmetry_Int_Tables_number   1
_chemical_formula_structural   Mn8H84C87(N15O7)2
_chemical_formula_sum   'Mn16 H168 C174 N60 O28'
_cell_volume   5699.84013769
_cell_formula_units_Z   2
loop_
 _symmetry_equiv_pos_site_id
 _symmetry_equiv_pos_as_xyz
  1  'x, y, z'
loop_
 _atom_site_type_symbol
 _atom_site_label
 _atom_site_symmetry_multiplicity
 _atom_site_fract_x
 _atom_site_fract_y
 _atom_site_fract_z
 _atom_site_occupancy
  C  C0  1  0.89365000  0.60635000  0.25000000  1
  C  C1  1  0.10635000  0.39365000  0.75000000  1
  C  C2  1  0.48318000  0.79918000  0.07106000  1
  C  C3  1  0.29918000  0.98318000  0.57106000  1
  C  C4  1  0.97079000  0.74099000  0.92163000  1
  C  C5  1  0.24099000  0.47079000  0.42163000  1
  C  C6  1  0.15835000  0.10465000  0.09175000  1
  C  C7  1  0.60465000  0.65835000  0.59175000  1
  C  C8  1  0.64023000  0.08573000  0.39651000  1
  C  C9  1  0.58573000  0.14023000  0.89651000  1
  C  C10  1  0.17366000  0.95816000  0.28752000  1
  C  C11  1  0.45816000  0.67366000  0.78752000  1
  C  C12  1  0.57275000  0.98075000  0.64425000  1
  C  C13  1  0.48075000  0.07275000  0.14425000  1
  C  C14  1  0.25000000  0.89365000  0.25000000  1
  C  C15  1  0.39365000  0.75000000  0.75000000  1
  C  C16  1  0.64389000  0.09769000  0.32463000  1
  C  C17  1  0.59769000  0.14389000  0.82463000  1
  C  C18  1  0.97928000  0.87318000  0.65736000  1
  C  C19  1  0.37318000  0.47928000  0.15736000  1
  C  C20  1  0.76512000  0.97232000  0.32424000  1
  C  C21  1  0.47232000  0.26512000  0.82424000  1
  C  C22  1  0.36659000  0.97079000  0.92163000  1
  C  C23  1  0.47079000  0.86659000  0.42163000  1
  C  C24  1  0.20966000  0.70266000  0.55122000  1
  C  C25  1  0.20266000  0.70966000  0.05122000  1
  C  C26  1  0.58066000  0.17366000  0.28752000  1
  C  C27  1  0.67366000  0.08066000  0.78752000  1
  C  C28  1  0.44014000  0.91424000  0.88608000  1
  C  C29  1  0.41424000  0.94014000  0.38608000  1
  C  C30  1  0.13341000  0.75901000  0.57837000  1
  C  C31  1  0.25901000  0.63341000  0.07837000  1
  C  C32  1  0.70266000  0.53646000  0.55122000  1
  C  C33  1  0.03646000  0.20266000  0.05122000  1
  C  C34  1  0.84737000  0.83827000  0.88029000  1
  C  C35  1  0.33827000  0.34737000  0.38029000  1
  C  C36  1  0.70750000  0.03960000  0.28800000  1
  C  C37  1  0.53960000  0.20750000  0.78800000  1
  C  C38  1  0.91934000  0.54184000  0.21248000  1
  C  C39  1  0.04184000  0.41934000  0.71248000  1
  C  C40  1  0.91424000  0.75954000  0.88608000  1
  C  C41  1  0.25954000  0.41424000  0.38608000  1
  C  C42  1  0.62480000  0.60050000  0.55860000  1
  C  C43  1  0.10050000  0.12480000  0.05860000  1
  C  C44  1  0.26512000  0.43832000  0.82424000  1
  C  C45  1  0.93832000  0.76512000  0.32424000  1
  C  C46  1  0.09769000  0.93379000  0.32463000  1
  C  C47  1  0.43379000  0.59769000  0.82463000  1
  C  C48  1  0.49018000  0.97928000  0.65736000  1
  C  C49  1  0.47928000  0.99018000  0.15736000  1
  C  C50  1  0.08573000  0.87753000  0.39651000  1
  C  C51  1  0.37753000  0.58573000  0.89651000  1
  C  C52  1  0.29034000  0.96354000  0.94878000  1
  C  C53  1  0.46354000  0.79034000  0.44878000  1
  C  C54  1  0.85977000  0.62247000  0.10349000  1
  C  C55  1  0.12247000  0.35977000  0.60349000  1
  C  C56  1  0.21610000  0.62480000  0.55860000  1
  C  C57  1  0.12480000  0.71610000  0.05860000  1
  C  C58  1  0.98075000  0.80225000  0.64425000  1
  C  C59  1  0.30225000  0.48075000  0.14425000  1
  C  C60  1  0.05986000  0.74046000  0.61392000  1
  C  C61  1  0.24046000  0.55986000  0.11392000  1
  C  C62  1  0.56168000  0.52768000  0.17576000  1
  C  C63  1  0.02768000  0.06168000  0.67576000  1
  C  C64  1  0.85611000  0.56621000  0.17537000  1
  C  C65  1  0.06621000  0.35611000  0.67537000  1
  C  C66  1  0.43407000  0.84737000  0.88029000  1
  C  C67  1  0.34737000  0.93407000  0.38029000  1
  C  C68  1  0.00982000  0.62682000  0.84264000  1
  C  C69  1  0.12682000  0.50982000  0.34264000  1
  C  C70  1  0.64525000  0.15835000  0.09175000  1
  C  C71  1  0.65835000  0.14525000  0.59175000  1
  C  C72  1  0.20750000  0.46490000  0.78800000  1
  C  C73  1  0.96490000  0.70750000  0.28800000  1
  C  C74  1  0.03960000  0.96490000  0.28800000  1
  C  C75  1  0.46490000  0.53960000  0.78800000  1
  C  C76  1  0.92725000  0.69775000  0.85575000  1
  C  C77  1  0.19775000  0.42725000  0.35575000  1
  C  C78  1  0.93407000  0.33827000  0.38029000  1
  C  C79  1  0.83827000  0.43407000  0.88029000  1
  C  C80  1  0.71610000  0.10050000  0.05860000  1
  C  C81  1  0.60050000  0.21610000  0.55860000  1
  C  C82  1  0.85475000  0.39535000  0.40825000  1
  C  C83  1  0.89535000  0.35475000  0.90825000  1
  C  C84  1  0.98318000  0.14658000  0.57106000  1
  C  C85  1  0.64658000  0.48318000  0.07106000  1
  C  C86  1  0.85342000  0.70082000  0.42894000  1
  C  C87  1  0.20082000  0.35342000  0.92894000  1
  C  C88  1  0.79918000  0.64658000  0.07106000  1
  C  C89  1  0.14658000  0.29918000  0.57106000  1
  C  C90  1  0.01682000  0.85342000  0.42894000  1
  C  C91  1  0.35342000  0.51682000  0.92894000  1
  C  C92  1  0.14525000  0.60465000  0.59175000  1
  C  C93  1  0.10465000  0.64525000  0.09175000  1
  C  C94  1  0.28390000  0.89950000  0.94140000  1
  C  C95  1  0.39950000  0.78390000  0.44140000  1
  C  C96  1  0.06593000  0.66173000  0.61971000  1
  C  C97  1  0.16173000  0.56593000  0.11971000  1
  C  C98  1  0.07275000  0.30225000  0.14425000  1
  C  C99  1  0.80225000  0.57275000  0.64425000  1
  C  C100  1  0.53510000  0.46040000  0.21200000  1
  C  C101  1  0.96040000  0.03510000  0.71200000  1
  C  C102  1  0.79250000  0.53510000  0.21200000  1
  C  C103  1  0.03510000  0.29250000  0.71200000  1
  C  C104  1  0.35475000  0.84165000  0.90825000  1
  C  C105  1  0.34165000  0.85475000  0.40825000  1
  C  C106  1  0.99018000  0.37318000  0.15736000  1
  C  C107  1  0.87318000  0.49018000  0.65736000  1
  C  C108  1  0.56593000  0.15263000  0.11971000  1
  C  C109  1  0.65263000  0.06593000  0.61971000  1
  C  C110  1  0.14389000  0.43379000  0.82463000  1
  C  C111  1  0.93379000  0.64389000  0.32463000  1
  C  C112  1  0.97232000  0.93832000  0.32424000  1
  C  C113  1  0.43832000  0.47232000  0.82424000  1
  C  C114  1  0.94014000  0.25954000  0.38608000  1
  C  C115  1  0.75954000  0.44014000  0.88608000  1
  C  C116  1  0.69775000  0.51925000  0.85575000  1
  C  C117  1  0.01925000  0.19775000  0.35575000  1
  C  C118  1  0.78390000  0.37520000  0.44140000  1
  C  C119  1  0.87520000  0.28390000  0.94140000  1
  C  C120  1  0.14023000  0.37753000  0.89651000  1
  C  C121  1  0.87753000  0.64023000  0.39651000  1
  C  C122  1  0.70966000  0.03646000  0.05122000  1
  C  C123  1  0.53646000  0.20966000  0.55122000  1
  C  C124  1  0.62247000  0.41427000  0.10349000  1
  C  C125  1  0.91427000  0.12247000  0.60349000  1
  C  C126  1  0.50982000  0.02072000  0.34264000  1
  C  C127  1  0.52072000  0.00982000  0.84264000  1
  C  C128  1  0.56621000  0.40231000  0.17537000  1
  C  C129  1  0.90231000  0.06621000  0.67537000  1
  C  C130  1  0.73488000  0.56168000  0.17576000  1
  C  C131  1  0.06168000  0.23488000  0.67576000  1
  C  C132  1  0.89950000  0.87520000  0.94140000  1
  C  C133  1  0.37520000  0.39950000  0.44140000  1
  C  C134  1  0.74046000  0.58576000  0.61392000  1
  C  C135  1  0.08576000  0.24046000  0.11392000  1
  C  C136  1  0.08066000  0.45816000  0.78752000  1
  C  C137  1  0.95816000  0.58066000  0.28752000  1
  C  C138  1  0.29250000  0.96040000  0.71200000  1
  C  C139  1  0.46040000  0.79250000  0.21200000  1
  C  C140  1  0.66173000  0.65263000  0.61971000  1
  C  C141  1  0.15263000  0.16173000  0.11971000  1
  C  C142  1  0.96354000  0.79734000  0.94878000  1
  C  C143  1  0.29734000  0.46354000  0.44878000  1
  C  C144  1  0.86659000  0.24099000  0.42163000  1
  C  C145  1  0.74099000  0.36659000  0.92163000  1
  C  C146  1  0.55986000  0.08576000  0.11392000  1
  C  C147  1  0.58576000  0.05986000  0.61392000  1
  C  C148  1  0.41934000  0.82634000  0.71248000  1
  C  C149  1  0.32634000  0.91934000  0.21248000  1
  C  C150  1  0.79034000  0.29734000  0.44878000  1
  C  C151  1  0.79734000  0.29034000  0.94878000  1
  C  C152  1  0.63341000  0.02921000  0.07837000  1
  C  C153  1  0.52921000  0.13341000  0.57837000  1
  C  C154  1  0.23488000  0.02768000  0.67576000  1
  C  C155  1  0.52768000  0.73488000  0.17576000  1
  C  C156  1  0.62682000  0.52072000  0.84264000  1
  C  C157  1  0.02072000  0.12682000  0.34264000  1
  C  C158  1  0.35611000  0.90231000  0.67537000  1
  C  C159  1  0.40231000  0.85611000  0.17537000  1
  C  C160  1  0.75000000  0.10635000  0.75000000  1
  C  C161  1  0.60635000  0.25000000  0.25000000  1
  C  C162  1  0.42725000  0.01925000  0.35575000  1
  C  C163  1  0.51925000  0.92725000  0.85575000  1
  C  C164  1  0.54184000  0.32634000  0.21248000  1
  C  C165  1  0.82634000  0.04184000  0.71248000  1
  C  C166  1  0.35977000  0.91427000  0.60349000  1
  C  C167  1  0.41427000  0.85977000  0.10349000  1
  C  C168  1  0.39535000  0.34165000  0.40825000  1
  C  C169  1  0.84165000  0.89535000  0.90825000  1
  C  C170  1  0.75901000  0.52921000  0.57837000  1
  C  C171  1  0.02921000  0.25901000  0.07837000  1
  C  C172  1  0.51682000  0.20082000  0.92894000  1
  C  C173  1  0.70082000  0.01682000  0.42894000  1
  H  H174  1  0.63650000  0.46390000  0.84780000  1
  H  H175  1  0.96390000  0.13650000  0.34780000  1
  H  H176  1  0.48490000  0.12990000  0.57330000  1
  H  H177  1  0.62990000  0.98490000  0.07330000  1
  H  H178  1  0.37610000  0.90320000  0.07610000  1
  H  H179  1  0.40320000  0.87610000  0.57610000  1
  H  H180  1  0.25820000  0.71680000  0.52740000  1
  H  H181  1  0.21680000  0.75820000  0.02740000  1
  H  H182  1  0.48640000  0.33810000  0.25130000  1
  H  H183  1  0.83810000  0.98640000  0.75130000  1
  H  H184  1  0.12990000  0.81190000  0.57330000  1
  H  H185  1  0.31190000  0.62990000  0.07330000  1
  H  H186  1  0.01510000  0.68810000  0.92670000  1
  H  H187  1  0.18810000  0.51510000  0.42670000  1
  H  H188  1  0.20250000  0.05160000  0.09580000  1
  H  H189  1  0.55160000  0.70250000  0.59580000  1
  H  H190  1  0.83820000  0.61070000  0.28920000  1
  H  H191  1  0.11070000  0.33820000  0.78920000  1
  H  H192  1  0.49070000  0.80280000  0.02120000  1
  H  H193  1  0.30280000  0.99070000  0.52120000  1
  H  H194  1  0.30770000  0.46130000  0.79880000  1
  H  H195  1  0.96130000  0.80770000  0.29880000  1
  H  H196  1  0.53750000  0.31430000  0.17330000  1
  H  H197  1  0.81430000  0.03750000  0.67330000  1
  H  H198  1  0.95800000  0.92590000  0.61980000  1
  H  H199  1  0.42590000  0.45800000  0.11980000  1
  H  H200  1  0.97490000  0.53750000  0.17330000  1
  H  H201  1  0.03750000  0.47490000  0.67330000  1
  H  H202  1  0.26190000  0.83820000  0.28920000  1
  H  H203  1  0.33820000  0.76190000  0.78920000  1
  H  H204  1  0.94280000  0.87600000  0.70890000  1
  H  H205  1  0.37600000  0.44280000  0.20890000  1
  H  H206  1  0.80770000  0.93220000  0.29880000  1
  H  H207  1  0.43220000  0.30770000  0.79880000  1
  H  H208  1  0.23810000  0.88930000  0.21080000  1
  H  H209  1  0.38930000  0.73810000  0.71080000  1
  H  H210  1  0.90320000  0.64460000  0.07610000  1
  H  H211  1  0.14460000  0.40320000  0.57610000  1
  H  H212  1  0.52510000  0.18570000  0.32670000  1
  H  H213  1  0.68570000  0.02510000  0.82670000  1
  H  H214  1  0.12390000  0.85540000  0.42390000  1
  H  H215  1  0.35540000  0.62390000  0.92390000  1
  H  H216  1  0.05180000  0.63650000  0.84780000  1
  H  H217  1  0.13650000  0.55180000  0.34780000  1
  H  H218  1  0.44820000  0.03610000  0.65220000  1
  H  H219  1  0.53610000  0.94820000  0.15220000  1
  H  H220  1  0.65010000  0.20250000  0.09580000  1
  H  H221  1  0.70250000  0.15010000  0.59580000  1
  H  H222  1  0.71180000  0.04550000  0.23850000  1
  H  H223  1  0.54550000  0.21180000  0.73850000  1
  H  H224  1  0.92420000  0.48640000  0.25130000  1
  H  H225  1  0.98640000  0.42420000  0.75130000  1
  H  H226  1  0.06780000  0.03870000  0.70120000  1
  H  H227  1  0.53870000  0.56780000  0.20120000  1
  H  H228  1  0.57580000  0.16190000  0.24870000  1
  H  H229  1  0.66190000  0.07580000  0.74870000  1
  H  H230  1  0.84990000  0.44840000  0.40420000  1
  H  H231  1  0.94840000  0.34990000  0.90420000  1
  H  H232  1  0.76910000  0.10470000  0.04090000  1
  H  H233  1  0.60470000  0.26910000  0.54090000  1
  H  H234  1  0.71680000  0.49760000  0.52740000  1
  H  H235  1  0.99760000  0.21680000  0.02740000  1
  H  H236  1  0.24180000  0.00240000  0.97260000  1
  H  H237  1  0.50240000  0.74180000  0.47260000  1
  H  H238  1  0.47230000  0.94280000  0.70890000  1
  H  H239  1  0.44280000  0.97230000  0.20890000  1
  H  H240  1  0.10470000  0.08530000  0.04090000  1
  H  H241  1  0.58530000  0.60470000  0.54090000  1
  H  H242  1  0.26910000  0.58530000  0.54090000  1
  H  H243  1  0.08530000  0.76910000  0.04090000  1
  H  H244  1  0.04550000  0.00420000  0.23850000  1
  H  H245  1  0.50420000  0.54550000  0.73850000  1
  H  H246  1  0.21180000  0.50420000  0.73850000  1
  H  H247  1  0.00420000  0.71180000  0.23850000  1
  H  H248  1  0.49630000  0.95800000  0.61980000  1
  H  H249  1  0.45800000  0.99630000  0.11980000  1
  H  H250  1  0.99070000  0.18530000  0.52120000  1
  H  H251  1  0.68530000  0.49070000  0.02120000  1
  H  H252  1  0.02770000  0.62400000  0.79110000  1
  H  H253  1  0.12400000  0.52770000  0.29110000  1
  H  H254  1  0.80280000  0.68530000  0.02120000  1
  H  H255  1  0.18530000  0.30280000  0.52120000  1
  H  H256  1  0.99630000  0.42590000  0.11980000  1
  H  H257  1  0.92590000  0.49630000  0.61980000  1
  H  H258  1  0.00370000  0.57410000  0.88020000  1
  H  H259  1  0.07410000  0.50370000  0.38020000  1
  H  H260  1  0.81470000  0.69720000  0.47880000  1
  H  H261  1  0.19720000  0.31470000  0.97880000  1
  H  H262  1  0.97230000  0.37600000  0.20890000  1
  H  H263  1  0.87600000  0.47230000  0.70890000  1
  H  H264  1  0.00930000  0.81470000  0.47880000  1
  H  H265  1  0.31470000  0.50930000  0.97880000  1
  H  H266  1  0.50370000  0.04200000  0.38020000  1
  H  H267  1  0.54200000  0.00370000  0.88020000  1
  H  H268  1  0.78820000  0.49580000  0.26150000  1
  H  H269  1  0.99580000  0.28820000  0.76150000  1
  H  H270  1  0.49580000  0.45450000  0.26150000  1
  H  H271  1  0.95450000  0.99580000  0.76150000  1
  H  H272  1  0.73090000  0.41470000  0.45910000  1
  H  H273  1  0.91470000  0.23090000  0.95910000  1
  H  H274  1  0.41470000  0.39530000  0.45910000  1
  H  H275  1  0.89530000  0.91470000  0.95910000  1
  H  H276  1  0.52770000  0.05720000  0.29110000  1
  H  H277  1  0.55720000  0.02770000  0.79110000  1
  H  H278  1  0.75820000  0.99760000  0.02740000  1
  H  H279  1  0.49760000  0.25820000  0.52740000  1
  H  H280  1  0.00240000  0.78320000  0.97260000  1
  H  H281  1  0.28320000  0.50240000  0.47260000  1
  H  H282  1  0.23090000  0.89530000  0.95910000  1
  H  H283  1  0.39530000  0.73090000  0.45910000  1
  H  H284  1  0.15010000  0.55160000  0.59580000  1
  H  H285  1  0.05160000  0.65010000  0.09580000  1
  H  H286  1  0.42420000  0.83810000  0.75130000  1
  H  H287  1  0.33810000  0.92420000  0.25130000  1
  H  H288  1  0.46130000  0.43220000  0.79880000  1
  H  H289  1  0.93220000  0.96130000  0.29880000  1
  H  H290  1  0.07580000  0.51360000  0.74870000  1
  H  H291  1  0.01360000  0.57580000  0.24870000  1
  H  H292  1  0.28820000  0.95450000  0.76150000  1
  H  H293  1  0.45450000  0.78820000  0.26150000  1
  H  H294  1  0.34990000  0.79750000  0.90420000  1
  H  H295  1  0.29750000  0.84990000  0.40420000  1
  H  H296  1  0.55180000  0.96390000  0.34780000  1
  H  H297  1  0.46390000  0.05180000  0.84780000  1
  H  H298  1  0.94820000  0.36350000  0.15220000  1
  H  H299  1  0.86350000  0.44820000  0.65220000  1
  H  H300  1  0.87610000  0.14460000  0.57610000  1
  H  H301  1  0.64460000  0.37610000  0.07610000  1
  H  H302  1  0.47490000  0.81430000  0.67330000  1
  H  H303  1  0.31430000  0.97490000  0.17330000  1
  H  H304  1  0.85540000  0.59680000  0.42390000  1
  H  H305  1  0.09680000  0.35540000  0.92390000  1
  H  H306  1  0.76190000  0.11070000  0.78920000  1
  H  H307  1  0.61070000  0.26190000  0.28920000  1
  H  H308  1  0.19230000  0.06780000  0.70120000  1
  H  H309  1  0.56780000  0.69230000  0.20120000  1
  H  H310  1  0.62400000  0.55720000  0.79110000  1
  H  H311  1  0.05720000  0.12400000  0.29110000  1
  H  H312  1  0.73810000  0.16180000  0.71080000  1
  H  H313  1  0.66180000  0.23810000  0.21080000  1
  H  H314  1  0.02510000  0.46250000  0.82670000  1
  H  H315  1  0.96250000  0.52510000  0.32670000  1
  H  H316  1  0.57410000  0.54200000  0.88020000  1
  H  H317  1  0.04200000  0.07410000  0.38020000  1
  H  H318  1  0.18570000  0.96250000  0.32670000  1
  H  H319  1  0.46250000  0.68570000  0.82670000  1
  H  H320  1  0.69230000  0.53870000  0.20120000  1
  H  H321  1  0.03870000  0.19230000  0.70120000  1
  H  H322  1  0.50930000  0.19720000  0.97880000  1
  H  H323  1  0.69720000  0.00930000  0.47880000  1
  H  H324  1  0.88930000  0.66180000  0.21080000  1
  H  H325  1  0.16180000  0.38930000  0.71080000  1
  H  H326  1  0.44840000  0.29750000  0.40420000  1
  H  H327  1  0.79750000  0.94840000  0.90420000  1
  H  H328  1  0.98490000  0.31190000  0.07330000  1
  H  H329  1  0.81190000  0.48490000  0.57330000  1
  H  H330  1  0.68810000  0.37010000  0.92670000  1
  H  H331  1  0.87010000  0.18810000  0.42670000  1
  H  H332  1  0.16190000  0.01360000  0.24870000  1
  H  H333  1  0.51360000  0.66190000  0.74870000  1
  H  H334  1  0.74180000  0.28320000  0.47260000  1
  H  H335  1  0.78320000  0.24180000  0.97260000  1
  H  H336  1  0.62390000  0.09680000  0.92390000  1
  H  H337  1  0.59680000  0.12390000  0.42390000  1
  H  H338  1  0.51510000  0.87010000  0.42670000  1
  H  H339  1  0.37010000  0.01510000  0.92670000  1
  H  H340  1  0.03610000  0.86350000  0.65220000  1
  H  H341  1  0.36350000  0.53610000  0.15220000  1
  Mn  Mn342  1  0.15498000  0.15498000  0.53506000  1
  Mn  Mn343  1  0.34502000  0.34502000  0.96494000  1
  Mn  Mn344  1  0.65498000  0.65498000  0.03506000  1
  Mn  Mn345  1  0.84502000  0.84502000  0.46494000  1
  Mn  Mn346  1  0.10949333  0.29390333  0.34248000  1
  Mn  Mn347  1  0.79390333  0.60949333  0.84248000  1
  Mn  Mn348  1  0.60949333  0.75412333  0.84248000  1
  Mn  Mn349  1  0.25412333  0.10949333  0.34248000  1
  Mn  Mn350  1  0.24587667  0.20609667  0.15752000  1
  Mn  Mn351  1  0.70609667  0.74587667  0.65752000  1
  Mn  Mn352  1  0.29390333  0.25412333  0.34248000  1
  Mn  Mn353  1  0.75412333  0.79390333  0.84248000  1
  Mn  Mn354  1  0.39050667  0.24587667  0.15752000  1
  Mn  Mn355  1  0.74587667  0.89050667  0.65752000  1
  Mn  Mn356  1  0.89050667  0.70609667  0.65752000  1
  Mn  Mn357  1  0.20609667  0.39050667  0.15752000  1
  N  N358  1  0.08077000  0.27247000  0.46339000  1
  N  N359  1  0.77247000  0.58077000  0.96339000  1
  N  N360  1  0.17388000  0.47728000  0.00946000  1
  N  N361  1  0.97728000  0.67388000  0.50946000  1
  N  N362  1  0.76392000  0.96092000  0.39354000  1
  N  N363  1  0.46092000  0.26392000  0.89354000  1
  N  N364  1  0.63277000  0.91007000  0.66189000  1
  N  N365  1  0.41007000  0.13277000  0.16189000  1
  N  N366  1  0.12253000  0.53313000  0.98321000  1
  N  N367  1  0.03313000  0.62253000  0.48321000  1
  N  N368  1  0.26392000  0.38162000  0.89354000  1
  N  N369  1  0.88162000  0.76392000  0.39354000  1
  N  N370  1  0.58077000  0.68337000  0.96339000  1
  N  N371  1  0.18337000  0.08077000  0.46339000  1
  N  N372  1  0.31663000  0.22753000  0.03661000  1
  N  N373  1  0.72753000  0.81663000  0.53661000  1
  N  N374  1  0.61838000  0.53908000  0.10646000  1
  N  N375  1  0.03908000  0.11838000  0.60646000  1
  N  N376  1  0.53313000  0.36113000  0.98321000  1
  N  N377  1  0.86113000  0.03313000  0.48321000  1
  N  N378  1  0.13277000  0.29527000  0.16189000  1
  N  N379  1  0.79527000  0.63277000  0.66189000  1
  N  N380  1  0.37747000  0.13887000  0.51679000  1
  N  N381  1  0.63887000  0.87747000  0.01679000  1
  N  N382  1  0.70473000  0.58993000  0.83811000  1
  N  N383  1  0.08993000  0.20473000  0.33811000  1
  N  N384  1  0.67388000  0.83938000  0.50946000  1
  N  N385  1  0.33938000  0.17388000  0.00946000  1
  N  N386  1  0.16062000  0.02272000  0.49054000  1
  N  N387  1  0.52272000  0.66062000  0.99054000  1
  N  N388  1  0.47728000  0.33938000  0.00946000  1
  N  N389  1  0.83938000  0.97728000  0.50946000  1
  N  N390  1  0.32612000  0.16062000  0.49054000  1
  N  N391  1  0.66062000  0.82612000  0.99054000  1
  N  N392  1  0.91007000  0.79527000  0.66189000  1
  N  N393  1  0.29527000  0.41007000  0.16189000  1
  N  N394  1  0.62253000  0.86113000  0.48321000  1
  N  N395  1  0.36113000  0.12253000  0.98321000  1
  N  N396  1  0.86723000  0.70473000  0.83811000  1
  N  N397  1  0.20473000  0.36723000  0.33811000  1
  N  N398  1  0.13887000  0.96687000  0.51679000  1
  N  N399  1  0.46687000  0.63887000  0.01679000  1
  N  N400  1  0.96092000  0.88162000  0.39354000  1
  N  N401  1  0.38162000  0.46092000  0.89354000  1
  N  N402  1  0.27247000  0.18337000  0.46339000  1
  N  N403  1  0.68337000  0.77247000  0.96339000  1
  N  N404  1  0.41923000  0.31663000  0.03661000  1
  N  N405  1  0.81663000  0.91923000  0.53661000  1
  N  N406  1  0.73608000  0.61838000  0.10646000  1
  N  N407  1  0.11838000  0.23608000  0.60646000  1
  N  N408  1  0.87747000  0.46687000  0.01679000  1
  N  N409  1  0.96687000  0.37747000  0.51679000  1
  N  N410  1  0.36723000  0.08993000  0.33811000  1
  N  N411  1  0.58993000  0.86723000  0.83811000  1
  N  N412  1  0.23608000  0.03908000  0.60646000  1
  N  N413  1  0.53908000  0.73608000  0.10646000  1
  N  N414  1  0.82612000  0.52272000  0.99054000  1
  N  N415  1  0.02272000  0.32612000  0.49054000  1
  N  N416  1  0.91923000  0.72753000  0.53661000  1
  N  N417  1  0.22753000  0.41923000  0.03661000  1
  O  O418  1  0.22159000  0.22159000  0.33523000  1
  O  O419  1  0.27841000  0.27841000  0.16477000  1
  O  O420  1  0.72159000  0.72159000  0.83523000  1
  O  O421  1  0.77841000  0.77841000  0.66477000  1
  O  O422  1  0.11424000  0.35434000  0.19312000  1
  O  O423  1  0.85434000  0.61424000  0.69312000  1
  O  O424  1  0.99830000  0.36319000  0.34705000  1
  O  O425  1  0.86319000  0.49830000  0.84705000  1
  O  O426  1  0.61424000  0.83830000  0.69312000  1
  O  O427  1  0.33830000  0.11424000  0.19312000  1
  O  O428  1  0.36319000  0.29146000  0.34705000  1
  O  O429  1  0.79146000  0.86319000  0.84705000  1
  O  O430  1  0.49830000  0.79146000  0.84705000  1
  O  O431  1  0.29146000  0.99830000  0.34705000  1
  O  O432  1  0.16170000  0.14566000  0.30688000  1
  O  O433  1  0.64566000  0.66170000  0.80688000  1
  O  O434  1  0.35434000  0.33830000  0.19312000  1
  O  O435  1  0.83830000  0.85434000  0.69312000  1
  O  O436  1  0.50170000  0.20854000  0.15295000  1
  O  O437  1  0.70854000  0.00170000  0.65295000  1
  O  O438  1  0.20854000  0.13681000  0.15295000  1
  O  O439  1  0.63681000  0.70854000  0.65295000  1
  O  O440  1  0.38576000  0.16170000  0.30688000  1
  O  O441  1  0.66170000  0.88576000  0.80688000  1
  O  O442  1  0.00170000  0.63681000  0.65295000  1
  O  O443  1  0.13681000  0.50170000  0.15295000  1
  O  O444  1  0.88576000  0.64566000  0.80688000  1
  O  O445  1  0.14566000  0.38576000  0.30688000  1
