# generated using pymatgen
data_NiH6C8S2(NO)4
_symmetry_space_group_name_H-M   'P 1'
_cell_length_a   7.54540000
_cell_length_b   12.52771491
_cell_length_c   12.52771491
_cell_angle_alpha   84.79667944
_cell_angle_beta   72.47341450
_cell_angle_gamma   72.47341450
_symmetry_Int_Tables_number   1
_chemical_formula_structural   NiH6C8S2(NO)4
_chemical_formula_sum   'Ni2 H12 C16 S4 N8 O8'
_cell_volume   1076.80686866
_cell_formula_units_Z   2
loop_
 _symmetry_equiv_pos_site_id
 _symmetry_equiv_pos_as_xyz
  1  'x, y, z'
loop_
 _atom_site_type_symbol
 _atom_site_label
 _atom_site_symmetry_multiplicity
 _atom_site_fract_x
 _atom_site_fract_y
 _atom_site_fract_z
 _atom_site_occupancy
  C  C0  1  0.32890000  0.31070000  0.67590000  1
  C  C1  1  0.43450000  0.17590000  0.81070000  1
  C  C2  1  0.42250000  0.20250000  0.70250000  1
  C  C3  1  0.49490000  0.63010000  0.13010000  1
  C  C4  1  0.75480000  0.81070000  0.82410000  1
  C  C5  1  0.36040000  0.32410000  0.31070000  1
  C  C6  1  0.87500000  0.70250000  0.79750000  1
  C  C7  1  0.37500000  0.29750000  0.20250000  1
  C  C8  1  0.37500000  0.13010000  0.36990000  1
  C  C9  1  0.87500000  0.86990000  0.63010000  1
  C  C10  1  0.99520000  0.67590000  0.68930000  1
  C  C11  1  0.38960000  0.18930000  0.17590000  1
  C  C12  1  0.25510000  0.36990000  0.86990000  1
  C  C13  1  0.32750000  0.79750000  0.29750000  1
  C  C14  1  0.42110000  0.82410000  0.18930000  1
  C  C15  1  0.31550000  0.68930000  0.32410000  1
  H  H16  1  0.56080000  0.75310000  0.04310000  1
  H  H17  1  0.39300000  0.54310000  0.25310000  1
  H  H18  1  0.47760000  0.14740000  0.64740000  1
  H  H19  1  0.35390000  0.25310000  0.45690000  1
  H  H20  1  0.68610000  0.95690000  0.75310000  1
  H  H21  1  0.87500000  0.64740000  0.85260000  1
  H  H22  1  0.37500000  0.35260000  0.14740000  1
  H  H23  1  0.39610000  0.04310000  0.24690000  1
  H  H24  1  0.06390000  0.74690000  0.54310000  1
  H  H25  1  0.27240000  0.85260000  0.35260000  1
  H  H26  1  0.18920000  0.45690000  0.74690000  1
  H  H27  1  0.35700000  0.24690000  0.95690000  1
  N  N28  1  0.50190000  0.73710000  0.11010000  1
  N  N29  1  0.40090000  0.61010000  0.23710000  1
  N  N30  1  0.36200000  0.23710000  0.38990000  1
  N  N31  1  0.76100000  0.88990000  0.73710000  1
  N  N32  1  0.38800000  0.11010000  0.26290000  1
  N  N33  1  0.98900000  0.76290000  0.61010000  1
  N  N34  1  0.24810000  0.38990000  0.76290000  1
  N  N35  1  0.34910000  0.26290000  0.88990000  1
  Ni  Ni36  1  0.50000000  0.00000000  0.00000000  1
  Ni  Ni37  1  0.25000000  0.50000000  0.50000000  1
  O  O38  1  0.30280000  0.34450000  0.58290000  1
  O  O39  1  0.51980000  0.08290000  0.84450000  1
  O  O40  1  0.63570000  0.84450000  0.91710000  1
  O  O41  1  0.35270000  0.41710000  0.34450000  1
  O  O42  1  0.11430000  0.58290000  0.65550000  1
  O  O43  1  0.39730000  0.15550000  0.08290000  1
  O  O44  1  0.44720000  0.91710000  0.15550000  1
  O  O45  1  0.23020000  0.65550000  0.41710000  1
  S  S46  1  0.59213000  0.53287000  0.03287000  1
  S  S47  1  0.37500000  0.03287000  0.46713000  1
  S  S48  1  0.87500000  0.96713000  0.53287000  1
  S  S49  1  0.15787000  0.46713000  0.96713000  1
