# generated using pymatgen
data_Co3H28C48N2O15
_symmetry_space_group_name_H-M   'P 1'
_cell_length_a   10.93290000
_cell_length_b   15.03280000
_cell_length_c   28.93400000
_cell_angle_alpha   90.00000000
_cell_angle_beta   90.00000000
_cell_angle_gamma   90.37000000
_symmetry_Int_Tables_number   1
_chemical_formula_structural   Co3H28C48N2O15
_chemical_formula_sum   'Co12 H112 C192 N8 O60'
_cell_volume   4755.26448190
_cell_formula_units_Z   4
loop_
 _symmetry_equiv_pos_site_id
 _symmetry_equiv_pos_as_xyz
  1  'x, y, z'
loop_
 _atom_site_type_symbol
 _atom_site_label
 _atom_site_symmetry_multiplicity
 _atom_site_fract_x
 _atom_site_fract_y
 _atom_site_fract_z
 _atom_site_occupancy
  Co  Co0  1  0.99731000  0.96828000  0.89611000  1
  Co  Co1  1  0.99731000  0.46828000  0.60389000  1
  Co  Co2  1  0.91908000  0.23177000  0.47926000  1
  Co  Co3  1  0.91908000  0.73177000  0.02074000  1
  Co  Co4  1  0.66199000  0.37251000  0.49074000  1
  Co  Co5  1  0.66199000  0.87251000  0.00926000  1
  Co  Co6  1  0.33801000  0.12749000  0.99074000  1
  Co  Co7  1  0.33801000  0.62749000  0.50926000  1
  Co  Co8  1  0.08092000  0.26823000  0.97926000  1
  Co  Co9  1  0.08092000  0.76823000  0.52074000  1
  Co  Co10  1  0.00269000  0.53172000  0.39611000  1
  Co  Co11  1  0.00269000  0.03172000  0.10389000  1
  H  H12  1  0.89720000  0.44200000  0.87190000  1
  H  H13  1  0.89720000  0.94200000  0.62810000  1
  H  H14  1  0.88950000  0.35880000  0.36400000  1
  H  H15  1  0.88950000  0.85880000  0.13600000  1
  H  H16  1  0.88820000  0.38810000  0.46980000  1
  H  H17  1  0.88820000  0.88810000  0.03020000  1
  H  H18  1  0.88520000  0.25870000  0.30490000  1
  H  H19  1  0.88520000  0.75870000  0.19510000  1
  H  H20  1  0.88240000  0.87050000  0.98100000  1
  H  H21  1  0.88240000  0.37050000  0.51900000  1
  H  H22  1  0.87760000  0.58520000  0.76220000  1
  H  H23  1  0.87760000  0.08520000  0.73780000  1
  H  H24  1  0.87470000  0.99420000  0.80000000  1
  H  H25  1  0.87470000  0.49420000  0.70000000  1
  H  H26  1  0.87390000  0.35870000  0.80630000  1
  H  H27  1  0.87390000  0.85870000  0.69370000  1
  H  H28  1  0.84760000  0.80380000  0.86410000  1
  H  H29  1  0.84760000  0.30380000  0.63590000  1
  H  H30  1  0.83830000  0.60710000  0.32240000  1
  H  H31  1  0.83830000  0.10710000  0.17760000  1
  H  H32  1  0.83780000  0.70500000  0.80500000  1
  H  H33  1  0.83780000  0.20500000  0.69500000  1
  H  H34  1  0.83720000  0.70670000  0.26290000  1
  H  H35  1  0.83720000  0.20670000  0.23710000  1
  H  H36  1  0.82480000  0.56820000  0.92110000  1
  H  H37  1  0.82480000  0.06820000  0.57890000  1
  H  H38  1  0.80230000  0.83500000  0.42150000  1
  H  H39  1  0.80230000  0.33500000  0.07850000  1
  H  H40  1  0.80130000  0.27310000  0.88260000  1
  H  H41  1  0.80130000  0.77310000  0.61740000  1
  H  H42  1  0.77920000  0.97040000  0.31630000  1
  H  H43  1  0.77920000  0.47040000  0.18370000  1
  H  H44  1  0.76460000  0.09830000  0.37120000  1
  H  H45  1  0.76460000  0.59830000  0.12880000  1
  H  H46  1  0.73980000  0.41300000  0.25550000  1
  H  H47  1  0.73980000  0.91300000  0.24450000  1
  H  H48  1  0.72170000  0.38910000  0.75360000  1
  H  H49  1  0.72170000  0.88910000  0.74640000  1
  H  H50  1  0.62960000  0.49280000  0.30900000  1
  H  H51  1  0.62960000  0.99280000  0.19100000  1
  H  H52  1  0.61630000  0.28490000  0.84540000  1
  H  H53  1  0.61630000  0.78490000  0.65460000  1
  H  H54  1  0.61150000  0.86080000  0.39010000  1
  H  H55  1  0.61150000  0.36080000  0.10990000  1
  H  H56  1  0.59680000  0.50910000  0.76390000  1
  H  H57  1  0.59680000  0.00910000  0.73610000  1
  H  H58  1  0.55830000  0.63150000  0.29230000  1
  H  H59  1  0.55830000  0.13150000  0.20770000  1
  H  H60  1  0.54280000  0.59930000  0.39340000  1
  H  H61  1  0.54280000  0.09930000  0.10660000  1
  H  H62  1  0.54250000  0.64360000  0.80950000  1
  H  H63  1  0.54250000  0.14360000  0.69050000  1
  H  H64  1  0.54220000  0.03160000  0.87730000  1
  H  H65  1  0.54220000  0.53160000  0.62270000  1
  H  H66  1  0.53540000  0.25520000  0.26580000  1
  H  H67  1  0.53540000  0.75520000  0.23420000  1
  H  H68  1  0.46460000  0.24480000  0.76580000  1
  H  H69  1  0.46460000  0.74480000  0.73420000  1
  H  H70  1  0.45780000  0.46840000  0.37730000  1
  H  H71  1  0.45780000  0.96840000  0.12270000  1
  H  H72  1  0.45750000  0.85640000  0.30950000  1
  H  H73  1  0.45750000  0.35640000  0.19050000  1
  H  H74  1  0.45720000  0.90070000  0.89340000  1
  H  H75  1  0.45720000  0.40070000  0.60660000  1
  H  H76  1  0.44170000  0.86850000  0.79230000  1
  H  H77  1  0.44170000  0.36850000  0.70770000  1
  H  H78  1  0.40320000  0.99090000  0.26390000  1
  H  H79  1  0.40320000  0.49090000  0.23610000  1
  H  H80  1  0.38850000  0.63920000  0.89010000  1
  H  H81  1  0.38850000  0.13920000  0.60990000  1
  H  H82  1  0.38370000  0.21510000  0.34540000  1
  H  H83  1  0.38370000  0.71510000  0.15460000  1
  H  H84  1  0.37040000  0.00720000  0.80900000  1
  H  H85  1  0.37040000  0.50720000  0.69100000  1
  H  H86  1  0.27830000  0.11090000  0.25360000  1
  H  H87  1  0.27830000  0.61090000  0.24640000  1
  H  H88  1  0.26020000  0.08700000  0.75550000  1
  H  H89  1  0.26020000  0.58700000  0.74450000  1
  H  H90  1  0.23540000  0.40170000  0.87120000  1
  H  H91  1  0.23540000  0.90170000  0.62880000  1
  H  H92  1  0.22080000  0.52960000  0.81630000  1
  H  H93  1  0.22080000  0.02960000  0.68370000  1
  H  H94  1  0.19870000  0.22690000  0.38260000  1
  H  H95  1  0.19870000  0.72690000  0.11740000  1
  H  H96  1  0.19770000  0.66500000  0.92150000  1
  H  H97  1  0.19770000  0.16500000  0.57850000  1
  H  H98  1  0.17520000  0.93180000  0.42110000  1
  H  H99  1  0.17520000  0.43180000  0.07890000  1
  H  H100  1  0.16280000  0.79330000  0.76290000  1
  H  H101  1  0.16280000  0.29330000  0.73710000  1
  H  H102  1  0.16220000  0.79500000  0.30500000  1
  H  H103  1  0.16220000  0.29500000  0.19500000  1
  H  H104  1  0.16170000  0.89290000  0.82240000  1
  H  H105  1  0.16170000  0.39290000  0.67760000  1
  H  H106  1  0.15240000  0.69620000  0.36410000  1
  H  H107  1  0.15240000  0.19620000  0.13590000  1
  H  H108  1  0.12610000  0.14130000  0.30630000  1
  H  H109  1  0.12610000  0.64130000  0.19370000  1
  H  H110  1  0.12530000  0.50580000  0.30000000  1
  H  H111  1  0.12530000  0.00580000  0.20000000  1
  H  H112  1  0.12240000  0.91480000  0.26220000  1
  H  H113  1  0.12240000  0.41480000  0.23780000  1
  H  H114  1  0.11760000  0.62950000  0.48100000  1
  H  H115  1  0.11760000  0.12950000  0.01900000  1
  H  H116  1  0.11480000  0.24130000  0.80490000  1
  H  H117  1  0.11480000  0.74130000  0.69510000  1
  H  H118  1  0.11180000  0.11190000  0.96980000  1
  H  H119  1  0.11180000  0.61190000  0.53020000  1
  H  H120  1  0.11050000  0.14120000  0.86400000  1
  H  H121  1  0.11050000  0.64120000  0.63600000  1
  H  H122  1  0.10280000  0.05800000  0.37190000  1
  H  H123  1  0.10280000  0.55800000  0.12810000  1
  C  C124  1  0.99970000  0.73800000  0.77628000  1
  C  C125  1  0.99970000  0.23800000  0.72372000  1
  C  C126  1  0.99600000  0.17630000  0.76378000  1
  C  C127  1  0.99600000  0.67630000  0.73622000  1
  C  C128  1  0.93820000  0.36980000  0.33824000  1
  C  C129  1  0.93820000  0.86980000  0.16176000  1
  C  C130  1  0.93440000  0.30920000  0.30270000  1
  C  C131  1  0.93440000  0.80920000  0.19730000  1
  C  C132  1  0.92530000  0.04410000  0.80077000  1
  C  C133  1  0.92530000  0.54410000  0.69923000  1
  C  C134  1  0.92510000  0.09920000  0.76350000  1
  C  C135  1  0.92510000  0.59920000  0.73650000  1
  C  C136  1  0.91120000  0.80280000  0.84279000  1
  C  C137  1  0.91120000  0.30280000  0.65721000  1
  C  C138  1  0.91050000  0.69230000  0.44901000  1
  C  C139  1  0.91050000  0.19230000  0.05099000  1
  C  C140  1  0.90520000  0.74270000  0.80772000  1
  C  C141  1  0.90520000  0.24270000  0.69228000  1
  C  C142  1  0.90500000  0.64510000  0.31880000  1
  C  C143  1  0.90500000  0.14510000  0.18120000  1
  C  C144  1  0.90440000  0.14740000  0.92845000  1
  C  C145  1  0.90440000  0.64740000  0.57155000  1
  C  C146  1  0.90380000  0.70500000  0.28283000  1
  C  C147  1  0.90380000  0.20500000  0.21717000  1
  C  C148  1  0.83650000  0.45610000  0.85066000  1
  C  C149  1  0.83650000  0.95610000  0.64934000  1
  C  C150  1  0.82190000  0.40640000  0.81157000  1
  C  C151  1  0.82190000  0.90640000  0.68843000  1
  C  C152  1  0.79110000  0.70150000  0.42528000  1
  C  C153  1  0.79110000  0.20150000  0.07472000  1
  C  C154  1  0.78680000  0.14480000  0.90181000  1
  C  C155  1  0.78680000  0.64480000  0.59819000  1
  C  C156  1  0.76750000  0.58310000  0.89864000  1
  C  C157  1  0.76750000  0.08310000  0.60136000  1
  C  C158  1  0.75830000  0.52940000  0.85865000  1
  C  C159  1  0.75830000  0.02940000  0.64135000  1
  C  C160  1  0.75060000  0.78700000  0.41542000  1
  C  C161  1  0.75060000  0.28700000  0.08458000  1
  C  C162  1  0.74940000  0.22390000  0.88144000  1
  C  C163  1  0.74940000  0.72390000  0.61856000  1
  C  C164  1  0.73810000  0.53260000  0.42517000  1
  C  C165  1  0.73810000  0.03260000  0.07483000  1
  C  C166  1  0.73490000  0.00330000  0.29495000  1
  C  C167  1  0.73490000  0.50330000  0.20505000  1
  C  C168  1  0.73250000  0.98290000  0.92223000  1
  C  C169  1  0.73250000  0.48290000  0.57777000  1
  C  C170  1  0.73140000  0.42520000  0.77950000  1
  C  C171  1  0.73140000  0.92520000  0.72050000  1
  C  C172  1  0.71650000  0.12920000  0.35014000  1
  C  C173  1  0.71650000  0.62920000  0.14986000  1
  C  C174  1  0.71430000  0.70810000  0.95058000  1
  C  C175  1  0.71430000  0.20810000  0.54942000  1
  C  C176  1  0.71270000  0.62990000  0.41584000  1
  C  C177  1  0.71270000  0.12990000  0.08416000  1
  C  C178  1  0.71120000  0.96920000  0.25218000  1
  C  C179  1  0.71120000  0.46920000  0.24782000  1
  C  C180  1  0.70870000  0.07160000  0.89926000  1
  C  C181  1  0.70870000  0.57160000  0.60074000  1
  C  C182  1  0.70860000  0.24780000  0.40953000  1
  C  C183  1  0.70860000  0.74780000  0.09047000  1
  C  C184  1  0.69580000  0.65620000  0.90578000  1
  C  C185  1  0.69580000  0.15620000  0.59422000  1
  C  C186  1  0.69170000  0.08910000  0.30675000  1
  C  C187  1  0.69170000  0.58910000  0.19325000  1
  C  C188  1  0.67330000  0.21100000  0.36267000  1
  C  C189  1  0.67330000  0.71100000  0.13733000  1
  C  C190  1  0.66940000  0.55080000  0.82541000  1
  C  C191  1  0.66940000  0.05080000  0.67459000  1
  C  C192  1  0.65660000  0.49630000  0.78577000  1
  C  C193  1  0.65660000  0.99630000  0.71423000  1
  C  C194  1  0.64490000  0.51740000  0.28006000  1
  C  C195  1  0.64490000  0.01740000  0.21994000  1
  C  C196  1  0.63840000  0.23190000  0.85962000  1
  C  C197  1  0.63840000  0.73190000  0.64038000  1
  C  C198  1  0.63620000  0.80320000  0.39694000  1
  C  C199  1  0.63620000  0.30320000  0.10306000  1
  C  C200  1  0.62430000  0.13750000  0.27422000  1
  C  C201  1  0.62430000  0.63750000  0.22578000  1
  C  C202  1  0.61380000  0.67990000  0.86988000  1
  C  C203  1  0.61380000  0.17990000  0.63012000  1
  C  C204  1  0.60200000  0.59980000  0.27018000  1
  C  C205  1  0.60200000  0.09980000  0.22982000  1
  C  C206  1  0.60160000  0.25600000  0.32951000  1
  C  C207  1  0.60160000  0.75600000  0.17049000  1
  C  C208  1  0.59960000  0.62780000  0.83180000  1
  C  C209  1  0.59960000  0.12780000  0.66820000  1
  C  C210  1  0.59650000  0.64650000  0.39855000  1
  C  C211  1  0.59650000  0.14650000  0.10145000  1
  C  C212  1  0.59530000  0.08010000  0.87838000  1
  C  C213  1  0.59530000  0.58010000  0.62162000  1
  C  C214  1  0.58010000  0.22220000  0.28704000  1
  C  C215  1  0.58010000  0.72220000  0.21296000  1
  C  C216  1  0.56070000  0.15960000  0.85924000  1
  C  C217  1  0.56070000  0.65960000  0.64076000  1
  C  C218  1  0.56000000  0.73180000  0.38903000  1
  C  C219  1  0.56000000  0.23180000  0.11097000  1
  C  C220  1  0.44000000  0.76820000  0.88903000  1
  C  C221  1  0.44000000  0.26820000  0.61097000  1
  C  C222  1  0.43930000  0.34040000  0.35924000  1
  C  C223  1  0.43930000  0.84040000  0.14076000  1
  C  C224  1  0.41990000  0.27780000  0.78704000  1
  C  C225  1  0.41990000  0.77780000  0.71296000  1
  C  C226  1  0.40470000  0.41990000  0.37838000  1
  C  C227  1  0.40470000  0.91990000  0.12162000  1
  C  C228  1  0.40350000  0.85350000  0.89855000  1
  C  C229  1  0.40350000  0.35350000  0.60145000  1
  C  C230  1  0.40040000  0.87220000  0.33180000  1
  C  C231  1  0.40040000  0.37220000  0.16820000  1
  C  C232  1  0.39840000  0.24400000  0.82951000  1
  C  C233  1  0.39840000  0.74400000  0.67049000  1
  C  C234  1  0.39800000  0.90020000  0.77018000  1
  C  C235  1  0.39800000  0.40020000  0.72982000  1
  C  C236  1  0.38620000  0.82010000  0.36988000  1
  C  C237  1  0.38620000  0.32010000  0.13012000  1
  C  C238  1  0.37570000  0.36250000  0.77422000  1
  C  C239  1  0.37570000  0.86250000  0.72578000  1
  C  C240  1  0.36380000  0.69680000  0.89694000  1
  C  C241  1  0.36380000  0.19680000  0.60306000  1
  C  C242  1  0.36160000  0.26810000  0.35962000  1
  C  C243  1  0.36160000  0.76810000  0.14038000  1
  C  C244  1  0.35510000  0.98260000  0.78006000  1
  C  C245  1  0.35510000  0.48260000  0.71994000  1
  C  C246  1  0.34340000  0.00370000  0.28577000  1
  C  C247  1  0.34340000  0.50370000  0.21423000  1
  C  C248  1  0.33060000  0.94920000  0.32541000  1
  C  C249  1  0.33060000  0.44920000  0.17459000  1
  C  C250  1  0.32670000  0.28900000  0.86267000  1
  C  C251  1  0.32670000  0.78900000  0.63733000  1
  C  C252  1  0.30830000  0.41090000  0.80675000  1
  C  C253  1  0.30830000  0.91090000  0.69325000  1
  C  C254  1  0.30420000  0.84380000  0.40578000  1
  C  C255  1  0.30420000  0.34380000  0.09422000  1
  C  C256  1  0.29140000  0.25220000  0.90953000  1
  C  C257  1  0.29140000  0.75220000  0.59047000  1
  C  C258  1  0.29130000  0.42840000  0.39926000  1
  C  C259  1  0.29130000  0.92840000  0.10074000  1
  C  C260  1  0.28880000  0.53080000  0.75218000  1
  C  C261  1  0.28880000  0.03080000  0.74782000  1
  C  C262  1  0.28730000  0.87010000  0.91584000  1
  C  C263  1  0.28730000  0.37010000  0.58416000  1
  C  C264  1  0.28570000  0.79190000  0.45058000  1
  C  C265  1  0.28570000  0.29190000  0.04942000  1
  C  C266  1  0.28350000  0.37080000  0.85014000  1
  C  C267  1  0.28350000  0.87080000  0.64986000  1
  C  C268  1  0.26860000  0.07480000  0.27950000  1
  C  C269  1  0.26860000  0.57480000  0.22050000  1
  C  C270  1  0.26750000  0.51710000  0.42223000  1
  C  C271  1  0.26750000  0.01710000  0.07777000  1
  C  C272  1  0.26510000  0.49670000  0.79495000  1
  C  C273  1  0.26510000  0.99670000  0.70505000  1
  C  C274  1  0.26190000  0.96740000  0.92517000  1
  C  C275  1  0.26190000  0.46740000  0.57483000  1
  C  C276  1  0.25060000  0.27610000  0.38144000  1
  C  C277  1  0.25060000  0.77610000  0.11856000  1
  C  C278  1  0.24940000  0.71300000  0.91542000  1
  C  C279  1  0.24940000  0.21300000  0.58458000  1
  C  C280  1  0.24170000  0.97060000  0.35865000  1
  C  C281  1  0.24170000  0.47060000  0.14135000  1
  C  C282  1  0.23250000  0.91690000  0.39864000  1
  C  C283  1  0.23250000  0.41690000  0.10136000  1
  C  C284  1  0.21320000  0.35520000  0.40181000  1
  C  C285  1  0.21320000  0.85520000  0.09819000  1
  C  C286  1  0.20890000  0.79850000  0.92528000  1
  C  C287  1  0.20890000  0.29850000  0.57472000  1
  C  C288  1  0.17810000  0.09360000  0.31157000  1
  C  C289  1  0.17810000  0.59360000  0.18843000  1
  C  C290  1  0.16350000  0.04390000  0.35066000  1
  C  C291  1  0.16350000  0.54390000  0.14934000  1
  C  C292  1  0.09620000  0.79500000  0.78283000  1
  C  C293  1  0.09620000  0.29500000  0.71717000  1
  C  C294  1  0.09560000  0.35260000  0.42845000  1
  C  C295  1  0.09560000  0.85260000  0.07155000  1
  C  C296  1  0.09500000  0.85490000  0.81880000  1
  C  C297  1  0.09500000  0.35490000  0.68120000  1
  C  C298  1  0.09480000  0.75730000  0.30772000  1
  C  C299  1  0.09480000  0.25730000  0.19228000  1
  C  C300  1  0.08950000  0.80770000  0.94901000  1
  C  C301  1  0.08950000  0.30770000  0.55099000  1
  C  C302  1  0.08880000  0.69720000  0.34279000  1
  C  C303  1  0.08880000  0.19720000  0.15721000  1
  C  C304  1  0.07490000  0.40080000  0.26350000  1
  C  C305  1  0.07490000  0.90080000  0.23650000  1
  C  C306  1  0.07470000  0.45590000  0.30077000  1
  C  C307  1  0.07470000  0.95590000  0.19923000  1
  C  C308  1  0.06560000  0.19080000  0.80270000  1
  C  C309  1  0.06560000  0.69080000  0.69730000  1
  C  C310  1  0.06180000  0.13020000  0.83824000  1
  C  C311  1  0.06180000  0.63020000  0.66176000  1
  C  C312  1  0.00400000  0.32370000  0.26378000  1
  C  C313  1  0.00400000  0.82370000  0.23622000  1
  C  C314  1  0.00030000  0.76200000  0.27628000  1
  C  C315  1  0.00030000  0.26200000  0.22372000  1
  N  N316  1  0.99580000  0.63907000  0.34831000  1
  N  N317  1  0.99580000  0.13907000  0.15169000  1
  N  N318  1  0.99320000  0.05723000  0.83814000  1
  N  N319  1  0.99320000  0.55723000  0.66186000  1
  N  N320  1  0.00680000  0.44277000  0.33814000  1
  N  N321  1  0.00680000  0.94277000  0.16186000  1
  N  N322  1  0.00420000  0.86093000  0.84831000  1
  N  N323  1  0.00420000  0.36093000  0.65169000  1
  O  O324  1  0.96388000  0.61836000  0.45007000  1
  O  O325  1  0.96388000  0.11836000  0.04993000  1
  O  O326  1  0.95925000  0.07718000  0.93839000  1
  O  O327  1  0.95925000  0.57718000  0.56161000  1
  O  O328  1  0.95400000  0.76078000  0.46765000  1
  O  O329  1  0.95400000  0.26078000  0.03235000  1
  O  O330  1  0.94170000  0.22271000  0.93886000  1
  O  O331  1  0.94170000  0.72271000  0.56114000  1
  O  O332  1  0.85360000  0.36772000  0.49074000  1
  O  O333  1  0.85360000  0.86772000  0.00926000  1
  O  O334  1  0.82187000  0.49437000  0.40317000  1
  O  O335  1  0.82187000  0.99437000  0.09683000  1
  O  O336  1  0.81777000  0.93439000  0.90810000  1
  O  O337  1  0.81777000  0.43439000  0.59190000  1
  O  O338  1  0.80980000  0.21933000  0.42361000  1
  O  O339  1  0.80980000  0.71933000  0.07639000  1
  O  O340  1  0.79720000  0.67873000  0.97581000  1
  O  O341  1  0.79720000  0.17873000  0.52419000  1
  O  O342  1  0.66546000  0.49478000  0.45233000  1
  O  O343  1  0.66546000  0.99478000  0.04767000  1
  O  O344  1  0.65931000  0.96327000  0.95366000  1
  O  O345  1  0.65931000  0.46327000  0.54634000  1
  O  O346  1  0.64570000  0.77074000  0.95994000  1
  O  O347  1  0.64570000  0.27074000  0.54006000  1
  O  O348  1  0.64090000  0.30030000  0.42967000  1
  O  O349  1  0.64090000  0.80030000  0.07033000  1
  O  O350  1  0.55561000  0.76173000  0.87076000  1
  O  O351  1  0.55561000  0.26173000  0.62924000  1
  O  O352  1  0.55454000  0.33877000  0.33992000  1
  O  O353  1  0.55454000  0.83877000  0.16008000  1
  O  O354  1  0.44546000  0.16123000  0.83992000  1
  O  O355  1  0.44546000  0.66123000  0.66008000  1
  O  O356  1  0.44439000  0.73827000  0.37076000  1
  O  O357  1  0.44439000  0.23827000  0.12924000  1
  O  O358  1  0.35910000  0.19970000  0.92967000  1
  O  O359  1  0.35910000  0.69970000  0.57033000  1
  O  O360  1  0.35430000  0.72926000  0.45994000  1
  O  O361  1  0.35430000  0.22926000  0.04006000  1
  O  O362  1  0.34069000  0.53673000  0.45366000  1
  O  O363  1  0.34069000  0.03673000  0.04634000  1
  O  O364  1  0.33454000  0.00522000  0.95233000  1
  O  O365  1  0.33454000  0.50522000  0.54767000  1
  O  O366  1  0.20280000  0.82127000  0.47581000  1
  O  O367  1  0.20280000  0.32127000  0.02419000  1
  O  O368  1  0.19020000  0.28067000  0.92361000  1
  O  O369  1  0.19020000  0.78067000  0.57639000  1
  O  O370  1  0.18223000  0.56561000  0.40810000  1
  O  O371  1  0.18223000  0.06561000  0.09190000  1
  O  O372  1  0.17813000  0.00563000  0.90317000  1
  O  O373  1  0.17813000  0.50563000  0.59683000  1
  O  O374  1  0.14640000  0.13228000  0.99074000  1
  O  O375  1  0.14640000  0.63228000  0.50926000  1
  O  O376  1  0.05830000  0.27729000  0.43886000  1
  O  O377  1  0.05830000  0.77729000  0.06114000  1
  O  O378  1  0.04600000  0.73922000  0.96765000  1
  O  O379  1  0.04600000  0.23922000  0.53235000  1
  O  O380  1  0.04075000  0.42282000  0.43839000  1
  O  O381  1  0.04075000  0.92282000  0.06161000  1
  O  O382  1  0.03612000  0.88164000  0.95007000  1
  O  O383  1  0.03612000  0.38164000  0.54993000  1
