# generated using pymatgen
data_FeAg2H8(C2N)8
_symmetry_space_group_name_H-M   'P 1'
_cell_length_a   9.80140000
_cell_length_b   15.47555277
_cell_length_c   15.47555277
_cell_angle_alpha   115.66732827
_cell_angle_beta   102.18774758
_cell_angle_gamma   102.18774758
_symmetry_Int_Tables_number   1
_chemical_formula_structural   FeAg2H8(C2N)8
_chemical_formula_sum   'Fe3 Ag6 H24 C48 N24'
_cell_volume   1942.27186220
_cell_formula_units_Z   3
loop_
 _symmetry_equiv_pos_site_id
 _symmetry_equiv_pos_as_xyz
  1  'x, y, z'
loop_
 _atom_site_type_symbol
 _atom_site_label
 _atom_site_symmetry_multiplicity
 _atom_site_fract_x
 _atom_site_fract_y
 _atom_site_fract_z
 _atom_site_occupancy
  Ag  Ag0  1  1.00000000  0.70273000  0.29727000  1
  Ag  Ag1  1  1.00000000  0.29727000  0.70273000  1
  Ag  Ag2  1  0.70273000  0.70273000  0.40546000  1
  Ag  Ag3  1  0.70273000  0.40546000  0.70273000  1
  Ag  Ag4  1  0.29727000  0.59454000  0.29727000  1
  Ag  Ag5  1  0.29727000  0.29727000  0.59454000  1
  C  C6  1  0.79860000  0.60220000  0.42390000  1
  C  C7  1  0.79860000  0.42390000  0.60220000  1
  C  C8  1  0.36680000  1.00000000  0.08630000  1
  C  C9  1  0.36680000  0.08630000  0.00000000  1
  C  C10  1  0.37430000  0.90900000  0.18660000  1
  C  C11  1  0.37430000  0.18660000  0.90900000  1
  C  C12  1  0.71950000  0.08630000  0.08630000  1
  C  C13  1  0.40200000  1.00000000  0.18410000  1
  C  C14  1  0.40200000  0.18410000  0.00000000  1
  C  C15  1  0.40680000  0.91140000  0.27780000  1
  C  C16  1  0.40680000  0.27780000  0.91140000  1
  C  C17  1  0.19640000  0.82170000  0.39780000  1
  C  C18  1  0.19640000  0.39780000  0.82170000  1
  C  C19  1  0.62530000  0.82170000  0.42390000  1
  C  C20  1  0.62530000  0.42390000  0.82170000  1
  C  C21  1  0.12900000  0.72220000  0.63360000  1
  C  C22  1  0.12900000  0.63360000  0.72220000  1
  C  C23  1  0.78210000  0.18410000  0.18410000  1
  C  C24  1  0.46530000  0.09100000  0.27760000  1
  C  C25  1  0.46530000  0.27760000  0.09100000  1
  C  C26  1  0.49540000  0.08860000  0.36640000  1
  C  C27  1  0.49540000  0.36640000  0.08860000  1
  C  C28  1  0.81230000  0.27760000  0.18660000  1
  C  C29  1  0.81230000  0.18660000  0.27760000  1
  C  C30  1  0.18770000  0.81340000  0.72240000  1
  C  C31  1  0.18770000  0.72240000  0.81340000  1
  C  C32  1  0.50460000  0.91140000  0.63360000  1
  C  C33  1  0.50460000  0.63360000  0.91140000  1
  C  C34  1  0.53470000  0.90900000  0.72240000  1
  C  C35  1  0.53470000  0.72240000  0.90900000  1
  C  C36  1  0.21790000  0.81590000  0.81590000  1
  C  C37  1  0.87100000  0.36640000  0.27780000  1
  C  C38  1  0.87100000  0.27780000  0.36640000  1
  C  C39  1  0.37470000  0.17830000  0.57610000  1
  C  C40  1  0.37470000  0.57610000  0.17830000  1
  C  C41  1  0.80360000  0.17830000  0.60220000  1
  C  C42  1  0.80360000  0.60220000  0.17830000  1
  C  C43  1  0.59320000  0.08860000  0.72220000  1
  C  C44  1  0.59320000  0.72220000  0.08860000  1
  C  C45  1  0.59800000  1.00000000  0.81590000  1
  C  C46  1  0.59800000  0.81590000  0.00000000  1
  C  C47  1  0.28050000  0.91370000  0.91370000  1
  C  C48  1  0.62570000  0.09100000  0.81340000  1
  C  C49  1  0.62570000  0.81340000  0.09100000  1
  C  C50  1  0.63320000  0.00000000  0.91370000  1
  C  C51  1  0.63320000  0.91370000  0.00000000  1
  C  C52  1  0.20140000  0.57610000  0.39780000  1
  C  C53  1  0.20140000  0.39780000  0.57610000  1
  Fe  Fe54  1  1.00000000  0.50000000  0.50000000  1
  Fe  Fe55  1  0.50000000  1.00000000  0.50000000  1
  Fe  Fe56  1  0.50000000  0.50000000  0.00000000  1
  H  H57  1  0.66650000  0.87400000  0.15340000  1
  H  H58  1  0.66650000  0.15340000  0.87400000  1
  H  H59  1  0.38790000  0.84990000  0.27780000  1
  H  H60  1  0.38790000  0.27780000  0.84990000  1
  H  H61  1  0.11010000  0.72220000  0.57210000  1
  H  H62  1  0.11010000  0.57210000  0.72220000  1
  H  H63  1  0.79250000  0.12600000  0.27940000  1
  H  H64  1  0.79250000  0.27940000  0.12600000  1
  H  H65  1  0.46200000  0.84990000  0.57210000  1
  H  H66  1  0.46200000  0.57210000  0.84990000  1
  H  H67  1  0.48690000  0.27940000  0.15340000  1
  H  H68  1  0.48690000  0.15340000  0.27940000  1
  H  H69  1  0.51310000  0.84660000  0.72060000  1
  H  H70  1  0.51310000  0.72060000  0.84660000  1
  H  H71  1  0.53800000  0.15010000  0.42790000  1
  H  H72  1  0.53800000  0.42790000  0.15010000  1
  H  H73  1  0.20750000  0.87400000  0.72060000  1
  H  H74  1  0.20750000  0.72060000  0.87400000  1
  H  H75  1  0.88990000  0.42790000  0.27780000  1
  H  H76  1  0.88990000  0.27780000  0.42790000  1
  H  H77  1  0.61210000  0.15010000  0.72220000  1
  H  H78  1  0.61210000  0.72220000  0.15010000  1
  H  H79  1  0.33350000  0.12600000  0.84660000  1
  H  H80  1  0.33350000  0.84660000  0.12600000  1
  N  N81  1  0.86550000  0.55920000  0.45070000  1
  N  N82  1  0.86550000  0.45070000  0.55920000  1
  N  N83  1  0.69125000  0.00000000  0.09055000  1
  N  N84  1  0.69125000  0.09055000  0.00000000  1
  N  N85  1  0.39930000  0.09055000  0.09055000  1
  N  N86  1  0.09690000  0.63110000  0.63110000  1
  N  N87  1  0.30630000  0.89150000  0.44080000  1
  N  N88  1  0.30630000  0.44080000  0.89150000  1
  N  N89  1  0.58520000  0.89150000  0.45070000  1
  N  N90  1  0.58520000  0.45070000  0.89150000  1
  N  N91  1  0.46580000  0.00000000  0.36890000  1
  N  N92  1  0.46580000  0.36890000  0.00000000  1
  N  N93  1  0.53420000  0.00000000  0.63110000  1
  N  N94  1  0.53420000  0.63110000  0.00000000  1
  N  N95  1  0.41480000  0.10850000  0.54930000  1
  N  N96  1  0.41480000  0.54930000  0.10850000  1
  N  N97  1  0.69370000  0.10850000  0.55920000  1
  N  N98  1  0.69370000  0.55920000  0.10850000  1
  N  N99  1  0.90310000  0.36890000  0.36890000  1
  N  N100  1  0.60070000  0.90945000  0.90945000  1
  N  N101  1  0.30875000  1.00000000  0.90945000  1
  N  N102  1  0.30875000  0.90945000  0.00000000  1
  N  N103  1  0.13450000  0.54930000  0.44080000  1
  N  N104  1  0.13450000  0.44080000  0.54930000  1
