# generated using pymatgen
data_Ni2H21C25N3O8
_symmetry_space_group_name_H-M   'P 1'
_cell_length_a   17.65740000
_cell_length_b   17.65740000
_cell_length_c   18.65180000
_cell_angle_alpha   90.00000000
_cell_angle_beta   90.00000000
_cell_angle_gamma   90.00000000
_symmetry_Int_Tables_number   1
_chemical_formula_structural   Ni2H21C25N3O8
_chemical_formula_sum   'Ni16 H168 C200 N24 O64'
_cell_volume   5815.32861007
_cell_formula_units_Z   8
loop_
 _symmetry_equiv_pos_site_id
 _symmetry_equiv_pos_as_xyz
  1  'x, y, z'
loop_
 _atom_site_type_symbol
 _atom_site_label
 _atom_site_symmetry_multiplicity
 _atom_site_fract_x
 _atom_site_fract_y
 _atom_site_fract_z
 _atom_site_occupancy
  Ni  Ni0  1  0.03293000  0.77608000  0.06345000  1
  Ni  Ni1  1  0.08006000  0.11779000  0.67630000  1
  Ni  Ni2  1  0.11779000  0.08006000  0.32370000  1
  Ni  Ni3  1  0.22392000  0.96707000  0.43655000  1
  Ni  Ni4  1  0.27608000  0.46707000  0.31345000  1
  Ni  Ni5  1  0.38221000  0.58006000  0.42630000  1
  Ni  Ni6  1  0.41994000  0.61779000  0.07370000  1
  Ni  Ni7  1  0.46707000  0.27608000  0.68655000  1
  Ni  Ni8  1  0.53293000  0.72392000  0.18655000  1
  Ni  Ni9  1  0.58006000  0.38221000  0.57370000  1
  Ni  Ni10  1  0.61779000  0.41994000  0.92630000  1
  Ni  Ni11  1  0.72392000  0.53293000  0.81345000  1
  Ni  Ni12  1  0.77608000  0.03293000  0.93655000  1
  Ni  Ni13  1  0.88221000  0.91994000  0.82370000  1
  Ni  Ni14  1  0.91994000  0.88221000  0.17630000  1
  Ni  Ni15  1  0.96707000  0.22392000  0.56345000  1
  H  H16  1  0.00750000  0.52010000  0.95560000  1
  H  H17  1  0.00790000  0.26020000  0.14220000  1
  H  H18  1  0.01040000  0.18450000  0.24060000  1
  H  H19  1  0.01550000  0.35450000  0.47870000  1
  H  H20  1  0.02010000  0.49250000  0.20560000  1
  H  H21  1  0.03090000  0.31520000  0.33870000  1
  H  H22  1  0.04070000  0.85600000  0.46950000  1
  H  H23  1  0.05150000  0.38150000  0.08240000  1
  H  H24  1  0.07350000  0.27660000  0.01240000  1
  H  H25  1  0.07430000  0.86510000  0.34550000  1
  H  H26  1  0.07620000  0.90820000  0.52850000  1
  H  H27  1  0.07810000  0.66830000  0.73690000  1
  H  H28  1  0.08390000  0.41180000  0.96290000  1
  H  H29  1  0.08820000  0.58390000  0.71290000  1
  H  H30  1  0.09180000  0.92380000  0.97150000  1
  H  H31  1  0.11290000  0.63730000  0.85330000  1
  H  H32  1  0.11850000  0.55150000  0.83240000  1
  H  H33  1  0.12700000  0.21820000  0.79920000  1
  H  H34  1  0.13490000  0.92570000  0.15450000  1
  H  H35  1  0.13730000  0.38710000  0.10330000  1
  H  H36  1  0.14400000  0.95930000  0.03050000  1
  H  H37  1  0.14480000  0.67310000  0.25050000  1
  H  H38  1  0.14550000  0.51550000  0.22870000  1
  H  H39  1  0.15550000  0.34340000  0.35870000  1
  H  H40  1  0.15660000  0.65550000  0.10870000  1
  H  H41  1  0.15780000  0.80090000  0.55320000  1
  H  H42  1  0.16130000  0.28590000  0.02040000  1
  H  H43  1  0.16830000  0.42190000  0.98690000  1
  H  H44  1  0.17310000  0.35520000  0.50050000  1
  H  H45  1  0.18450000  0.01040000  0.75940000  1
  H  H46  1  0.18480000  0.53090000  0.08870000  1
  H  H47  1  0.18520000  0.76140000  0.97980000  1
  H  H48  1  0.19910000  0.84220000  0.94680000  1
  H  H49  1  0.20180000  0.21890000  0.89980000  1
  H  H50  1  0.21410000  0.66130000  0.77040000  1
  H  H51  1  0.21820000  0.12700000  0.20080000  1
  H  H52  1  0.21890000  0.20180000  0.10020000  1
  H  H53  1  0.22340000  0.57350000  0.76240000  1
  H  H54  1  0.22460000  0.73230000  0.44480000  1
  H  H55  1  0.23230000  0.27540000  0.69480000  1
  H  H56  1  0.23860000  0.81480000  0.52020000  1
  H  H57  1  0.23980000  0.50790000  0.89220000  1
  H  H58  1  0.26020000  0.00790000  0.85780000  1
  H  H59  1  0.26140000  0.31480000  0.22980000  1
  H  H60  1  0.26770000  0.77540000  0.05520000  1
  H  H61  1  0.27540000  0.23230000  0.30520000  1
  H  H62  1  0.27660000  0.07350000  0.98760000  1
  H  H63  1  0.28110000  0.70180000  0.64980000  1
  H  H64  1  0.28180000  0.62700000  0.54920000  1
  H  H65  1  0.28590000  0.16130000  0.97960000  1
  H  H66  1  0.29820000  0.71890000  0.85020000  1
  H  H67  1  0.30090000  0.34220000  0.80320000  1
  H  H68  1  0.31480000  0.26140000  0.77020000  1
  H  H69  1  0.31520000  0.03090000  0.66130000  1
  H  H70  1  0.31550000  0.51040000  0.99060000  1
  H  H71  1  0.32690000  0.85520000  0.24950000  1
  H  H72  1  0.33170000  0.92190000  0.76310000  1
  H  H73  1  0.33870000  0.78590000  0.72960000  1
  H  H74  1  0.34220000  0.30090000  0.19680000  1
  H  H75  1  0.34340000  0.15550000  0.64130000  1
  H  H76  1  0.34450000  0.84340000  0.39130000  1
  H  H77  1  0.35450000  0.01550000  0.52130000  1
  H  H78  1  0.35520000  0.17310000  0.49950000  1
  H  H79  1  0.35600000  0.45930000  0.71950000  1
  H  H80  1  0.36270000  0.88710000  0.64670000  1
  H  H81  1  0.36510000  0.42570000  0.59550000  1
  H  H82  1  0.37300000  0.71820000  0.95080000  1
  H  H83  1  0.38150000  0.05150000  0.91760000  1
  H  H84  1  0.38710000  0.13730000  0.89670000  1
  H  H85  1  0.40820000  0.42380000  0.77850000  1
  H  H86  1  0.41180000  0.08390000  0.03710000  1
  H  H87  1  0.41610000  0.91180000  0.78710000  1
  H  H88  1  0.42190000  0.16830000  0.01310000  1
  H  H89  1  0.42380000  0.40820000  0.22150000  1
  H  H90  1  0.42570000  0.36510000  0.40450000  1
  H  H91  1  0.42650000  0.77660000  0.73760000  1
  H  H92  1  0.44850000  0.88150000  0.66760000  1
  H  H93  1  0.45930000  0.35600000  0.28050000  1
  H  H94  1  0.46910000  0.81520000  0.41130000  1
  H  H95  1  0.47990000  0.99250000  0.54440000  1
  H  H96  1  0.48450000  0.85450000  0.27130000  1
  H  H97  1  0.48960000  0.68450000  0.50940000  1
  H  H98  1  0.49210000  0.76020000  0.60780000  1
  H  H99  1  0.49250000  0.02010000  0.79440000  1
  H  H100  1  0.50750000  0.97990000  0.29440000  1
  H  H101  1  0.50790000  0.23980000  0.10780000  1
  H  H102  1  0.51040000  0.31550000  0.00940000  1
  H  H103  1  0.51550000  0.14550000  0.77130000  1
  H  H104  1  0.52010000  0.00750000  0.04440000  1
  H  H105  1  0.53090000  0.18480000  0.91130000  1
  H  H106  1  0.54070000  0.64400000  0.78050000  1
  H  H107  1  0.55150000  0.11850000  0.16760000  1
  H  H108  1  0.57350000  0.22340000  0.23760000  1
  H  H109  1  0.57430000  0.63490000  0.90450000  1
  H  H110  1  0.57620000  0.59180000  0.72150000  1
  H  H111  1  0.57810000  0.83170000  0.51310000  1
  H  H112  1  0.58390000  0.08820000  0.28710000  1
  H  H113  1  0.58820000  0.91610000  0.53710000  1
  H  H114  1  0.59180000  0.57620000  0.27850000  1
  H  H115  1  0.61290000  0.86270000  0.39670000  1
  H  H116  1  0.61850000  0.94850000  0.41760000  1
  H  H117  1  0.62700000  0.28180000  0.45080000  1
  H  H118  1  0.63490000  0.57430000  0.09550000  1
  H  H119  1  0.63730000  0.11290000  0.14670000  1
  H  H120  1  0.64400000  0.54070000  0.21950000  1
  H  H121  1  0.64480000  0.82690000  0.99950000  1
  H  H122  1  0.64550000  0.98450000  0.02130000  1
  H  H123  1  0.65550000  0.15660000  0.89130000  1
  H  H124  1  0.65660000  0.84450000  0.14130000  1
  H  H125  1  0.65780000  0.69910000  0.69680000  1
  H  H126  1  0.66130000  0.21410000  0.22960000  1
  H  H127  1  0.66830000  0.07810000  0.26310000  1
  H  H128  1  0.67310000  0.14480000  0.74950000  1
  H  H129  1  0.68450000  0.48960000  0.49060000  1
  H  H130  1  0.68480000  0.96910000  0.16130000  1
  H  H131  1  0.68520000  0.73860000  0.27020000  1
  H  H132  1  0.69910000  0.65780000  0.30320000  1
  H  H133  1  0.70180000  0.28110000  0.35020000  1
  H  H134  1  0.71410000  0.83870000  0.47960000  1
  H  H135  1  0.71820000  0.37300000  0.04920000  1
  H  H136  1  0.71890000  0.29820000  0.14980000  1
  H  H137  1  0.72340000  0.92650000  0.48760000  1
  H  H138  1  0.72460000  0.76770000  0.80520000  1
  H  H139  1  0.73230000  0.22460000  0.55520000  1
  H  H140  1  0.73860000  0.68520000  0.72980000  1
  H  H141  1  0.73980000  0.99210000  0.35780000  1
  H  H142  1  0.76020000  0.49210000  0.39220000  1
  H  H143  1  0.76140000  0.18520000  0.02020000  1
  H  H144  1  0.76770000  0.72460000  0.19480000  1
  H  H145  1  0.77540000  0.26770000  0.94480000  1
  H  H146  1  0.77660000  0.42650000  0.26240000  1
  H  H147  1  0.78110000  0.79820000  0.60020000  1
  H  H148  1  0.78180000  0.87300000  0.70080000  1
  H  H149  1  0.78590000  0.33870000  0.27040000  1
  H  H150  1  0.79820000  0.78110000  0.39980000  1
  H  H151  1  0.80090000  0.15780000  0.44680000  1
  H  H152  1  0.81480000  0.23860000  0.47980000  1
  H  H153  1  0.81520000  0.46910000  0.58870000  1
  H  H154  1  0.81550000  0.98960000  0.25940000  1
  H  H155  1  0.82690000  0.64480000  0.00050000  1
  H  H156  1  0.83170000  0.57810000  0.48690000  1
  H  H157  1  0.83870000  0.71410000  0.52040000  1
  H  H158  1  0.84220000  0.19910000  0.05320000  1
  H  H159  1  0.84340000  0.34450000  0.60870000  1
  H  H160  1  0.84450000  0.65660000  0.85870000  1
  H  H161  1  0.85450000  0.48450000  0.72870000  1
  H  H162  1  0.85520000  0.32690000  0.75050000  1
  H  H163  1  0.85600000  0.04070000  0.53050000  1
  H  H164  1  0.86270000  0.61290000  0.60330000  1
  H  H165  1  0.86510000  0.07430000  0.65450000  1
  H  H166  1  0.87300000  0.78180000  0.29920000  1
  H  H167  1  0.88150000  0.44850000  0.33240000  1
  H  H168  1  0.88710000  0.36270000  0.35330000  1
  H  H169  1  0.90820000  0.07620000  0.47150000  1
  H  H170  1  0.91180000  0.41610000  0.21290000  1
  H  H171  1  0.91610000  0.58820000  0.46290000  1
  H  H172  1  0.92190000  0.33170000  0.23690000  1
  H  H173  1  0.92380000  0.09180000  0.02850000  1
  H  H174  1  0.92570000  0.13490000  0.84550000  1
  H  H175  1  0.92650000  0.72340000  0.51240000  1
  H  H176  1  0.94850000  0.61850000  0.58240000  1
  H  H177  1  0.95930000  0.14400000  0.96950000  1
  H  H178  1  0.96910000  0.68480000  0.83870000  1
  H  H179  1  0.97990000  0.50750000  0.70560000  1
  H  H180  1  0.98450000  0.64550000  0.97870000  1
  H  H181  1  0.98960000  0.81550000  0.74060000  1
  H  H182  1  0.99210000  0.73980000  0.64220000  1
  H  H183  1  0.99250000  0.47990000  0.45560000  1
  C  C184  1  0.01000000  0.39910000  0.26900000  1
  C  C185  1  0.02570000  0.62220000  0.00050000  1
  C  C186  1  0.03570000  0.94020000  0.06680000  1
  C  C187  1  0.03920000  0.54670000  0.98650000  1
  C  C188  1  0.04670000  0.46080000  0.23650000  1
  C  C189  1  0.05180000  0.23330000  0.15250000  1
  C  C190  1  0.05280000  0.35610000  0.31510000  1
  C  C191  1  0.05280000  0.79380000  0.22420000  1
  C  C192  1  0.05360000  0.18750000  0.21220000  1
  C  C193  1  0.05980000  0.96430000  0.43320000  1
  C  C194  1  0.07290000  0.61610000  0.75240000  1
  C  C195  1  0.07850000  0.89480000  0.47820000  1
  C  C196  1  0.09380000  0.79980000  0.92190000  1
  C  C197  1  0.10090000  0.51000000  0.01900000  1
  C  C198  1  0.10260000  0.37430000  0.06480000  1
  C  C199  1  0.10280000  0.77310000  0.28782000  1
  C  C200  1  0.10490000  0.82220000  0.34600000  1
  C  C201  1  0.10520000  0.92150000  0.02180000  1
  C  C202  1  0.11230000  0.24030000  0.10870000  1
  C  C203  1  0.11340000  0.29160000  0.04520000  1
  C  C204  1  0.11610000  0.42710000  0.00240000  1
  C  C205  1  0.12120000  0.26260000  0.60480000  1
  C  C206  1  0.12220000  0.47430000  0.25050000  1
  C  C207  1  0.12570000  0.60260000  0.81480000  1
  C  C208  1  0.12690000  0.62810000  0.07670000  1
  C  C209  1  0.12810000  0.37310000  0.32670000  1
  C  C210  1  0.14390000  0.55280000  0.06510000  1
  C  C211  1  0.14610000  0.70660000  0.28890000  1
  C  C212  1  0.15150000  0.80893000  0.40508000  1
  C  C213  1  0.15390000  0.17470000  0.81110000  1
  C  C214  1  0.16190000  0.81010000  0.97010000  1
  C  C215  1  0.17470000  0.15390000  0.18890000  1
  C  C216  1  0.17540000  0.19910000  0.12820000  1
  C  C217  1  0.17780000  0.89510000  0.15400000  1
  C  C218  1  0.18750000  0.05360000  0.78780000  1
  C  C219  1  0.18990000  0.83810000  0.52990000  1
  C  C220  1  0.19107000  0.84850000  0.09492000  1
  C  C221  1  0.19110000  0.69170000  0.34850000  1
  C  C222  1  0.19170000  0.30890000  0.59850000  1
  C  C223  1  0.19380000  0.74280000  0.40560000  1
  C  C224  1  0.19910000  0.17540000  0.87180000  1
  C  C225  1  0.20020000  0.90620000  0.57810000  1
  C  C226  1  0.20620000  0.94720000  0.27580000  1
  C  C227  1  0.20660000  0.35390000  0.53890000  1
  C  C228  1  0.20840000  0.61340000  0.79520000  1
  C  C229  1  0.22690000  0.89720000  0.21218000  1
  C  C230  1  0.23330000  0.05180000  0.84750000  1
  C  C231  1  0.23740000  0.62120000  0.35480000  1
  C  C232  1  0.24030000  0.11230000  0.89130000  1
  C  C233  1  0.24280000  0.30620000  0.65560000  1
  C  C234  1  0.25720000  0.80620000  0.09440000  1
  C  C235  1  0.25970000  0.61230000  0.85870000  1
  C  C236  1  0.26260000  0.12120000  0.39520000  1
  C  C237  1  0.26670000  0.55180000  0.90250000  1
  C  C238  1  0.27310000  0.39720000  0.53782000  1
  C  C239  1  0.29160000  0.11340000  0.95480000  1
  C  C240  1  0.29340000  0.85390000  0.21110000  1
  C  C241  1  0.29380000  0.44720000  0.47420000  1
  C  C242  1  0.29980000  0.40620000  0.17190000  1
  C  C243  1  0.30090000  0.67540000  0.87820000  1
  C  C244  1  0.30620000  0.24280000  0.34440000  1
  C  C245  1  0.30830000  0.80890000  0.15150000  1
  C  C246  1  0.30890000  0.19170000  0.40150000  1
  C  C247  1  0.30893000  0.34850000  0.65508000  1
  C  C248  1  0.31010000  0.33810000  0.22010000  1
  C  C249  1  0.31250000  0.55360000  0.96220000  1
  C  C250  1  0.32220000  0.39510000  0.59600000  1
  C  C251  1  0.32460000  0.69910000  0.62180000  1
  C  C252  1  0.32530000  0.65390000  0.56110000  1
  C  C253  1  0.33810000  0.31010000  0.77990000  1
  C  C254  1  0.34610000  0.67470000  0.93890000  1
  C  C255  1  0.34850000  0.30893000  0.34492000  1
  C  C256  1  0.35390000  0.20660000  0.46110000  1
  C  C257  1  0.35610000  0.05280000  0.68490000  1
  C  C258  1  0.37190000  0.87310000  0.42330000  1
  C  C259  1  0.37310000  0.12810000  0.67330000  1
  C  C260  1  0.37430000  0.10260000  0.93520000  1
  C  C261  1  0.37780000  0.97430000  0.49950000  1
  C  C262  1  0.37880000  0.76260000  0.14520000  1
  C  C263  1  0.38390000  0.92710000  0.74760000  1
  C  C264  1  0.38660000  0.79160000  0.70480000  1
  C  C265  1  0.38770000  0.74030000  0.64130000  1
  C  C266  1  0.39480000  0.42150000  0.72820000  1
  C  C267  1  0.39510000  0.32220000  0.40400000  1
  C  C268  1  0.39720000  0.27310000  0.46218000  1
  C  C269  1  0.39740000  0.87430000  0.68520000  1
  C  C270  1  0.39910000  0.01000000  0.73100000  1
  C  C271  1  0.40620000  0.29980000  0.82810000  1
  C  C272  1  0.42150000  0.39480000  0.27180000  1
  C  C273  1  0.42710000  0.11610000  0.99760000  1
  C  C274  1  0.44020000  0.46430000  0.31680000  1
  C  C275  1  0.44640000  0.68750000  0.53780000  1
  C  C276  1  0.44720000  0.29380000  0.52580000  1
  C  C277  1  0.44720000  0.85610000  0.43490000  1
  C  C278  1  0.44820000  0.73330000  0.59750000  1
  C  C279  1  0.45330000  0.96080000  0.51350000  1
  C  C280  1  0.46080000  0.04670000  0.76350000  1
  C  C281  1  0.46430000  0.44020000  0.68320000  1
  C  C282  1  0.47430000  0.12220000  0.74950000  1
  C  C283  1  0.49000000  0.89910000  0.48100000  1
  C  C284  1  0.51000000  0.10090000  0.98100000  1
  C  C285  1  0.52570000  0.87780000  0.24950000  1
  C  C286  1  0.53570000  0.55980000  0.18320000  1
  C  C287  1  0.53920000  0.95330000  0.26350000  1
  C  C288  1  0.54670000  0.03920000  0.01350000  1
  C  C289  1  0.55180000  0.26670000  0.09750000  1
  C  C290  1  0.55280000  0.14390000  0.93490000  1
  C  C291  1  0.55280000  0.70620000  0.02580000  1
  C  C292  1  0.55360000  0.31250000  0.03780000  1
  C  C293  1  0.55980000  0.53570000  0.81680000  1
  C  C294  1  0.57290000  0.88390000  0.49760000  1
  C  C295  1  0.57850000  0.60520000  0.77180000  1
  C  C296  1  0.59380000  0.70020000  0.32810000  1
  C  C297  1  0.60090000  0.99000000  0.23100000  1
  C  C298  1  0.60260000  0.12570000  0.18520000  1
  C  C299  1  0.60280000  0.72690000  0.96218000  1
  C  C300  1  0.60490000  0.67780000  0.90400000  1
  C  C301  1  0.60520000  0.57850000  0.22820000  1
  C  C302  1  0.61230000  0.25970000  0.14130000  1
  C  C303  1  0.61340000  0.20840000  0.20480000  1
  C  C304  1  0.61610000  0.07290000  0.24760000  1
  C  C305  1  0.62120000  0.23740000  0.64520000  1
  C  C306  1  0.62220000  0.02570000  0.99950000  1
  C  C307  1  0.62570000  0.89740000  0.43520000  1
  C  C308  1  0.62690000  0.87190000  0.17330000  1
  C  C309  1  0.62810000  0.12690000  0.92330000  1
  C  C310  1  0.64390000  0.94720000  0.18490000  1
  C  C311  1  0.64610000  0.79340000  0.96110000  1
  C  C312  1  0.65150000  0.69107000  0.84492000  1
  C  C313  1  0.65390000  0.32530000  0.43890000  1
  C  C314  1  0.66190000  0.68990000  0.27990000  1
  C  C315  1  0.67470000  0.34610000  0.06110000  1
  C  C316  1  0.67540000  0.30090000  0.12180000  1
  C  C317  1  0.67780000  0.60490000  0.09600000  1
  C  C318  1  0.68750000  0.44640000  0.46220000  1
  C  C319  1  0.68990000  0.66190000  0.72010000  1
  C  C320  1  0.69107000  0.65150000  0.15508000  1
  C  C321  1  0.69110000  0.80830000  0.90150000  1
  C  C322  1  0.69170000  0.19110000  0.65150000  1
  C  C323  1  0.69380000  0.75720000  0.84440000  1
  C  C324  1  0.69910000  0.32460000  0.37820000  1
  C  C325  1  0.70020000  0.59380000  0.67190000  1
  C  C326  1  0.70620000  0.55280000  0.97420000  1
  C  C327  1  0.70660000  0.14610000  0.71110000  1
  C  C328  1  0.70840000  0.88660000  0.45480000  1
  C  C329  1  0.72690000  0.60280000  0.03782000  1
  C  C330  1  0.73330000  0.44820000  0.40250000  1
  C  C331  1  0.73740000  0.87880000  0.89520000  1
  C  C332  1  0.74030000  0.38770000  0.35870000  1
  C  C333  1  0.74280000  0.19380000  0.59440000  1
  C  C334  1  0.75720000  0.69380000  0.15560000  1
  C  C335  1  0.75970000  0.88770000  0.39130000  1
  C  C336  1  0.76260000  0.37880000  0.85480000  1
  C  C337  1  0.76670000  0.94820000  0.34750000  1
  C  C338  1  0.77310000  0.10280000  0.71218000  1
  C  C339  1  0.79160000  0.38660000  0.29520000  1
  C  C340  1  0.79340000  0.64610000  0.03890000  1
  C  C341  1  0.79380000  0.05280000  0.77580000  1
  C  C342  1  0.79980000  0.09380000  0.07810000  1
  C  C343  1  0.80090000  0.82460000  0.37180000  1
  C  C344  1  0.80620000  0.25720000  0.90560000  1
  C  C345  1  0.80830000  0.69110000  0.09850000  1
  C  C346  1  0.80890000  0.30830000  0.84850000  1
  C  C347  1  0.80893000  0.15150000  0.59492000  1
  C  C348  1  0.81010000  0.16190000  0.02990000  1
  C  C349  1  0.81250000  0.94640000  0.28780000  1
  C  C350  1  0.82220000  0.10490000  0.65400000  1
  C  C351  1  0.82460000  0.80090000  0.62820000  1
  C  C352  1  0.82530000  0.84610000  0.68890000  1
  C  C353  1  0.83810000  0.18990000  0.47010000  1
  C  C354  1  0.84610000  0.82530000  0.31110000  1
  C  C355  1  0.84850000  0.19107000  0.90508000  1
  C  C356  1  0.85390000  0.29340000  0.78890000  1
  C  C357  1  0.85610000  0.44720000  0.56510000  1
  C  C358  1  0.87190000  0.62690000  0.82670000  1
  C  C359  1  0.87310000  0.37190000  0.57670000  1
  C  C360  1  0.87430000  0.39740000  0.31480000  1
  C  C361  1  0.87780000  0.52570000  0.75050000  1
  C  C362  1  0.87880000  0.73740000  0.10480000  1
  C  C363  1  0.88390000  0.57290000  0.50240000  1
  C  C364  1  0.88660000  0.70840000  0.54520000  1
  C  C365  1  0.88770000  0.75970000  0.60870000  1
  C  C366  1  0.89480000  0.07850000  0.52180000  1
  C  C367  1  0.89510000  0.17780000  0.84600000  1
  C  C368  1  0.89720000  0.22690000  0.78782000  1
  C  C369  1  0.89740000  0.62570000  0.56480000  1
  C  C370  1  0.89910000  0.49000000  0.51900000  1
  C  C371  1  0.90620000  0.20020000  0.42190000  1
  C  C372  1  0.92150000  0.10520000  0.97820000  1
  C  C373  1  0.92710000  0.38390000  0.25240000  1
  C  C374  1  0.94020000  0.03570000  0.93320000  1
  C  C375  1  0.94640000  0.81250000  0.71220000  1
  C  C376  1  0.94720000  0.20620000  0.72420000  1
  C  C377  1  0.94720000  0.64390000  0.81510000  1
  C  C378  1  0.94820000  0.76670000  0.65250000  1
  C  C379  1  0.95330000  0.53920000  0.73650000  1
  C  C380  1  0.96080000  0.45330000  0.48650000  1
  C  C381  1  0.96430000  0.05980000  0.56680000  1
  C  C382  1  0.97430000  0.37780000  0.50050000  1
  C  C383  1  0.99000000  0.60090000  0.76900000  1
  N  N384  1  0.06930000  0.66330000  0.04393000  1
  N  N385  1  0.11390000  0.14760000  0.23105000  1
  N  N386  1  0.13659000  0.84531000  0.03793000  1
  N  N387  1  0.14760000  0.11390000  0.76895000  1
  N  N388  1  0.15469000  0.86341000  0.46207000  1
  N  N389  1  0.16330000  0.43070000  0.29393000  1
  N  N390  1  0.33670000  0.93070000  0.45607000  1
  N  N391  1  0.34531000  0.36341000  0.28793000  1
  N  N392  1  0.35240000  0.61390000  0.98105000  1
  N  N393  1  0.36341000  0.34531000  0.71207000  1
  N  N394  1  0.38610000  0.64760000  0.51895000  1
  N  N395  1  0.43070000  0.16330000  0.70607000  1
  N  N396  1  0.56930000  0.83670000  0.20607000  1
  N  N397  1  0.61390000  0.35240000  0.01895000  1
  N  N398  1  0.63659000  0.65469000  0.21207000  1
  N  N399  1  0.64760000  0.38610000  0.48105000  1
  N  N400  1  0.65469000  0.63659000  0.78793000  1
  N  N401  1  0.66330000  0.06930000  0.95607000  1
  N  N402  1  0.83670000  0.56930000  0.79393000  1
  N  N403  1  0.84531000  0.13659000  0.96207000  1
  N  N404  1  0.85240000  0.88610000  0.26895000  1
  N  N405  1  0.86341000  0.15469000  0.53793000  1
  N  N406  1  0.88610000  0.85240000  0.73105000  1
  N  N407  1  0.93070000  0.33670000  0.54393000  1
  O  O408  1  0.00542000  0.11611000  0.58630000  1
  O  O409  1  0.00657000  0.02343000  0.91875000  1
  O  O410  1  0.00910000  0.84884000  0.23477000  1
  O  O411  1  0.02343000  0.00657000  0.08125000  1
  O  O412  1  0.02965000  0.78948000  0.95310000  1
  O  O413  1  0.06059000  0.75650000  0.16766000  1
  O  O414  1  0.07517000  0.26220000  0.55382000  1
  O  O415  1  0.10180000  0.80150000  0.85671000  1
  O  O416  1  0.11231000  0.22737000  0.66246000  1
  O  O417  1  0.11611000  0.00542000  0.41370000  1
  O  O418  1  0.15116000  0.99090000  0.26523000  1
  O  O419  1  0.19850000  0.89820000  0.64329000  1
  O  O420  1  0.21052000  0.97035000  0.54690000  1
  O  O421  1  0.22737000  0.11231000  0.33754000  1
  O  O422  1  0.23780000  0.57517000  0.30382000  1
  O  O423  1  0.24350000  0.93941000  0.33234000  1
  O  O424  1  0.25650000  0.43941000  0.41766000  1
  O  O425  1  0.26220000  0.07517000  0.44618000  1
  O  O426  1  0.27263000  0.61231000  0.41246000  1
  O  O427  1  0.28948000  0.47035000  0.20310000  1
  O  O428  1  0.30150000  0.39820000  0.10671000  1
  O  O429  1  0.34884000  0.49090000  0.48477000  1
  O  O430  1  0.38389000  0.50542000  0.33630000  1
  O  O431  1  0.38769000  0.72737000  0.08754000  1
  O  O432  1  0.39820000  0.30150000  0.89329000  1
  O  O433  1  0.42483000  0.76220000  0.19618000  1
  O  O434  1  0.43941000  0.25650000  0.58234000  1
  O  O435  1  0.47035000  0.28948000  0.79690000  1
  O  O436  1  0.47657000  0.50657000  0.66875000  1
  O  O437  1  0.49090000  0.34884000  0.51523000  1
  O  O438  1  0.49343000  0.52343000  0.83125000  1
  O  O439  1  0.49458000  0.61611000  0.16370000  1
  O  O440  1  0.50542000  0.38389000  0.66370000  1
  O  O441  1  0.50657000  0.47657000  0.33125000  1
  O  O442  1  0.50910000  0.65116000  0.01523000  1
  O  O443  1  0.52343000  0.49343000  0.16875000  1
  O  O444  1  0.52965000  0.71052000  0.29690000  1
  O  O445  1  0.56059000  0.74350000  0.08234000  1
  O  O446  1  0.57517000  0.23780000  0.69618000  1
  O  O447  1  0.60180000  0.69850000  0.39329000  1
  O  O448  1  0.61231000  0.27263000  0.58754000  1
  O  O449  1  0.61611000  0.49458000  0.83630000  1
  O  O450  1  0.65116000  0.50910000  0.98477000  1
  O  O451  1  0.69850000  0.60180000  0.60671000  1
  O  O452  1  0.71052000  0.52965000  0.70310000  1
  O  O453  1  0.72737000  0.38769000  0.91246000  1
  O  O454  1  0.73780000  0.92483000  0.94618000  1
  O  O455  1  0.74350000  0.56059000  0.91766000  1
  O  O456  1  0.75650000  0.06059000  0.83234000  1
  O  O457  1  0.76220000  0.42483000  0.80382000  1
  O  O458  1  0.77263000  0.88769000  0.83754000  1
  O  O459  1  0.78948000  0.02965000  0.04690000  1
  O  O460  1  0.80150000  0.10180000  0.14329000  1
  O  O461  1  0.84884000  0.00910000  0.76523000  1
  O  O462  1  0.88389000  0.99458000  0.91370000  1
  O  O463  1  0.88769000  0.77263000  0.16246000  1
  O  O464  1  0.89820000  0.19850000  0.35671000  1
  O  O465  1  0.92483000  0.73780000  0.05382000  1
  O  O466  1  0.93941000  0.24350000  0.66766000  1
  O  O467  1  0.97035000  0.21052000  0.45310000  1
  O  O468  1  0.97657000  0.99343000  0.58125000  1
  O  O469  1  0.99090000  0.15116000  0.73477000  1
  O  O470  1  0.99343000  0.97657000  0.41875000  1
  O  O471  1  0.99458000  0.88389000  0.08630000  1
