# generated using pymatgen
data_Cu2H11C19(NO3)2
_symmetry_space_group_name_H-M   'P 1'
_cell_length_a   9.86981218
_cell_length_b   9.86981218
_cell_length_c   11.36580000
_cell_angle_alpha   96.82921149
_cell_angle_beta   96.82921149
_cell_angle_gamma   109.80133169
_symmetry_Int_Tables_number   1
_chemical_formula_structural   Cu2H11C19(NO3)2
_chemical_formula_sum   'Cu4 H22 C38 N4 O12'
_cell_volume   1019.19567196
_cell_formula_units_Z   2
loop_
 _symmetry_equiv_pos_site_id
 _symmetry_equiv_pos_as_xyz
  1  'x, y, z'
loop_
 _atom_site_type_symbol
 _atom_site_label
 _atom_site_symmetry_multiplicity
 _atom_site_fract_x
 _atom_site_fract_y
 _atom_site_fract_z
 _atom_site_occupancy
  C  C0  1  0.94786000  0.05214000  0.75000000  1
  C  C1  1  0.85389000  0.14611000  0.75000000  1
  C  C2  1  0.68020000  0.31980000  0.75000000  1
  C  C3  1  0.31980000  0.68020000  0.25000000  1
  C  C4  1  0.14611000  0.85389000  0.25000000  1
  C  C5  1  0.05214000  0.94786000  0.25000000  1
  C  C6  1  0.68574000  0.23966000  0.84100000  1
  C  C7  1  0.23966000  0.68574000  0.34100000  1
  C  C8  1  0.77230000  0.15308000  0.84193000  1
  C  C9  1  0.15308000  0.77230000  0.34193000  1
  C  C10  1  0.77378000  0.07150000  0.94416000  1
  C  C11  1  0.07150000  0.77378000  0.44416000  1
  C  C12  1  0.61004000  0.06896000  0.26480000  1
  C  C13  1  0.06896000  0.61004000  0.76480000  1
  C  C14  1  0.70670000  0.91450000  0.35030000  1
  C  C15  1  0.91450000  0.70670000  0.85030000  1
  C  C16  1  0.53310000  0.07690000  0.35720000  1
  C  C17  1  0.07690000  0.53310000  0.85720000  1
  C  C18  1  0.63267000  0.91773000  0.44540000  1
  C  C19  1  0.91773000  0.63267000  0.94540000  1
  C  C20  1  0.54167000  0.99839000  0.45004000  1
  C  C21  1  0.99839000  0.54167000  0.95004000  1
  C  C22  1  0.45833000  0.00161000  0.54996000  1
  C  C23  1  0.00161000  0.45833000  0.04996000  1
  C  C24  1  0.36733000  0.08227000  0.55460000  1
  C  C25  1  0.08227000  0.36733000  0.05460000  1
  C  C26  1  0.46690000  0.92310000  0.64280000  1
  C  C27  1  0.92310000  0.46690000  0.14280000  1
  C  C28  1  0.29330000  0.08550000  0.64970000  1
  C  C29  1  0.08550000  0.29330000  0.14970000  1
  C  C30  1  0.38996000  0.93104000  0.73520000  1
  C  C31  1  0.93104000  0.38996000  0.23520000  1
  C  C32  1  0.22622000  0.92850000  0.05584000  1
  C  C33  1  0.92850000  0.22622000  0.55584000  1
  C  C34  1  0.22770000  0.84692000  0.15807000  1
  C  C35  1  0.84692000  0.22770000  0.65807000  1
  C  C36  1  0.31426000  0.76034000  0.15900000  1
  C  C37  1  0.76034000  0.31426000  0.65900000  1
  Cu  Cu38  1  0.78273000  0.96241000  0.11627000  1
  Cu  Cu39  1  0.96241000  0.78273000  0.61627000  1
  Cu  Cu40  1  0.21727000  0.03759000  0.88373000  1
  Cu  Cu41  1  0.03759000  0.21727000  0.38373000  1
  H  H42  1  0.62260000  0.37740000  0.75000000  1
  H  H43  1  0.37740000  0.62260000  0.25000000  1
  H  H44  1  0.63150000  0.24330000  0.90210000  1
  H  H45  1  0.24330000  0.63150000  0.40210000  1
  H  H46  1  0.60270000  0.12170000  0.20320000  1
  H  H47  1  0.12170000  0.60270000  0.70320000  1
  H  H48  1  0.76660000  0.85940000  0.34860000  1
  H  H49  1  0.85940000  0.76660000  0.84860000  1
  H  H50  1  0.47550000  0.13450000  0.35750000  1
  H  H51  1  0.13450000  0.47550000  0.85750000  1
  H  H52  1  0.64370000  0.86570000  0.50670000  1
  H  H53  1  0.86570000  0.64370000  0.00670000  1
  H  H54  1  0.35630000  0.13430000  0.49330000  1
  H  H55  1  0.13430000  0.35630000  0.99330000  1
  H  H56  1  0.52450000  0.86550000  0.64250000  1
  H  H57  1  0.86550000  0.52450000  0.14250000  1
  H  H58  1  0.23340000  0.14060000  0.65140000  1
  H  H59  1  0.14060000  0.23340000  0.15140000  1
  H  H60  1  0.39730000  0.87830000  0.79680000  1
  H  H61  1  0.87830000  0.39730000  0.29680000  1
  H  H62  1  0.36850000  0.75670000  0.09790000  1
  H  H63  1  0.75670000  0.36850000  0.59790000  1
  N  N64  1  0.69498000  0.98840000  0.26003000  1
  N  N65  1  0.98840000  0.69498000  0.76003000  1
  N  N66  1  0.30502000  0.01160000  0.73997000  1
  N  N67  1  0.01160000  0.30502000  0.23997000  1
  O  O68  1  0.84676000  0.99012000  0.95398000  1
  O  O69  1  0.99012000  0.84676000  0.45398000  1
  O  O70  1  0.88879000  0.92649000  0.68950000  1
  O  O71  1  0.92649000  0.88879000  0.18950000  1
  O  O72  1  0.70206000  0.08750000  0.02638000  1
  O  O73  1  0.08750000  0.70206000  0.52638000  1
  O  O74  1  0.29794000  0.91250000  0.97362000  1
  O  O75  1  0.91250000  0.29794000  0.47362000  1
  O  O76  1  0.11121000  0.07351000  0.31050000  1
  O  O77  1  0.07351000  0.11121000  0.81050000  1
  O  O78  1  0.15324000  0.00988000  0.04602000  1
  O  O79  1  0.00988000  0.15324000  0.54602000  1
