# generated using pymatgen
data_ZnH8C12(NO2)2
_symmetry_space_group_name_H-M   'P 1'
_cell_length_a   6.91830000
_cell_length_b   15.48870000
_cell_length_c   15.48870213
_cell_angle_alpha   87.14104028
_cell_angle_beta   77.09506566
_cell_angle_gamma   77.09510000
_symmetry_Int_Tables_number   1
_chemical_formula_structural   ZnH8C12(NO2)2
_chemical_formula_sum   'Zn4 H32 C48 N8 O16'
_cell_volume   1576.91677395
_cell_formula_units_Z   4
loop_
 _symmetry_equiv_pos_site_id
 _symmetry_equiv_pos_as_xyz
  1  'x, y, z'
loop_
 _atom_site_type_symbol
 _atom_site_label
 _atom_site_symmetry_multiplicity
 _atom_site_fract_x
 _atom_site_fract_y
 _atom_site_fract_z
 _atom_site_occupancy
  Zn  Zn0  1  0.12500000  0.73923000  0.76077000  1
  Zn  Zn1  1  0.13577000  0.23923000  0.73923000  1
  Zn  Zn2  1  0.62500000  0.26077000  0.23923000  1
  Zn  Zn3  1  0.11423000  0.76077000  0.26077000  1
  H  H4  1  0.47340000  0.75260000  0.48880000  1
  H  H5  1  0.35640000  0.24550000  0.55090000  1
  H  H6  1  0.85190000  0.25450000  0.05090000  1
  H  H7  1  0.09270000  0.55090000  0.75450000  1
  H  H8  1  0.09720000  0.05090000  0.74550000  1
  H  H9  1  0.53520000  0.98880000  0.25260000  1
  H  H10  1  0.46380000  0.84750000  0.26250000  1
  H  H11  1  0.61100000  0.75210000  0.11250000  1
  H  H12  1  0.39810000  0.44910000  0.24550000  1
  H  H13  1  0.15280000  0.75450000  0.44910000  1
  H  H14  1  0.68870000  0.73750000  0.84750000  1
  H  H15  1  0.77400000  0.51120000  0.75260000  1
  H  H16  1  0.27650000  0.11250000  0.24790000  1
  H  H17  1  0.77660000  0.01120000  0.74740000  1
  H  H18  1  0.47600000  0.74740000  0.98880000  1
  H  H19  1  0.78620000  0.23750000  0.65250000  1
  H  H20  1  0.27370000  0.26250000  0.15250000  1
  H  H21  1  0.63690000  0.88750000  0.75210000  1
  H  H22  1  0.63900000  0.38750000  0.74790000  1
  H  H23  1  0.47560000  0.24790000  0.88750000  1
  H  H24  1  0.97350000  0.25210000  0.38750000  1
  H  H25  1  0.56130000  0.65250000  0.76250000  1
  H  H26  1  0.57380000  0.15250000  0.73750000  1
  H  H27  1  0.03780000  0.48880000  0.24740000  1
  H  H28  1  0.71480000  0.24740000  0.51120000  1
  H  H29  1  0.61310000  0.74790000  0.61250000  1
  H  H30  1  0.21220000  0.25260000  0.01120000  1
  H  H31  1  0.97630000  0.34750000  0.23750000  1
  H  H32  1  0.89360000  0.94910000  0.25450000  1
  H  H33  1  0.15730000  0.74550000  0.94910000  1
  H  H34  1  0.77440000  0.61250000  0.25210000  1
  H  H35  1  0.67620000  0.76250000  0.34750000  1
  C  C36  1  0.25540000  0.38090000  0.74190000  1
  C  C37  1  0.23350000  0.54250000  0.75350000  1
  C  C38  1  0.23700000  0.04250000  0.74650000  1
  C  C39  1  0.01650000  0.74650000  0.95750000  1
  C  C40  1  0.90030000  0.75170000  0.04370000  1
  C  C41  1  0.55430000  0.54370000  0.25170000  1
  C  C42  1  0.52950000  0.45750000  0.24650000  1
  C  C43  1  0.22400000  0.24650000  0.54250000  1
  C  C44  1  0.72050000  0.25350000  0.04250000  1
  C  C45  1  0.87180000  0.24190000  0.88090000  1
  C  C46  1  0.69510000  0.75040000  0.05480000  1
  C  C47  1  0.36370000  0.25810000  0.38090000  1
  C  C48  1  0.40170000  0.98210000  0.25330000  1
  C  C49  1  0.69570000  0.24830000  0.95630000  1
  C  C50  1  0.19400000  0.25170000  0.45630000  1
  C  C51  1  0.74400000  0.74170000  0.89750000  1
  C  C52  1  0.37820000  0.61910000  0.25810000  1
  C  C53  1  0.00270000  0.74190000  0.61910000  1
  C  C54  1  0.35850000  0.89750000  0.25830000  1
  C  C55  1  0.61620000  0.74670000  0.98210000  1
  C  C56  1  0.25010000  0.05480000  0.24960000  1
  C  C57  1  0.89150000  0.24170000  0.60250000  1
  C  C58  1  0.38320000  0.25830000  0.10250000  1
  C  C59  1  0.01300000  0.75350000  0.45750000  1
  C  C60  1  0.90200000  0.74830000  0.54370000  1
  C  C61  1  0.50030000  0.24960000  0.94520000  1
  C  C62  1  0.99990000  0.25040000  0.44520000  1
  C  C63  1  0.63380000  0.51790000  0.75330000  1
  C  C64  1  0.63710000  0.01790000  0.74670000  1
  C  C65  1  0.84830000  0.24670000  0.51790000  1
  C  C66  1  0.34500000  0.25330000  0.01790000  1
  C  C67  1  0.55450000  0.94520000  0.75040000  1
  C  C68  1  0.55490000  0.44520000  0.74960000  1
  C  C69  1  0.05600000  0.04370000  0.24830000  1
  C  C70  1  0.02600000  0.95750000  0.25350000  1
  C  C71  1  0.50600000  0.60250000  0.75830000  1
  C  C72  1  0.51430000  0.10250000  0.74170000  1
  C  C73  1  0.69550000  0.74960000  0.55480000  1
  C  C74  1  0.90500000  0.48210000  0.24670000  1
  C  C75  1  0.73570000  0.75830000  0.39750000  1
  C  C76  1  0.88630000  0.11910000  0.24190000  1
  C  C77  1  0.99460000  0.75810000  0.11910000  1
  C  C78  1  0.86680000  0.39750000  0.24170000  1
  C  C79  1  0.34800000  0.95630000  0.75170000  1
  C  C80  1  0.34970000  0.45630000  0.74830000  1
  C  C81  1  0.61290000  0.75330000  0.48210000  1
  C  C82  1  0.24730000  0.88090000  0.75810000  1
  C  C83  1  0.74970000  0.55480000  0.25040000  1
  N  N84  1  0.68140000  0.38530000  0.24270000  1
  N  N85  1  0.94060000  0.74270000  0.88530000  1
  N  N86  1  0.07590000  0.24270000  0.61470000  1
  N  N87  1  0.56860000  0.25730000  0.11470000  1
  N  N88  1  0.17410000  0.88530000  0.25730000  1
  N  N89  1  0.93330000  0.75730000  0.38530000  1
  N  N90  1  0.30940000  0.61470000  0.75730000  1
  N  N91  1  0.31670000  0.11470000  0.74270000  1
  O  O92  1  0.71053000  0.10601000  0.24913000  1
  O  O93  1  0.04034000  0.24913000  0.89399000  1
  O  O94  1  0.53947000  0.25087000  0.39399000  1
  O  O95  1  0.06567000  0.89399000  0.75087000  1
  O  O96  1  0.06654000  0.39399000  0.74913000  1
  O  O97  1  0.18433000  0.74913000  0.60601000  1
  O  O98  1  0.40130000  0.69559000  0.27161000  1
  O  O99  1  0.84870000  0.22839000  0.80441000  1
  O  O100  1  0.32709000  0.27161000  0.30441000  1
  O  O101  1  0.90311000  0.72839000  0.69559000  1
  O  O102  1  0.20966000  0.60601000  0.25087000  1
  O  O103  1  0.18346000  0.75087000  0.10601000  1
  O  O104  1  0.92291000  0.19559000  0.22839000  1
  O  O105  1  0.34689000  0.80441000  0.77161000  1
  O  O106  1  0.36850000  0.30441000  0.72839000  1
  O  O107  1  0.88150000  0.77161000  0.19559000  1
