# generated using pymatgen
data_Cu4C5N5Cl
_symmetry_space_group_name_H-M   'P 1'
_cell_length_a   9.78550000
_cell_length_b   10.75273978
_cell_length_c   10.75273978
_cell_angle_alpha   111.79491917
_cell_angle_beta   92.97202751
_cell_angle_gamma   92.97202751
_symmetry_Int_Tables_number   1
_chemical_formula_structural   Cu4C5N5Cl
_chemical_formula_sum   'Cu8 C10 N10 Cl2'
_cell_volume   1046.03696414
_cell_formula_units_Z   2
loop_
 _symmetry_equiv_pos_site_id
 _symmetry_equiv_pos_as_xyz
  1  'x, y, z'
loop_
 _atom_site_type_symbol
 _atom_site_label
 _atom_site_symmetry_multiplicity
 _atom_site_fract_x
 _atom_site_fract_y
 _atom_site_fract_z
 _atom_site_occupancy
  C  C0  1  0.52640000  0.52754000  0.46908000  1
  C  C1  1  0.44470000  0.72331000  0.18629000  1
  C  C2  1  0.94470000  0.18629000  0.72331000  1
  C  C3  1  0.74597000  0.48641000  0.22347000  1
  C  C4  1  0.24597000  0.22347000  0.48641000  1
  C  C5  1  0.25403000  0.51359000  0.77653000  1
  C  C6  1  0.75403000  0.77653000  0.51359000  1
  C  C7  1  0.55530000  0.27669000  0.81371000  1
  C  C8  1  0.05530000  0.81371000  0.27669000  1
  C  C9  1  0.97360000  0.53092000  0.47246000  1
  Cl  Cl10  1  0.25000000  0.94352000  0.05648000  1
  Cl  Cl11  1  0.75000000  0.05648000  0.94352000  1
  Cu  Cu12  1  0.87655000  0.62181000  0.37161000  1
  Cu  Cu13  1  0.37655000  0.37161000  0.62181000  1
  Cu  Cu14  1  0.33165000  0.74184000  0.04754000  1
  Cu  Cu15  1  0.83165000  0.04754000  0.74184000  1
  Cu  Cu16  1  0.66835000  0.25816000  0.95246000  1
  Cu  Cu17  1  0.16835000  0.95246000  0.25816000  1
  Cu  Cu18  1  0.12345000  0.37819000  0.62839000  1
  Cu  Cu19  1  0.62345000  0.62839000  0.37819000  1
  N  N20  1  0.02640000  0.46908000  0.52754000  1
  N  N21  1  0.51245000  0.69620000  0.26158000  1
  N  N22  1  0.01245000  0.26158000  0.69620000  1
  N  N23  1  0.72536000  0.39634000  0.12602000  1
  N  N24  1  0.22536000  0.12602000  0.39634000  1
  N  N25  1  0.27464000  0.60366000  0.87398000  1
  N  N26  1  0.77464000  0.87398000  0.60366000  1
  N  N27  1  0.48755000  0.30380000  0.73842000  1
  N  N28  1  0.98755000  0.73842000  0.30380000  1
  N  N29  1  0.47360000  0.47246000  0.53092000  1
