# generated using pymatgen
data_ZnH12C20(NO2)2
_symmetry_space_group_name_H-M   'P 1'
_cell_length_a   13.17410000
_cell_length_b   13.21900000
_cell_length_c   14.02880000
_cell_angle_alpha   82.98900000
_cell_angle_beta   82.36900000
_cell_angle_gamma   84.05400000
_symmetry_Int_Tables_number   1
_chemical_formula_structural   ZnH12C20(NO2)2
_chemical_formula_sum   'Zn4 H48 C80 N8 O16'
_cell_volume   2393.85078947
_cell_formula_units_Z   4
loop_
 _symmetry_equiv_pos_site_id
 _symmetry_equiv_pos_as_xyz
  1  'x, y, z'
loop_
 _atom_site_type_symbol
 _atom_site_label
 _atom_site_symmetry_multiplicity
 _atom_site_fract_x
 _atom_site_fract_y
 _atom_site_fract_z
 _atom_site_occupancy
  Zn  Zn0  1  0.36397000  0.17197000  0.79901000  1
  Zn  Zn1  1  0.37384000  0.17761000  0.58883000  1
  Zn  Zn2  1  0.62616000  0.82239000  0.41117000  1
  Zn  Zn3  1  0.63603000  0.82803000  0.20099000  1
  H  H4  1  0.00766000  0.58594000  0.28789000  1
  H  H5  1  0.02640000  0.17370000  0.87010000  1
  H  H6  1  0.04192000  0.64183000  0.96113000  1
  H  H7  1  0.04990000  0.18010000  0.58900000  1
  H  H8  1  0.10920000  0.83540000  0.47760000  1
  H  H9  1  0.14900000  0.82200000  0.12360000  1
  H  H10  1  0.15189000  0.45086000  0.23588000  1
  H  H11  1  0.15261000  0.38364000  0.78608000  1
  H  H12  1  0.19356000  0.49661000  0.90519000  1
  H  H13  1  0.23870000  0.27230000  0.95670000  1
  H  H14  1  0.28900000  0.83860000  0.46560000  1
  H  H15  1  0.30810000  0.83020000  0.19310000  1
  H  H16  1  0.33800000  0.65920000  0.86710000  1
  H  H17  1  0.33990000  0.49590000  0.80530000  1
  H  H18  1  0.34170000  0.34260000  0.25410000  1
  H  H19  1  0.34440000  0.84360000  0.85600000  1
  H  H20  1  0.35080000  0.33130000  0.41850000  1
  H  H21  1  0.38420000  0.03380000  0.27500000  1
  H  H22  1  0.38560000  0.03160000  0.44030000  1
  H  H23  1  0.38630000  0.84660000  0.58340000  1
  H  H24  1  0.39890000  0.51180000  0.51980000  1
  H  H25  1  0.40720000  0.68570000  0.51340000  1
  H  H26  1  0.49170000  0.09390000  0.12150000  1
  H  H27  1  0.49390000  0.09120000  0.95680000  1
  H  H28  1  0.50610000  0.90880000  0.04320000  1
  H  H29  1  0.50830000  0.90610000  0.87850000  1
  H  H30  1  0.59280000  0.31430000  0.48660000  1
  H  H31  1  0.60110000  0.48820000  0.48020000  1
  H  H32  1  0.61370000  0.15340000  0.41660000  1
  H  H33  1  0.61440000  0.96840000  0.55970000  1
  H  H34  1  0.61580000  0.96620000  0.72500000  1
  H  H35  1  0.64920000  0.66870000  0.58150000  1
  H  H36  1  0.65560000  0.15640000  0.14400000  1
  H  H37  1  0.65830000  0.65740000  0.74590000  1
  H  H38  1  0.66010000  0.50410000  0.19470000  1
  H  H39  1  0.66200000  0.34080000  0.13290000  1
  H  H40  1  0.69190000  0.16980000  0.80690000  1
  H  H41  1  0.71100000  0.16140000  0.53440000  1
  H  H42  1  0.76130000  0.72770000  0.04330000  1
  H  H43  1  0.80644000  0.50339000  0.09481000  1
  H  H44  1  0.84739000  0.61636000  0.21392000  1
  H  H45  1  0.84811000  0.54914000  0.76412000  1
  H  H46  1  0.85100000  0.17800000  0.87640000  1
  H  H47  1  0.89080000  0.16460000  0.52240000  1
  H  H48  1  0.95010000  0.81990000  0.41100000  1
  H  H49  1  0.95808000  0.35817000  0.03887000  1
  H  H50  1  0.97360000  0.82630000  0.12990000  1
  H  H51  1  0.99234000  0.41406000  0.71211000  1
  C  C52  1  0.00290000  0.82350000  0.18860000  1
  C  C53  1  0.00590000  0.46230000  0.77050000  1
  C  C54  1  0.00960000  0.17870000  0.65050000  1
  C  C55  1  0.03620000  0.58560000  0.90700000  1
  C  C56  1  0.05760000  0.18030000  0.72920000  1
  C  C57  1  0.05860000  0.41220000  0.13830000  1
  C  C58  1  0.07580000  0.46510000  0.20400000  1
  C  C59  1  0.09260000  0.44770000  0.80830000  1
  C  C60  1  0.09770000  0.82480000  0.34530000  1
  C  C61  1  0.10920000  0.82350000  0.18520000  1
  C  C62  1  0.11550000  0.50920000  0.87690000  1
  C  C63  1  0.14730000  0.83180000  0.41550000  1
  C  C64  1  0.15930000  0.82550000  0.26080000  1
  C  C65  1  0.17200000  0.18190000  0.72090000  1
  C  C66  1  0.25980000  0.83470000  0.40790000  1
  C  C67  1  0.26920000  0.82960000  0.25520000  1
  C  C68  1  0.28610000  0.24380000  0.08880000  1
  C  C69  1  0.29070000  0.23540000  0.99120000  1
  C  C70  1  0.31940000  0.83250000  0.33040000  1
  C  C71  1  0.34760000  0.69380000  0.80360000  1
  C  C72  1  0.35090000  0.27770000  0.29070000  1
  C  C73  1  0.35230000  0.53470000  0.74400000  1
  C  C74  1  0.35230000  0.81210000  0.79780000  1
  C  C75  1  0.35430000  0.64080000  0.73980000  1
  C  C76  1  0.35610000  0.26980000  0.38880000  1
  C  C77  1  0.35950000  0.18720000  0.24640000  1
  C  C78  1  0.36040000  0.18820000  0.14060000  1
  C  C79  1  0.36550000  0.86400000  0.72180000  1
  C  C80  1  0.36670000  0.37200000  0.67030000  1
  C  C81  1  0.36760000  0.48500000  0.66250000  1
  C  C82  1  0.36950000  0.97730000  0.71050000  1
  C  C83  1  0.37390000  0.70050000  0.65130000  1
  C  C84  1  0.37500000  0.09640000  0.30330000  1
  C  C85  1  0.37630000  0.80990000  0.64600000  1
  C  C86  1  0.37720000  0.09550000  0.40180000  1
  C  C87  1  0.38730000  0.54290000  0.57830000  1
  C  C88  1  0.39110000  0.64840000  0.57500000  1
  C  C89  1  0.43280000  0.83490000  0.32030000  1
  C  C90  1  0.43830000  0.13140000  0.08920000  1
  C  C91  1  0.43880000  0.12920000  0.99120000  1
  C  C92  1  0.56120000  0.87080000  0.00880000  1
  C  C93  1  0.56170000  0.86860000  0.91080000  1
  C  C94  1  0.56720000  0.16510000  0.67970000  1
  C  C95  1  0.60890000  0.35160000  0.42500000  1
  C  C96  1  0.61270000  0.45710000  0.42170000  1
  C  C97  1  0.62280000  0.90450000  0.59820000  1
  C  C98  1  0.62370000  0.19010000  0.35400000  1
  C  C99  1  0.62500000  0.90360000  0.69670000  1
  C  C100  1  0.62610000  0.29950000  0.34870000  1
  C  C101  1  0.63050000  0.02270000  0.28950000  1
  C  C102  1  0.63240000  0.51500000  0.33750000  1
  C  C103  1  0.63330000  0.62800000  0.32970000  1
  C  C104  1  0.63450000  0.13600000  0.27820000  1
  C  C105  1  0.63960000  0.81180000  0.85940000  1
  C  C106  1  0.64050000  0.81280000  0.75360000  1
  C  C107  1  0.64390000  0.73020000  0.61120000  1
  C  C108  1  0.64570000  0.35920000  0.26020000  1
  C  C109  1  0.64770000  0.18790000  0.20220000  1
  C  C110  1  0.64770000  0.46530000  0.25600000  1
  C  C111  1  0.64910000  0.72230000  0.70930000  1
  C  C112  1  0.65240000  0.30620000  0.19640000  1
  C  C113  1  0.68060000  0.16750000  0.66960000  1
  C  C114  1  0.70930000  0.76460000  0.00880000  1
  C  C115  1  0.71390000  0.75620000  0.91120000  1
  C  C116  1  0.73080000  0.17040000  0.74480000  1
  C  C117  1  0.74020000  0.16530000  0.59210000  1
  C  C118  1  0.82800000  0.81810000  0.27910000  1
  C  C119  1  0.84070000  0.17450000  0.73920000  1
  C  C120  1  0.85270000  0.16820000  0.58450000  1
  C  C121  1  0.88450000  0.49080000  0.12310000  1
  C  C122  1  0.89080000  0.17650000  0.81480000  1
  C  C123  1  0.90230000  0.17520000  0.65470000  1
  C  C124  1  0.90740000  0.55230000  0.19170000  1
  C  C125  1  0.92420000  0.53490000  0.79600000  1
  C  C126  1  0.94140000  0.58780000  0.86170000  1
  C  C127  1  0.94240000  0.81970000  0.27080000  1
  C  C128  1  0.96380000  0.41440000  0.09300000  1
  C  C129  1  0.99040000  0.82130000  0.34950000  1
  C  C130  1  0.99410000  0.53770000  0.22950000  1
  C  C131  1  0.99710000  0.17650000  0.81140000  1
  N  N132  1  0.14430000  0.34870000  0.09270000  1
  N  N133  1  0.20540000  0.30660000  0.13800000  1
  N  N134  1  0.36420000  0.17860000  0.94300000  1
  N  N135  1  0.36810000  0.18120000  0.44450000  1
  N  N136  1  0.63190000  0.81880000  0.55550000  1
  N  N137  1  0.63580000  0.82140000  0.05700000  1
  N  N138  1  0.79460000  0.69340000  0.86200000  1
  N  N139  1  0.85570000  0.65130000  0.90730000  1
  O  O140  1  0.21000000  0.17690000  0.79920000  1
  O  O141  1  0.22100000  0.18800000  0.63900000  1
  O  O142  1  0.35700000  0.32380000  0.75340000  1
  O  O143  1  0.36820000  0.01820000  0.78750000  1
  O  O144  1  0.37450000  0.02410000  0.62790000  1
  O  O145  1  0.37450000  0.33060000  0.59340000  1
  O  O146  1  0.47280000  0.83540000  0.39730000  1
  O  O147  1  0.48180000  0.83780000  0.23730000  1
  O  O148  1  0.51820000  0.16220000  0.76270000  1
  O  O149  1  0.52720000  0.16460000  0.60270000  1
  O  O150  1  0.62550000  0.66940000  0.40660000  1
  O  O151  1  0.62550000  0.97590000  0.37210000  1
  O  O152  1  0.63180000  0.98180000  0.21250000  1
  O  O153  1  0.64300000  0.67620000  0.24660000  1
  O  O154  1  0.77900000  0.81200000  0.36100000  1
  O  O155  1  0.79000000  0.82310000  0.20080000  1
