# generated using pymatgen
data_Ni3H12(C11O8)2
_symmetry_space_group_name_H-M   'P 1'
_cell_length_a   14.13490000
_cell_length_b   16.29610000
_cell_length_c   16.52400000
_cell_angle_alpha   90.00000000
_cell_angle_beta   90.00000000
_cell_angle_gamma   90.00000000
_symmetry_Int_Tables_number   1
_chemical_formula_structural   Ni3H12(C11O8)2
_chemical_formula_sum   'Ni12 H48 C88 O64'
_cell_volume   3806.20002404
_cell_formula_units_Z   4
loop_
 _symmetry_equiv_pos_site_id
 _symmetry_equiv_pos_as_xyz
  1  'x, y, z'
loop_
 _atom_site_type_symbol
 _atom_site_label
 _atom_site_symmetry_multiplicity
 _atom_site_fract_x
 _atom_site_fract_y
 _atom_site_fract_z
 _atom_site_occupancy
  Ni  Ni0  1  0.00000000  0.00000000  0.50000000  1
  Ni  Ni1  1  0.00000000  0.50000000  0.00000000  1
  Ni  Ni2  1  0.02728000  0.17263000  0.38602000  1
  Ni  Ni3  1  0.02728000  0.32737000  0.88602000  1
  Ni  Ni4  1  0.47272000  0.67263000  0.38602000  1
  Ni  Ni5  1  0.47272000  0.82737000  0.88602000  1
  Ni  Ni6  1  0.50000000  0.00000000  0.00000000  1
  Ni  Ni7  1  0.50000000  0.50000000  0.50000000  1
  Ni  Ni8  1  0.52728000  0.17263000  0.11398000  1
  Ni  Ni9  1  0.52728000  0.32737000  0.61398000  1
  Ni  Ni10  1  0.97272000  0.67263000  0.11398000  1
  Ni  Ni11  1  0.97272000  0.82737000  0.61398000  1
  H  H12  1  0.04850000  0.74380000  0.86930000  1
  H  H13  1  0.04850000  0.75620000  0.36930000  1
  H  H14  1  0.05610000  0.64610000  0.86250000  1
  H  H15  1  0.05610000  0.85390000  0.36250000  1
  H  H16  1  0.07000000  0.11140000  0.71980000  1
  H  H17  1  0.07000000  0.38860000  0.21980000  1
  H  H18  1  0.14610000  0.69870000  0.89000000  1
  H  H19  1  0.14610000  0.80130000  0.39000000  1
  H  H20  1  0.22540000  0.59090000  0.26870000  1
  H  H21  1  0.22540000  0.90910000  0.76870000  1
  H  H22  1  0.24580000  0.10920000  0.91290000  1
  H  H23  1  0.24580000  0.39080000  0.41290000  1
  H  H24  1  0.25420000  0.60920000  0.91290000  1
  H  H25  1  0.25420000  0.89080000  0.41290000  1
  H  H26  1  0.27460000  0.09090000  0.26870000  1
  H  H27  1  0.27460000  0.40910000  0.76870000  1
  H  H28  1  0.35390000  0.19870000  0.89000000  1
  H  H29  1  0.35390000  0.30130000  0.39000000  1
  H  H30  1  0.43000000  0.61140000  0.71980000  1
  H  H31  1  0.43000000  0.88860000  0.21980000  1
  H  H32  1  0.44390000  0.14610000  0.86250000  1
  H  H33  1  0.44390000  0.35390000  0.36250000  1
  H  H34  1  0.45150000  0.24380000  0.86930000  1
  H  H35  1  0.45150000  0.25620000  0.36930000  1
  H  H36  1  0.54850000  0.74380000  0.63070000  1
  H  H37  1  0.54850000  0.75620000  0.13070000  1
  H  H38  1  0.55610000  0.64610000  0.63750000  1
  H  H39  1  0.55610000  0.85390000  0.13750000  1
  H  H40  1  0.57000000  0.11140000  0.78020000  1
  H  H41  1  0.57000000  0.38860000  0.28020000  1
  H  H42  1  0.64610000  0.69870000  0.61000000  1
  H  H43  1  0.64610000  0.80130000  0.11000000  1
  H  H44  1  0.72540000  0.59090000  0.23130000  1
  H  H45  1  0.72540000  0.90910000  0.73130000  1
  H  H46  1  0.74580000  0.10920000  0.58710000  1
  H  H47  1  0.74580000  0.39080000  0.08710000  1
  H  H48  1  0.75420000  0.60920000  0.58710000  1
  H  H49  1  0.75420000  0.89080000  0.08710000  1
  H  H50  1  0.77460000  0.09090000  0.23130000  1
  H  H51  1  0.77460000  0.40910000  0.73130000  1
  H  H52  1  0.85390000  0.19870000  0.61000000  1
  H  H53  1  0.85390000  0.30130000  0.11000000  1
  H  H54  1  0.93000000  0.61140000  0.78020000  1
  H  H55  1  0.93000000  0.88860000  0.28020000  1
  H  H56  1  0.94390000  0.14610000  0.63750000  1
  H  H57  1  0.94390000  0.35390000  0.13750000  1
  H  H58  1  0.95150000  0.24380000  0.63070000  1
  H  H59  1  0.95150000  0.25620000  0.13070000  1
  C  C60  1  0.04700000  0.68656000  0.97950000  1
  C  C61  1  0.04700000  0.81344000  0.47950000  1
  C  C62  1  0.07701000  0.69448000  0.89282000  1
  C  C63  1  0.07701000  0.80552000  0.39282000  1
  C  C64  1  0.08987000  0.53910000  0.16545000  1
  C  C65  1  0.08987000  0.96090000  0.66545000  1
  C  C66  1  0.11163000  0.20494000  0.84502000  1
  C  C67  1  0.11163000  0.29506000  0.34502000  1
  C  C68  1  0.11333000  0.08305000  0.75374000  1
  C  C69  1  0.11333000  0.41695000  0.25374000  1
  C  C70  1  0.13894000  0.00329000  0.73520000  1
  C  C71  1  0.13894000  0.49671000  0.23520000  1
  C  C72  1  0.15028000  0.12225000  0.82145000  1
  C  C73  1  0.15028000  0.37775000  0.32145000  1
  C  C74  1  0.16179000  0.03209000  0.38431000  1
  C  C75  1  0.16179000  0.46791000  0.88431000  1
  C  C76  1  0.20818000  0.53592000  0.28068000  1
  C  C77  1  0.20818000  0.96408000  0.78068000  1
  C  C78  1  0.22011000  0.08294000  0.86651000  1
  C  C79  1  0.22011000  0.41706000  0.36651000  1
  C  C80  1  0.24756000  0.50591000  0.84428000  1
  C  C81  1  0.24756000  0.99409000  0.34428000  1
  C  C82  1  0.25244000  0.00591000  0.84428000  1
  C  C83  1  0.25244000  0.49409000  0.34428000  1
  C  C84  1  0.27989000  0.58294000  0.86651000  1
  C  C85  1  0.27989000  0.91706000  0.36651000  1
  C  C86  1  0.29182000  0.03592000  0.28068000  1
  C  C87  1  0.29182000  0.46408000  0.78068000  1
  C  C88  1  0.33821000  0.53209000  0.38431000  1
  C  C89  1  0.33821000  0.96791000  0.88431000  1
  C  C90  1  0.34972000  0.62225000  0.82145000  1
  C  C91  1  0.34972000  0.87775000  0.32145000  1
  C  C92  1  0.36106000  0.50329000  0.73520000  1
  C  C93  1  0.36106000  0.99671000  0.23520000  1
  C  C94  1  0.38667000  0.58305000  0.75374000  1
  C  C95  1  0.38667000  0.91695000  0.25374000  1
  C  C96  1  0.38837000  0.70494000  0.84502000  1
  C  C97  1  0.38837000  0.79506000  0.34502000  1
  C  C98  1  0.41013000  0.03910000  0.16545000  1
  C  C99  1  0.41013000  0.46090000  0.66545000  1
  C  C100  1  0.42299000  0.19448000  0.89282000  1
  C  C101  1  0.42299000  0.30552000  0.39282000  1
  C  C102  1  0.45300000  0.18656000  0.97950000  1
  C  C103  1  0.45300000  0.31344000  0.47950000  1
  C  C104  1  0.54700000  0.68656000  0.52050000  1
  C  C105  1  0.54700000  0.81344000  0.02050000  1
  C  C106  1  0.57701000  0.69448000  0.60718000  1
  C  C107  1  0.57701000  0.80552000  0.10718000  1
  C  C108  1  0.58987000  0.53910000  0.33455000  1
  C  C109  1  0.58987000  0.96090000  0.83455000  1
  C  C110  1  0.61163000  0.20494000  0.65498000  1
  C  C111  1  0.61163000  0.29506000  0.15498000  1
  C  C112  1  0.61333000  0.08305000  0.74626000  1
  C  C113  1  0.61333000  0.41695000  0.24626000  1
  C  C114  1  0.63894000  0.00329000  0.76480000  1
  C  C115  1  0.63894000  0.49671000  0.26480000  1
  C  C116  1  0.65028000  0.12225000  0.67855000  1
  C  C117  1  0.65028000  0.37775000  0.17855000  1
  C  C118  1  0.66179000  0.03209000  0.11569000  1
  C  C119  1  0.66179000  0.46791000  0.61569000  1
  C  C120  1  0.70818000  0.53592000  0.21932000  1
  C  C121  1  0.70818000  0.96408000  0.71932000  1
  C  C122  1  0.72011000  0.08294000  0.63349000  1
  C  C123  1  0.72011000  0.41706000  0.13349000  1
  C  C124  1  0.74756000  0.50591000  0.65572000  1
  C  C125  1  0.74756000  0.99409000  0.15572000  1
  C  C126  1  0.75244000  0.00591000  0.65572000  1
  C  C127  1  0.75244000  0.49409000  0.15572000  1
  C  C128  1  0.77989000  0.58294000  0.63349000  1
  C  C129  1  0.77989000  0.91706000  0.13349000  1
  C  C130  1  0.79182000  0.03592000  0.21932000  1
  C  C131  1  0.79182000  0.46408000  0.71932000  1
  C  C132  1  0.83821000  0.53209000  0.11569000  1
  C  C133  1  0.83821000  0.96791000  0.61569000  1
  C  C134  1  0.84972000  0.62225000  0.67855000  1
  C  C135  1  0.84972000  0.87775000  0.17855000  1
  C  C136  1  0.86106000  0.50329000  0.76480000  1
  C  C137  1  0.86106000  0.99671000  0.26480000  1
  C  C138  1  0.88667000  0.58305000  0.74626000  1
  C  C139  1  0.88667000  0.91695000  0.24626000  1
  C  C140  1  0.88837000  0.70494000  0.65498000  1
  C  C141  1  0.88837000  0.79506000  0.15498000  1
  C  C142  1  0.91013000  0.03910000  0.33455000  1
  C  C143  1  0.91013000  0.46090000  0.83455000  1
  C  C144  1  0.92299000  0.19448000  0.60718000  1
  C  C145  1  0.92299000  0.30552000  0.10718000  1
  C  C146  1  0.95300000  0.18656000  0.52050000  1
  C  C147  1  0.95300000  0.31344000  0.02050000  1
  O  O148  1  0.00589000  0.12681000  0.49895000  1
  O  O149  1  0.00589000  0.37319000  0.99895000  1
  O  O150  1  0.05129000  0.23903000  0.79906000  1
  O  O151  1  0.05129000  0.26097000  0.29906000  1
  O  O152  1  0.05962000  0.00762000  0.61133000  1
  O  O153  1  0.05962000  0.49238000  0.11133000  1
  O  O154  1  0.06654000  0.74042000  0.03075000  1
  O  O155  1  0.06654000  0.75958000  0.53075000  1
  O  O156  1  0.08198000  0.61616000  0.16901000  1
  O  O157  1  0.08198000  0.88384000  0.66901000  1
  O  O158  1  0.12485000  0.09115000  0.34715000  1
  O  O159  1  0.12485000  0.40885000  0.84715000  1
  O  O160  1  0.13333000  0.50079000  0.94907000  1
  O  O161  1  0.13333000  0.99921000  0.44907000  1
  O  O162  1  0.13573000  0.23759000  0.91087000  1
  O  O163  1  0.13573000  0.26241000  0.41087000  1
  O  O164  1  0.36427000  0.73759000  0.91087000  1
  O  O165  1  0.36427000  0.76241000  0.41087000  1
  O  O166  1  0.36667000  0.00079000  0.94907000  1
  O  O167  1  0.36667000  0.49921000  0.44907000  1
  O  O168  1  0.37515000  0.59115000  0.34715000  1
  O  O169  1  0.37515000  0.90885000  0.84715000  1
  O  O170  1  0.41802000  0.11616000  0.16901000  1
  O  O171  1  0.41802000  0.38384000  0.66901000  1
  O  O172  1  0.43346000  0.24042000  0.03075000  1
  O  O173  1  0.43346000  0.25958000  0.53075000  1
  O  O174  1  0.44038000  0.50762000  0.61133000  1
  O  O175  1  0.44038000  0.99238000  0.11133000  1
  O  O176  1  0.44871000  0.73903000  0.79906000  1
  O  O177  1  0.44871000  0.76097000  0.29906000  1
  O  O178  1  0.49411000  0.62681000  0.49895000  1
  O  O179  1  0.49411000  0.87319000  0.99895000  1
  O  O180  1  0.50589000  0.12681000  0.00105000  1
  O  O181  1  0.50589000  0.37319000  0.50105000  1
  O  O182  1  0.55129000  0.23903000  0.70094000  1
  O  O183  1  0.55129000  0.26097000  0.20094000  1
  O  O184  1  0.55962000  0.00762000  0.88867000  1
  O  O185  1  0.55962000  0.49238000  0.38867000  1
  O  O186  1  0.56654000  0.74042000  0.46925000  1
  O  O187  1  0.56654000  0.75958000  0.96925000  1
  O  O188  1  0.58198000  0.61616000  0.33099000  1
  O  O189  1  0.58198000  0.88384000  0.83099000  1
  O  O190  1  0.62485000  0.09115000  0.15285000  1
  O  O191  1  0.62485000  0.40885000  0.65285000  1
  O  O192  1  0.63333000  0.50079000  0.55093000  1
  O  O193  1  0.63333000  0.99921000  0.05093000  1
  O  O194  1  0.63573000  0.23759000  0.58913000  1
  O  O195  1  0.63573000  0.26241000  0.08913000  1
  O  O196  1  0.86427000  0.73759000  0.58913000  1
  O  O197  1  0.86427000  0.76241000  0.08913000  1
  O  O198  1  0.86667000  0.00079000  0.55093000  1
  O  O199  1  0.86667000  0.49921000  0.05093000  1
  O  O200  1  0.87515000  0.59115000  0.15285000  1
  O  O201  1  0.87515000  0.90885000  0.65285000  1
  O  O202  1  0.91802000  0.11616000  0.33099000  1
  O  O203  1  0.91802000  0.38384000  0.83099000  1
  O  O204  1  0.93346000  0.24042000  0.46925000  1
  O  O205  1  0.93346000  0.25958000  0.96925000  1
  O  O206  1  0.94038000  0.50762000  0.88867000  1
  O  O207  1  0.94038000  0.99238000  0.38867000  1
  O  O208  1  0.94871000  0.73903000  0.70094000  1
  O  O209  1  0.94871000  0.76097000  0.20094000  1
  O  O210  1  0.99411000  0.62681000  0.00105000  1
  O  O211  1  0.99411000  0.87319000  0.50105000  1
