# generated using pymatgen
data_Zn4H36C35(N3O2)5
_symmetry_space_group_name_H-M   'P 1'
_cell_length_a   14.92150000
_cell_length_b   15.32260000
_cell_length_c   15.98400000
_cell_angle_alpha   72.66900000
_cell_angle_beta   63.67600000
_cell_angle_gamma   63.78800000
_symmetry_Int_Tables_number   1
_chemical_formula_structural   Zn4H36C35(N3O2)5
_chemical_formula_sum   'Zn8 H72 C70 N30 O20'
_cell_volume   2914.96292003
_cell_formula_units_Z   2
loop_
 _symmetry_equiv_pos_site_id
 _symmetry_equiv_pos_as_xyz
  1  'x, y, z'
loop_
 _atom_site_type_symbol
 _atom_site_label
 _atom_site_symmetry_multiplicity
 _atom_site_fract_x
 _atom_site_fract_y
 _atom_site_fract_z
 _atom_site_occupancy
  Zn  Zn0  1  0.15749000  0.65912000  0.64740000  1
  Zn  Zn1  1  0.21081000  0.99600000  0.39022000  1
  Zn  Zn2  1  0.30185000  0.89368000  0.84601000  1
  Zn  Zn3  1  0.31402000  0.09747000  0.48442000  1
  Zn  Zn4  1  0.68598000  0.90253000  0.51558000  1
  Zn  Zn5  1  0.69815000  0.10632000  0.15399000  1
  Zn  Zn6  1  0.78919000  0.00400000  0.60978000  1
  Zn  Zn7  1  0.84251000  0.34088000  0.35260000  1
  H  H8  1  0.01410000  0.13570000  0.36000000  1
  H  H9  1  0.01940000  0.84860000  0.38160000  1
  H  H10  1  0.02360000  0.00650000  0.70650000  1
  H  H11  1  0.02910000  0.00410000  0.12710000  1
  H  H12  1  0.04870000  0.08540000  0.72680000  1
  H  H13  1  0.05950000  0.83750000  0.12890000  1
  H  H14  1  0.06520000  0.74080000  0.28510000  1
  H  H15  1  0.06750000  0.44500000  0.89570000  1
  H  H16  1  0.08770000  0.57930000  0.95700000  1
  H  H17  1  0.09230000  0.49180000  0.51730000  1
  H  H18  1  0.09390000  0.47080000  0.09280000  1
  H  H19  1  0.09730000  0.38720000  0.05250000  1
  H  H20  1  0.12790000  0.54220000  0.55650000  1
  H  H21  1  0.13310000  0.97060000  0.14970000  1
  H  H22  1  0.13670000  0.78240000  0.83330000  1
  H  H23  1  0.16720000  0.71290000  0.30830000  1
  H  H24  1  0.17670000  0.48050000  0.92050000  1
  H  H25  1  0.19220000  0.29810000  0.53120000  1
  H  H26  1  0.21720000  0.71570000  0.14440000  1
  H  H27  1  0.24410000  0.73040000  0.82680000  1
  H  H28  1  0.24620000  0.79430000  0.16110000  1
  H  H29  1  0.29540000  0.02340000  0.67990000  1
  H  H30  1  0.30460000  0.34150000  0.68380000  1
  H  H31  1  0.32000000  0.94710000  0.20500000  1
  H  H32  1  0.35060000  0.37750000  0.50730000  1
  H  H33  1  0.36390000  0.94720000  0.96750000  1
  H  H34  1  0.36880000  0.36170000  0.72710000  1
  H  H35  1  0.40640000  0.98610000  0.01120000  1
  H  H36  1  0.42630000  0.72730000  0.52470000  1
  H  H37  1  0.43110000  0.19500000  0.71630000  1
  H  H38  1  0.44050000  0.42160000  0.44390000  1
  H  H39  1  0.46220000  0.85810000  0.43160000  1
  H  H40  1  0.47750000  0.76250000  0.34270000  1
  H  H41  1  0.47840000  0.40730000  0.57560000  1
  H  H42  1  0.48890000  0.87220000  0.65450000  1
  H  H43  1  0.49070000  0.75000000  0.56570000  1
  H  H44  1  0.50930000  0.25000000  0.43430000  1
  H  H45  1  0.51110000  0.12780000  0.34550000  1
  H  H46  1  0.52160000  0.59270000  0.42440000  1
  H  H47  1  0.52250000  0.23750000  0.65730000  1
  H  H48  1  0.53780000  0.14190000  0.56840000  1
  H  H49  1  0.55950000  0.57840000  0.55610000  1
  H  H50  1  0.56890000  0.80500000  0.28370000  1
  H  H51  1  0.57370000  0.27270000  0.47530000  1
  H  H52  1  0.59360000  0.01390000  0.98880000  1
  H  H53  1  0.63120000  0.63830000  0.27290000  1
  H  H54  1  0.63610000  0.05280000  0.03250000  1
  H  H55  1  0.64940000  0.62250000  0.49270000  1
  H  H56  1  0.68000000  0.05290000  0.79500000  1
  H  H57  1  0.69540000  0.65850000  0.31620000  1
  H  H58  1  0.70460000  0.97660000  0.32010000  1
  H  H59  1  0.75380000  0.20570000  0.83890000  1
  H  H60  1  0.75590000  0.26960000  0.17320000  1
  H  H61  1  0.78280000  0.28430000  0.85560000  1
  H  H62  1  0.80780000  0.70190000  0.46880000  1
  H  H63  1  0.82330000  0.51950000  0.07950000  1
  H  H64  1  0.83280000  0.28710000  0.69170000  1
  H  H65  1  0.86330000  0.21760000  0.16670000  1
  H  H66  1  0.86690000  0.02940000  0.85030000  1
  H  H67  1  0.87210000  0.45780000  0.44350000  1
  H  H68  1  0.90270000  0.61280000  0.94750000  1
  H  H69  1  0.90610000  0.52920000  0.90720000  1
  H  H70  1  0.90770000  0.50820000  0.48270000  1
  H  H71  1  0.91230000  0.42070000  0.04300000  1
  H  H72  1  0.93250000  0.55500000  0.10430000  1
  H  H73  1  0.93480000  0.25920000  0.71490000  1
  H  H74  1  0.94050000  0.16250000  0.87110000  1
  H  H75  1  0.95130000  0.91460000  0.27320000  1
  H  H76  1  0.97090000  0.99590000  0.87290000  1
  H  H77  1  0.97640000  0.99350000  0.29350000  1
  H  H78  1  0.98060000  0.15140000  0.61840000  1
  H  H79  1  0.98590000  0.86430000  0.64000000  1
  C  C80  1  0.00420000  0.62390000  0.52900000  1
  C  C81  1  0.00880000  0.93290000  0.26640000  1
  C  C82  1  0.01940000  0.29040000  0.43820000  1
  C  C83  1  0.02860000  0.17210000  0.38650000  1
  C  C84  1  0.04380000  0.51420000  0.90220000  1
  C  C85  1  0.06630000  0.45730000  0.05530000  1
  C  C86  1  0.07010000  0.85910000  0.31800000  1
  C  C87  1  0.07470000  0.56270000  0.80280000  1
  C  C88  1  0.07500000  0.95190000  0.15850000  1
  C  C89  1  0.10050000  0.51250000  0.95330000  1
  C  C90  1  0.11050000  0.20940000  0.44540000  1
  C  C91  1  0.11980000  0.85510000  0.11820000  1
  C  C92  1  0.12100000  0.76280000  0.27600000  1
  C  C93  1  0.14720000  0.29450000  0.50750000  1
  C  C94  1  0.15190000  0.88640000  0.32860000  1
  C  C95  1  0.17970000  0.86720000  0.01670000  1
  C  C96  1  0.18730000  0.77690000  0.16990000  1
  C  C97  1  0.20970000  0.82540000  0.52540000  1
  C  C98  1  0.22700000  0.83760000  0.64210000  1
  C  C99  1  0.23110000  0.83300000  0.72710000  1
  C  C100  1  0.24780000  0.91750000  0.57790000  1
  C  C101  1  0.27870000  0.97810000  0.66730000  1
  C  C102  1  0.33120000  0.51360000  0.60110000  1
  C  C103  1  0.36660000  0.97190000  0.20530000  1
  C  C104  1  0.37430000  0.34060000  0.67290000  1
  C  C105  1  0.38260000  0.17240000  0.58470000  1
  C  C106  1  0.40760000  0.41070000  0.58480000  1
  C  C107  1  0.41690000  0.03250000  0.28270000  1
  C  C108  1  0.41900000  0.37700000  0.49970000  1
  C  C109  1  0.45520000  0.23900000  0.66110000  1
  C  C110  1  0.47420000  0.20230000  0.57550000  1
  C  C111  1  0.48170000  0.98320000  0.88060000  1
  C  C112  1  0.49570000  0.09820000  0.31320000  1
  C  C113  1  0.49580000  0.72790000  0.51240000  1
  C  C114  1  0.49840000  0.96000000  0.79560000  1
  C  C115  1  0.50160000  0.04000000  0.20440000  1
  C  C116  1  0.50420000  0.27210000  0.48760000  1
  C  C117  1  0.50430000  0.90180000  0.68680000  1
  C  C118  1  0.51830000  0.01680000  0.11940000  1
  C  C119  1  0.52580000  0.79770000  0.42450000  1
  C  C120  1  0.54480000  0.76100000  0.33890000  1
  C  C121  1  0.58100000  0.62300000  0.50030000  1
  C  C122  1  0.58310000  0.96750000  0.71730000  1
  C  C123  1  0.59240000  0.58930000  0.41520000  1
  C  C124  1  0.61740000  0.82760000  0.41530000  1
  C  C125  1  0.62570000  0.65940000  0.32710000  1
  C  C126  1  0.63340000  0.02810000  0.79470000  1
  C  C127  1  0.66880000  0.48640000  0.39890000  1
  C  C128  1  0.72130000  0.02190000  0.33270000  1
  C  C129  1  0.75220000  0.08250000  0.42210000  1
  C  C130  1  0.76890000  0.16700000  0.27290000  1
  C  C131  1  0.77300000  0.16240000  0.35790000  1
  C  C132  1  0.79030000  0.17460000  0.47460000  1
  C  C133  1  0.81270000  0.22310000  0.83010000  1
  C  C134  1  0.82030000  0.13280000  0.98330000  1
  C  C135  1  0.84810000  0.11360000  0.67140000  1
  C  C136  1  0.85280000  0.70550000  0.49250000  1
  C  C137  1  0.87900000  0.23720000  0.72400000  1
  C  C138  1  0.88020000  0.14490000  0.88180000  1
  C  C139  1  0.88950000  0.79060000  0.55460000  1
  C  C140  1  0.89950000  0.48750000  0.04670000  1
  C  C141  1  0.92500000  0.04810000  0.84150000  1
  C  C142  1  0.92530000  0.43730000  0.19720000  1
  C  C143  1  0.92990000  0.14090000  0.68200000  1
  C  C144  1  0.93370000  0.54270000  0.94470000  1
  C  C145  1  0.95620000  0.48580000  0.09780000  1
  C  C146  1  0.97140000  0.82790000  0.61350000  1
  C  C147  1  0.98060000  0.70960000  0.56180000  1
  C  C148  1  0.99120000  0.06710000  0.73360000  1
  C  C149  1  0.99580000  0.37610000  0.47100000  1
  N  N150  1  0.03220000  0.73640000  0.59890000  1
  N  N151  1  0.06810000  0.37170000  0.50540000  1
  N  N152  1  0.08360000  0.54370000  0.53490000  1
  N  N153  1  0.11380000  0.13550000  0.41310000  1
  N  N154  1  0.17690000  0.20770000  0.48090000  1
  N  N155  1  0.20090000  0.77830000  0.61290000  1
  N  N156  1  0.20200000  0.75720000  0.79500000  1
  N  N157  1  0.23480000  0.90740000  0.50190000  1
  N  N158  1  0.26030000  0.90590000  0.73300000  1
  N  N159  1  0.27430000  0.98900000  0.58160000  1
  N  N160  1  0.34630000  0.99680000  0.28640000  1
  N  N161  1  0.40910000  0.97080000  0.96240000  1
  N  N162  1  0.41030000  0.06990000  0.35370000  1
  N  N163  1  0.44400000  0.91850000  0.77460000  1
  N  N164  1  0.44780000  0.97870000  0.12350000  1
  N  N165  1  0.55220000  0.02130000  0.87650000  1
  N  N166  1  0.55600000  0.08150000  0.22540000  1
  N  N167  1  0.58970000  0.93010000  0.64630000  1
  N  N168  1  0.59090000  0.02920000  0.03760000  1
  N  N169  1  0.65370000  0.00320000  0.71360000  1
  N  N170  1  0.72570000  0.01100000  0.41840000  1
  N  N171  1  0.73970000  0.09410000  0.26700000  1
  N  N172  1  0.76520000  0.09260000  0.49810000  1
  N  N173  1  0.79800000  0.24280000  0.20500000  1
  N  N174  1  0.79910000  0.22170000  0.38710000  1
  N  N175  1  0.82310000  0.79230000  0.51910000  1
  N  N176  1  0.88620000  0.86450000  0.58690000  1
  N  N177  1  0.91640000  0.45630000  0.46510000  1
  N  N178  1  0.93190000  0.62830000  0.49460000  1
  N  N179  1  0.96780000  0.26360000  0.40110000  1
  O  O180  1  0.08620000  0.64880000  0.78810000  1
  O  O181  1  0.09640000  0.52620000  0.73300000  1
  O  O182  1  0.12440000  0.95920000  0.35480000  1
  O  O183  1  0.14770000  0.86170000  0.95920000  1
  O  O184  1  0.24850000  0.81760000  0.31960000  1
  O  O185  1  0.26660000  0.88520000  0.98530000  1
  O  O186  1  0.26760000  0.55820000  0.55470000  1
  O  O187  1  0.30220000  0.17790000  0.65710000  1
  O  O188  1  0.31790000  0.54940000  0.66780000  1
  O  O189  1  0.40120000  0.14180000  0.51150000  1
  O  O190  1  0.59880000  0.85820000  0.48850000  1
  O  O191  1  0.68210000  0.45060000  0.33220000  1
  O  O192  1  0.69780000  0.82210000  0.34290000  1
  O  O193  1  0.73240000  0.44180000  0.44530000  1
  O  O194  1  0.73340000  0.11480000  0.01470000  1
  O  O195  1  0.75150000  0.18240000  0.68040000  1
  O  O196  1  0.85230000  0.13830000  0.04080000  1
  O  O197  1  0.87560000  0.04080000  0.64520000  1
  O  O198  1  0.90360000  0.47380000  0.26700000  1
  O  O199  1  0.91380000  0.35120000  0.21190000  1
