# generated using pymatgen
data_Cu4H9(CN2)9
_symmetry_space_group_name_H-M   'P 1'
_cell_length_a   13.98760000
_cell_length_b   13.98760000
_cell_length_c   16.30930000
_cell_angle_alpha   90.00000000
_cell_angle_beta   90.00000000
_cell_angle_gamma   120.00000000
_symmetry_Int_Tables_number   1
_chemical_formula_structural   Cu4H9(CN2)9
_chemical_formula_sum   'Cu16 H36 C36 N72'
_cell_volume   2763.45477697
_cell_formula_units_Z   4
loop_
 _symmetry_equiv_pos_site_id
 _symmetry_equiv_pos_as_xyz
  1  'x, y, z'
loop_
 _atom_site_type_symbol
 _atom_site_label
 _atom_site_symmetry_multiplicity
 _atom_site_fract_x
 _atom_site_fract_y
 _atom_site_fract_z
 _atom_site_occupancy
  Cu  Cu0  1  0.92887000  0.55538000  0.44009000  1
  Cu  Cu1  1  0.92887000  0.55538000  0.05991000  1
  Cu  Cu2  1  0.66666667  0.33333333  0.36968000  1
  Cu  Cu3  1  0.66666667  0.33333333  0.13032000  1
  Cu  Cu4  1  0.62651000  0.07113000  0.44009000  1
  Cu  Cu5  1  0.62651000  0.07113000  0.05991000  1
  Cu  Cu6  1  0.55538000  0.62651000  0.94009000  1
  Cu  Cu7  1  0.55538000  0.62651000  0.55991000  1
  Cu  Cu8  1  0.44462000  0.37349000  0.44009000  1
  Cu  Cu9  1  0.44462000  0.37349000  0.05991000  1
  Cu  Cu10  1  0.37349000  0.92887000  0.94009000  1
  Cu  Cu11  1  0.37349000  0.92887000  0.55991000  1
  Cu  Cu12  1  0.33333333  0.66666667  0.86968000  1
  Cu  Cu13  1  0.33333333  0.66666667  0.63032000  1
  Cu  Cu14  1  0.07113000  0.44462000  0.94009000  1
  Cu  Cu15  1  0.07113000  0.44462000  0.55991000  1
  H  H16  1  0.92470000  0.18510000  0.89970000  1
  H  H17  1  0.92470000  0.18510000  0.60030000  1
  H  H18  1  0.92000000  0.13390000  0.98610000  1
  H  H19  1  0.92000000  0.13390000  0.51390000  1
  H  H20  1  0.91040000  0.72270000  0.93340000  1
  H  H21  1  0.91040000  0.72270000  0.56660000  1
  H  H22  1  0.86610000  0.78610000  0.98610000  1
  H  H23  1  0.86610000  0.78610000  0.51390000  1
  H  H24  1  0.81490000  0.73960000  0.89970000  1
  H  H25  1  0.81490000  0.73960000  0.60030000  1
  H  H26  1  0.81230000  0.08960000  0.93340000  1
  H  H27  1  0.81230000  0.08960000  0.56660000  1
  H  H28  1  0.78610000  0.92000000  0.48610000  1
  H  H29  1  0.78610000  0.92000000  0.01390000  1
  H  H30  1  0.73960000  0.92470000  0.39970000  1
  H  H31  1  0.73960000  0.92470000  0.10030000  1
  H  H32  1  0.72270000  0.81230000  0.43340000  1
  H  H33  1  0.72270000  0.81230000  0.06660000  1
  H  H34  1  0.27730000  0.18770000  0.93340000  1
  H  H35  1  0.27730000  0.18770000  0.56660000  1
  H  H36  1  0.26040000  0.07530000  0.89970000  1
  H  H37  1  0.26040000  0.07530000  0.60030000  1
  H  H38  1  0.21390000  0.08000000  0.98610000  1
  H  H39  1  0.21390000  0.08000000  0.51390000  1
  H  H40  1  0.18770000  0.91040000  0.43340000  1
  H  H41  1  0.18770000  0.91040000  0.06660000  1
  H  H42  1  0.18510000  0.26040000  0.39970000  1
  H  H43  1  0.18510000  0.26040000  0.10030000  1
  H  H44  1  0.13390000  0.21390000  0.48610000  1
  H  H45  1  0.13390000  0.21390000  0.01390000  1
  H  H46  1  0.08960000  0.27730000  0.43340000  1
  H  H47  1  0.08960000  0.27730000  0.06660000  1
  H  H48  1  0.08000000  0.86610000  0.48610000  1
  H  H49  1  0.08000000  0.86610000  0.01390000  1
  H  H50  1  0.07530000  0.81490000  0.39970000  1
  H  H51  1  0.07530000  0.81490000  0.10030000  1
  C  C52  1  0.95410000  0.57210000  0.25000000  1
  C  C53  1  0.92870000  0.32870000  0.75000000  1
  C  C54  1  0.88070000  0.15400000  0.94800000  1
  C  C55  1  0.88070000  0.15400000  0.55200000  1
  C  C56  1  0.85730000  0.23850000  0.98730000  1
  C  C57  1  0.85730000  0.23850000  0.51270000  1
  C  C58  1  0.84600000  0.72670000  0.94800000  1
  C  C59  1  0.84600000  0.72670000  0.55200000  1
  C  C60  1  0.76150000  0.61880000  0.98730000  1
  C  C61  1  0.76150000  0.61880000  0.51270000  1
  C  C62  1  0.72670000  0.88070000  0.44800000  1
  C  C63  1  0.72670000  0.88070000  0.05200000  1
  C  C64  1  0.67130000  0.60000000  0.75000000  1
  C  C65  1  0.61880000  0.85730000  0.48730000  1
  C  C66  1  0.61880000  0.85730000  0.01270000  1
  C  C67  1  0.61800000  0.04590000  0.25000000  1
  C  C68  1  0.60000000  0.92870000  0.25000000  1
  C  C69  1  0.57210000  0.61800000  0.75000000  1
  C  C70  1  0.42790000  0.38200000  0.25000000  1
  C  C71  1  0.40000000  0.07130000  0.75000000  1
  C  C72  1  0.38200000  0.95410000  0.75000000  1
  C  C73  1  0.38120000  0.14270000  0.98730000  1
  C  C74  1  0.38120000  0.14270000  0.51270000  1
  C  C75  1  0.32870000  0.40000000  0.25000000  1
  C  C76  1  0.27330000  0.11930000  0.94800000  1
  C  C77  1  0.27330000  0.11930000  0.55200000  1
  C  C78  1  0.23850000  0.38120000  0.48730000  1
  C  C79  1  0.23850000  0.38120000  0.01270000  1
  C  C80  1  0.15400000  0.27330000  0.44800000  1
  C  C81  1  0.15400000  0.27330000  0.05200000  1
  C  C82  1  0.14270000  0.76150000  0.48730000  1
  C  C83  1  0.14270000  0.76150000  0.01270000  1
  C  C84  1  0.11930000  0.84600000  0.44800000  1
  C  C85  1  0.11930000  0.84600000  0.05200000  1
  C  C86  1  0.07130000  0.67130000  0.25000000  1
  C  C87  1  0.04590000  0.42790000  0.75000000  1
  N  N88  1  0.92560000  0.34730000  0.98630000  1
  N  N89  1  0.92560000  0.34730000  0.51370000  1
  N  N90  1  0.89760000  0.52550000  0.31660000  1
  N  N91  1  0.89760000  0.52550000  0.18340000  1
  N  N92  1  0.87310000  0.39000000  0.46930000  1
  N  N93  1  0.87310000  0.39000000  0.03070000  1
  N  N94  1  0.80010000  0.44550000  0.29010000  1
  N  N95  1  0.80010000  0.44550000  0.20990000  1
  N  N96  1  0.78600000  0.55210000  0.46990000  1
  N  N97  1  0.78600000  0.55210000  0.03010000  1
  N  N98  1  0.77910000  0.30880000  0.44350000  1
  N  N99  1  0.77910000  0.30880000  0.05650000  1
  N  N100  1  0.76610000  0.21400000  0.46990000  1
  N  N101  1  0.76610000  0.21400000  0.03010000  1
  N  N102  1  0.69120000  0.47030000  0.44350000  1
  N  N103  1  0.69120000  0.47030000  0.05650000  1
  N  N104  1  0.65270000  0.57830000  0.98630000  1
  N  N105  1  0.65270000  0.57830000  0.51370000  1
  N  N106  1  0.64540000  0.19990000  0.29010000  1
  N  N107  1  0.64540000  0.19990000  0.20990000  1
  N  N108  1  0.62790000  0.10240000  0.31660000  1
  N  N109  1  0.62790000  0.10240000  0.18340000  1
  N  N110  1  0.61000000  0.48310000  0.46930000  1
  N  N111  1  0.61000000  0.48310000  0.03070000  1
  N  N112  1  0.57830000  0.92560000  0.48630000  1
  N  N113  1  0.57830000  0.92560000  0.01370000  1
  N  N114  1  0.55450000  0.35460000  0.29010000  1
  N  N115  1  0.55450000  0.35460000  0.20990000  1
  N  N116  1  0.55210000  0.76610000  0.96990000  1
  N  N117  1  0.55210000  0.76610000  0.53010000  1
  N  N118  1  0.52970000  0.22090000  0.44350000  1
  N  N119  1  0.52970000  0.22090000  0.05650000  1
  N  N120  1  0.52550000  0.62790000  0.81660000  1
  N  N121  1  0.52550000  0.62790000  0.68340000  1
  N  N122  1  0.51690000  0.12690000  0.46930000  1
  N  N123  1  0.51690000  0.12690000  0.03070000  1
  N  N124  1  0.48310000  0.87310000  0.96930000  1
  N  N125  1  0.48310000  0.87310000  0.53070000  1
  N  N126  1  0.47450000  0.37210000  0.31660000  1
  N  N127  1  0.47450000  0.37210000  0.18340000  1
  N  N128  1  0.47030000  0.77910000  0.94350000  1
  N  N129  1  0.47030000  0.77910000  0.55650000  1
  N  N130  1  0.44790000  0.23390000  0.46990000  1
  N  N131  1  0.44790000  0.23390000  0.03010000  1
  N  N132  1  0.44550000  0.64540000  0.79010000  1
  N  N133  1  0.44550000  0.64540000  0.70990000  1
  N  N134  1  0.42170000  0.07440000  0.98630000  1
  N  N135  1  0.42170000  0.07440000  0.51370000  1
  N  N136  1  0.39000000  0.51690000  0.96930000  1
  N  N137  1  0.39000000  0.51690000  0.53070000  1
  N  N138  1  0.37210000  0.89760000  0.81660000  1
  N  N139  1  0.37210000  0.89760000  0.68340000  1
  N  N140  1  0.35460000  0.80010000  0.79010000  1
  N  N141  1  0.35460000  0.80010000  0.70990000  1
  N  N142  1  0.34730000  0.42170000  0.48630000  1
  N  N143  1  0.34730000  0.42170000  0.01370000  1
  N  N144  1  0.30880000  0.52970000  0.94350000  1
  N  N145  1  0.30880000  0.52970000  0.55650000  1
  N  N146  1  0.23390000  0.78600000  0.96990000  1
  N  N147  1  0.23390000  0.78600000  0.53010000  1
  N  N148  1  0.22090000  0.69120000  0.94350000  1
  N  N149  1  0.22090000  0.69120000  0.55650000  1
  N  N150  1  0.21400000  0.44790000  0.96990000  1
  N  N151  1  0.21400000  0.44790000  0.53010000  1
  N  N152  1  0.19990000  0.55450000  0.79010000  1
  N  N153  1  0.19990000  0.55450000  0.70990000  1
  N  N154  1  0.12690000  0.61000000  0.96930000  1
  N  N155  1  0.12690000  0.61000000  0.53070000  1
  N  N156  1  0.10240000  0.47450000  0.81660000  1
  N  N157  1  0.10240000  0.47450000  0.68340000  1
  N  N158  1  0.07440000  0.65270000  0.48630000  1
  N  N159  1  0.07440000  0.65270000  0.01370000  1
