# generated using pymatgen
data_Zn3H20C36(NO6)2
_symmetry_space_group_name_H-M   'P 1'
_cell_length_a   12.55830000
_cell_length_b   14.59490000
_cell_length_c   25.74100000
_cell_angle_alpha   100.09300000
_cell_angle_beta   90.00000000
_cell_angle_gamma   90.00000000
_symmetry_Int_Tables_number   1
_chemical_formula_structural   Zn3H20C36(NO6)2
_chemical_formula_sum   'Zn12 H80 C144 N8 O48'
_cell_volume   4644.98122566
_cell_formula_units_Z   4
loop_
 _symmetry_equiv_pos_site_id
 _symmetry_equiv_pos_as_xyz
  1  'x, y, z'
loop_
 _atom_site_type_symbol
 _atom_site_label
 _atom_site_symmetry_multiplicity
 _atom_site_fract_x
 _atom_site_fract_y
 _atom_site_fract_z
 _atom_site_occupancy
  Zn  Zn0  1  0.07522000  0.06995000  0.52984000  1
  Zn  Zn1  1  0.10479000  0.88344000  0.87660000  1
  Zn  Zn2  1  0.22139000  0.48268000  0.30551000  1
  Zn  Zn3  1  0.27861000  0.98268000  0.80551000  1
  Zn  Zn4  1  0.39521000  0.38344000  0.37660000  1
  Zn  Zn5  1  0.42478000  0.56995000  0.02984000  1
  Zn  Zn6  1  0.57522000  0.43005000  0.97016000  1
  Zn  Zn7  1  0.60479000  0.61656000  0.62340000  1
  Zn  Zn8  1  0.72139000  0.01732000  0.19449000  1
  Zn  Zn9  1  0.77861000  0.51732000  0.69449000  1
  Zn  Zn10  1  0.89521000  0.11656000  0.12340000  1
  Zn  Zn11  1  0.92478000  0.93005000  0.47016000  1
  H  H12  1  0.01790000  0.78760000  0.26160000  1
  H  H13  1  0.02850000  0.21960000  0.89420000  1
  H  H14  1  0.04710000  0.98680000  0.68350000  1
  H  H15  1  0.04850000  0.14440000  0.80610000  1
  H  H16  1  0.05650000  0.63960000  0.08510000  1
  H  H17  1  0.07220000  0.11120000  0.99090000  1
  H  H18  1  0.09030000  0.99090000  0.04850000  1
  H  H19  1  0.09070000  0.21450000  0.24940000  1
  H  H20  1  0.11030000  0.16480000  0.64140000  1
  H  H21  1  0.11180000  0.65540000  0.29060000  1
  H  H22  1  0.12680000  0.04280000  0.13740000  1
  H  H23  1  0.14830000  0.50370000  0.11790000  1
  H  H24  1  0.16220000  0.85290000  0.00450000  1
  H  H25  1  0.16860000  0.18830000  0.39890000  1
  H  H26  1  0.18060000  0.29860000  0.68740000  1
  H  H27  1  0.18470000  0.72880000  0.42310000  1
  H  H28  1  0.19470000  0.35750000  0.06290000  1
  H  H29  1  0.20990000  0.43980000  0.18710000  1
  H  H30  1  0.21720000  0.95060000  0.18710000  1
  H  H31  1  0.22600000  0.21260000  0.50680000  1
  H  H32  1  0.27400000  0.71260000  0.00680000  1
  H  H33  1  0.28280000  0.45060000  0.68710000  1
  H  H34  1  0.29010000  0.93980000  0.68710000  1
  H  H35  1  0.30530000  0.85750000  0.56290000  1
  H  H36  1  0.31530000  0.22880000  0.92310000  1
  H  H37  1  0.31940000  0.79860000  0.18740000  1
  H  H38  1  0.33140000  0.68830000  0.89890000  1
  H  H39  1  0.33780000  0.35290000  0.50450000  1
  H  H40  1  0.35170000  0.00370000  0.61790000  1
  H  H41  1  0.37320000  0.54280000  0.63740000  1
  H  H42  1  0.38820000  0.15540000  0.79060000  1
  H  H43  1  0.38970000  0.66480000  0.14140000  1
  H  H44  1  0.40930000  0.71450000  0.74940000  1
  H  H45  1  0.40970000  0.49090000  0.54850000  1
  H  H46  1  0.42780000  0.61120000  0.49090000  1
  H  H47  1  0.44350000  0.13960000  0.58510000  1
  H  H48  1  0.45150000  0.64440000  0.30610000  1
  H  H49  1  0.45290000  0.48680000  0.18350000  1
  H  H50  1  0.47150000  0.71960000  0.39420000  1
  H  H51  1  0.48210000  0.28760000  0.76160000  1
  H  H52  1  0.51790000  0.71240000  0.23840000  1
  H  H53  1  0.52850000  0.28040000  0.60580000  1
  H  H54  1  0.54710000  0.51320000  0.81650000  1
  H  H55  1  0.54850000  0.35560000  0.69390000  1
  H  H56  1  0.55650000  0.86040000  0.41490000  1
  H  H57  1  0.57220000  0.38880000  0.50910000  1
  H  H58  1  0.59030000  0.50910000  0.45150000  1
  H  H59  1  0.59070000  0.28550000  0.25060000  1
  H  H60  1  0.61030000  0.33520000  0.85860000  1
  H  H61  1  0.61180000  0.84460000  0.20940000  1
  H  H62  1  0.62680000  0.45720000  0.36260000  1
  H  H63  1  0.64830000  0.99630000  0.38210000  1
  H  H64  1  0.66220000  0.64710000  0.49550000  1
  H  H65  1  0.66860000  0.31170000  0.10110000  1
  H  H66  1  0.68060000  0.20140000  0.81260000  1
  H  H67  1  0.68470000  0.77120000  0.07690000  1
  H  H68  1  0.69470000  0.14250000  0.43710000  1
  H  H69  1  0.70990000  0.06020000  0.31290000  1
  H  H70  1  0.71720000  0.54940000  0.31290000  1
  H  H71  1  0.72600000  0.28740000  0.99320000  1
  H  H72  1  0.77400000  0.78740000  0.49320000  1
  H  H73  1  0.78280000  0.04940000  0.81290000  1
  H  H74  1  0.79010000  0.56020000  0.81290000  1
  H  H75  1  0.80530000  0.64250000  0.93710000  1
  H  H76  1  0.81530000  0.27120000  0.57690000  1
  H  H77  1  0.81940000  0.70140000  0.31260000  1
  H  H78  1  0.83140000  0.81170000  0.60110000  1
  H  H79  1  0.83780000  0.14710000  0.99550000  1
  H  H80  1  0.85170000  0.49630000  0.88210000  1
  H  H81  1  0.87320000  0.95720000  0.86260000  1
  H  H82  1  0.88820000  0.34460000  0.70940000  1
  H  H83  1  0.88970000  0.83520000  0.35860000  1
  H  H84  1  0.90930000  0.78550000  0.75060000  1
  H  H85  1  0.90970000  0.00910000  0.95150000  1
  H  H86  1  0.92780000  0.88880000  0.00910000  1
  H  H87  1  0.94350000  0.36040000  0.91490000  1
  H  H88  1  0.95150000  0.85560000  0.19390000  1
  H  H89  1  0.95290000  0.01320000  0.31650000  1
  H  H90  1  0.97150000  0.78040000  0.10580000  1
  H  H91  1  0.98210000  0.21240000  0.73840000  1
  C  C92  1  0.00120000  0.06380000  0.31853000  1
  C  C93  1  0.00120000  0.24840000  0.86660000  1
  C  C94  1  0.01350000  0.20290000  0.81370000  1
  C  C95  1  0.01400000  0.10860000  0.27565000  1
  C  C96  1  0.02510000  0.75690000  0.22610000  1
  C  C97  1  0.04350000  0.04890000  0.41229000  1
  C  C98  1  0.04830000  0.66810000  0.12100000  1
  C  C99  1  0.04870000  0.23140000  0.08023000  1
  C  C100  1  0.05460000  0.91730000  0.77227000  1
  C  C101  1  0.05940000  0.09300000  0.36471000  1
  C  C102  1  0.07650000  0.66850000  0.21450000  1
  C  C103  1  0.08280000  0.18370000  0.27880000  1
  C  C104  1  0.08820000  0.62330000  0.16210000  1
  C  C105  1  0.11800000  0.62450000  0.25501000  1
  C  C106  1  0.12210000  0.16040000  0.99174000  1
  C  C107  1  0.12290000  0.23280000  0.03444000  1
  C  C108  1  0.12890000  0.16830000  0.36758000  1
  C  C109  1  0.13300000  0.95380000  0.06710000  1
  C  C110  1  0.13930000  0.53620000  0.15300000  1
  C  C111  1  0.14040000  0.21440000  0.32503000  1
  C  C112  1  0.14930000  0.20450000  0.62280000  1
  C  C113  1  0.15260000  0.98370000  0.12080000  1
  C  C114  1  0.15440000  0.88190000  0.49374000  1
  C  C115  1  0.17430000  0.87220000  0.04120000  1
  C  C116  1  0.17570000  0.49870000  0.19414000  1
  C  C117  1  0.19040000  0.07680000  0.90603000  1
  C  C118  1  0.19070000  0.28330000  0.65030000  1
  C  C119  1  0.19260000  0.15840000  0.95033000  1
  C  C120  1  0.19470000  0.30640000  0.03441000  1
  C  C121  1  0.20770000  0.93060000  0.15020000  1
  C  C122  1  0.20840000  0.29820000  0.33010000  1
  C  C123  1  0.21640000  0.23110000  0.54380000  1
  C  C124  1  0.23380000  0.80510000  0.49287000  1
  C  C125  1  0.23430000  0.73060000  0.45118000  1
  C  C126  1  0.23490000  0.81700000  0.06940000  1
  C  C127  1  0.24840000  0.34230000  0.62370000  1
  C  C128  1  0.25160000  0.84230000  0.12370000  1
  C  C129  1  0.26510000  0.31700000  0.56940000  1
  C  C130  1  0.26570000  0.23060000  0.95118000  1
  C  C131  1  0.26620000  0.30510000  0.99287000  1
  C  C132  1  0.28360000  0.73110000  0.04380000  1
  C  C133  1  0.29160000  0.79820000  0.83010000  1
  C  C134  1  0.29230000  0.43060000  0.65020000  1
  C  C135  1  0.30530000  0.80640000  0.53441000  1
  C  C136  1  0.30740000  0.65840000  0.45033000  1
  C  C137  1  0.30930000  0.78330000  0.15030000  1
  C  C138  1  0.30960000  0.57680000  0.40603000  1
  C  C139  1  0.32430000  0.99870000  0.69414000  1
  C  C140  1  0.32570000  0.37220000  0.54120000  1
  C  C141  1  0.34560000  0.38190000  0.99374000  1
  C  C142  1  0.34740000  0.48370000  0.62080000  1
  C  C143  1  0.35070000  0.70450000  0.12280000  1
  C  C144  1  0.35960000  0.71440000  0.82503000  1
  C  C145  1  0.36070000  0.03620000  0.65300000  1
  C  C146  1  0.36700000  0.45380000  0.56710000  1
  C  C147  1  0.37110000  0.66830000  0.86758000  1
  C  C148  1  0.37710000  0.73280000  0.53444000  1
  C  C149  1  0.37790000  0.66040000  0.49174000  1
  C  C150  1  0.38200000  0.12450000  0.75501000  1
  C  C151  1  0.41180000  0.12330000  0.66210000  1
  C  C152  1  0.41720000  0.68370000  0.77880000  1
  C  C153  1  0.42350000  0.16850000  0.71450000  1
  C  C154  1  0.44060000  0.59300000  0.86471000  1
  C  C155  1  0.44540000  0.41730000  0.27227000  1
  C  C156  1  0.45130000  0.73140000  0.58023000  1
  C  C157  1  0.45170000  0.16810000  0.62100000  1
  C  C158  1  0.45650000  0.54890000  0.91229000  1
  C  C159  1  0.47490000  0.25690000  0.72610000  1
  C  C160  1  0.48600000  0.60860000  0.77565000  1
  C  C161  1  0.48650000  0.70290000  0.31370000  1
  C  C162  1  0.49880000  0.56380000  0.81853000  1
  C  C163  1  0.49880000  0.74840000  0.36660000  1
  C  C164  1  0.50120000  0.25160000  0.63340000  1
  C  C165  1  0.50120000  0.43620000  0.18147000  1
  C  C166  1  0.51350000  0.29710000  0.68630000  1
  C  C167  1  0.51400000  0.39140000  0.22435000  1
  C  C168  1  0.52510000  0.74310000  0.27390000  1
  C  C169  1  0.54350000  0.45110000  0.08771000  1
  C  C170  1  0.54830000  0.83190000  0.37900000  1
  C  C171  1  0.54870000  0.26860000  0.41977000  1
  C  C172  1  0.55460000  0.58270000  0.72773000  1
  C  C173  1  0.55940000  0.40700000  0.13529000  1
  C  C174  1  0.57650000  0.83150000  0.28550000  1
  C  C175  1  0.58280000  0.31630000  0.22120000  1
  C  C176  1  0.58820000  0.87670000  0.33790000  1
  C  C177  1  0.61800000  0.87550000  0.24499000  1
  C  C178  1  0.62210000  0.33960000  0.50826000  1
  C  C179  1  0.62290000  0.26720000  0.46556000  1
  C  C180  1  0.62890000  0.33170000  0.13242000  1
  C  C181  1  0.63300000  0.54620000  0.43290000  1
  C  C182  1  0.63930000  0.96380000  0.34700000  1
  C  C183  1  0.64040000  0.28560000  0.17497000  1
  C  C184  1  0.64930000  0.29550000  0.87720000  1
  C  C185  1  0.65260000  0.51630000  0.37920000  1
  C  C186  1  0.65440000  0.61810000  0.00626000  1
  C  C187  1  0.67430000  0.62780000  0.45880000  1
  C  C188  1  0.67570000  0.00130000  0.30586000  1
  C  C189  1  0.69040000  0.42320000  0.59397000  1
  C  C190  1  0.69070000  0.21670000  0.84970000  1
  C  C191  1  0.69260000  0.34160000  0.54967000  1
  C  C192  1  0.69470000  0.19360000  0.46559000  1
  C  C193  1  0.70770000  0.56940000  0.34980000  1
  C  C194  1  0.70840000  0.20180000  0.16990000  1
  C  C195  1  0.71640000  0.26890000  0.95620000  1
  C  C196  1  0.73380000  0.69490000  0.00713000  1
  C  C197  1  0.73430000  0.76940000  0.04882000  1
  C  C198  1  0.73490000  0.68300000  0.43060000  1
  C  C199  1  0.74840000  0.15770000  0.87630000  1
  C  C200  1  0.75160000  0.65770000  0.37630000  1
  C  C201  1  0.76510000  0.18300000  0.93060000  1
  C  C202  1  0.76570000  0.26940000  0.54882000  1
  C  C203  1  0.76620000  0.19490000  0.50713000  1
  C  C204  1  0.78360000  0.76890000  0.45620000  1
  C  C205  1  0.79160000  0.70180000  0.66990000  1
  C  C206  1  0.79230000  0.06940000  0.84980000  1
  C  C207  1  0.80530000  0.69360000  0.96559000  1
  C  C208  1  0.80740000  0.84160000  0.04967000  1
  C  C209  1  0.80930000  0.71670000  0.34970000  1
  C  C210  1  0.80960000  0.92320000  0.09397000  1
  C  C211  1  0.82430000  0.50130000  0.80586000  1
  C  C212  1  0.82570000  0.12780000  0.95880000  1
  C  C213  1  0.84560000  0.11810000  0.50626000  1
  C  C214  1  0.84740000  0.01630000  0.87920000  1
  C  C215  1  0.85070000  0.79550000  0.37720000  1
  C  C216  1  0.85960000  0.78560000  0.67497000  1
  C  C217  1  0.86070000  0.46380000  0.84700000  1
  C  C218  1  0.86700000  0.04620000  0.93290000  1
  C  C219  1  0.87110000  0.83170000  0.63242000  1
  C  C220  1  0.87710000  0.76720000  0.96556000  1
  C  C221  1  0.87790000  0.83960000  0.00826000  1
  C  C222  1  0.88200000  0.37550000  0.74499000  1
  C  C223  1  0.91180000  0.37670000  0.83790000  1
  C  C224  1  0.91720000  0.81630000  0.72120000  1
  C  C225  1  0.92350000  0.33150000  0.78550000  1
  C  C226  1  0.94060000  0.90700000  0.63529000  1
  C  C227  1  0.94540000  0.08270000  0.22773000  1
  C  C228  1  0.95130000  0.76860000  0.91977000  1
  C  C229  1  0.95170000  0.33190000  0.87900000  1
  C  C230  1  0.95650000  0.95110000  0.58771000  1
  C  C231  1  0.97490000  0.24310000  0.77390000  1
  C  C232  1  0.98600000  0.89140000  0.72435000  1
  C  C233  1  0.98650000  0.79710000  0.18630000  1
  C  C234  1  0.99880000  0.75160000  0.13340000  1
  C  C235  1  0.99880000  0.93620000  0.68147000  1
  N  N236  1  0.16050000  0.17840000  0.56874000  1
  N  N237  1  0.16510000  0.54240000  0.24540000  1
  N  N238  1  0.33490000  0.04240000  0.74540000  1
  N  N239  1  0.33950000  0.67840000  0.06874000  1
  N  N240  1  0.66050000  0.32160000  0.93126000  1
  N  N241  1  0.66510000  0.95760000  0.25460000  1
  N  N242  1  0.83490000  0.45760000  0.75460000  1
  N  N243  1  0.83950000  0.82160000  0.43126000  1
  O  O244  1  0.01330000  0.83940000  0.92633000  1
  O  O245  1  0.01780000  0.01850000  0.59228000  1
  O  O246  1  0.03180000  0.87500000  0.80991000  1
  O  O247  1  0.05240000  0.29290000  0.11895000  1
  O  O248  1  0.07000000  0.86310000  0.46967000  1
  O  O249  1  0.09040000  0.08450000  0.45365000  1
  O  O250  1  0.12740000  0.97560000  0.77198000  1
  O  O251  1  0.13190000  0.01000000  0.91268000  1
  O  O252  1  0.17610000  0.95980000  0.51962000  1
  O  O253  1  0.20950000  0.34460000  0.29325000  1
  O  O254  1  0.23920000  0.81880000  0.87279000  1
  O  O255  1  0.24670000  0.08100000  0.86641000  1
  O  O256  1  0.25330000  0.58100000  0.36641000  1
  O  O257  1  0.26080000  0.31880000  0.37279000  1
  O  O258  1  0.29050000  0.84460000  0.79325000  1
  O  O259  1  0.32390000  0.45980000  0.01962000  1
  O  O260  1  0.36810000  0.51000000  0.41268000  1
  O  O261  1  0.37260000  0.47560000  0.27198000  1
  O  O262  1  0.40960000  0.58450000  0.95365000  1
  O  O263  1  0.43000000  0.36310000  0.96967000  1
  O  O264  1  0.44760000  0.79290000  0.61895000  1
  O  O265  1  0.46820000  0.37500000  0.30991000  1
  O  O266  1  0.48220000  0.51850000  0.09228000  1
  O  O267  1  0.48670000  0.33940000  0.42633000  1
  O  O268  1  0.51330000  0.66060000  0.57367000  1
  O  O269  1  0.51780000  0.48150000  0.90772000  1
  O  O270  1  0.53180000  0.62500000  0.69009000  1
  O  O271  1  0.55240000  0.20710000  0.38105000  1
  O  O272  1  0.57000000  0.63690000  0.03033000  1
  O  O273  1  0.59040000  0.41550000  0.04635000  1
  O  O274  1  0.62740000  0.52440000  0.72802000  1
  O  O275  1  0.63190000  0.49000000  0.58732000  1
  O  O276  1  0.67610000  0.54020000  0.98038000  1
  O  O277  1  0.70950000  0.15540000  0.20675000  1
  O  O278  1  0.73920000  0.68120000  0.62721000  1
  O  O279  1  0.74670000  0.41900000  0.63359000  1
  O  O280  1  0.75330000  0.91900000  0.13359000  1
  O  O281  1  0.76080000  0.18120000  0.12721000  1
  O  O282  1  0.79050000  0.65540000  0.70675000  1
  O  O283  1  0.82390000  0.04020000  0.48038000  1
  O  O284  1  0.86810000  0.99000000  0.08732000  1
  O  O285  1  0.87260000  0.02440000  0.22802000  1
  O  O286  1  0.90960000  0.91550000  0.54635000  1
  O  O287  1  0.93000000  0.13690000  0.53033000  1
  O  O288  1  0.94760000  0.70710000  0.88105000  1
  O  O289  1  0.96820000  0.12500000  0.19009000  1
  O  O290  1  0.98220000  0.98150000  0.40772000  1
  O  O291  1  0.98670000  0.16060000  0.07367000  1
