# generated using pymatgen
data_CuH23C24SN6O7
_symmetry_space_group_name_H-M   'P 1'
_cell_length_a   9.79700000
_cell_length_b   14.14590000
_cell_length_c   15.78200000
_cell_angle_alpha   106.27300000
_cell_angle_beta   100.85500000
_cell_angle_gamma   105.96800000
_symmetry_Int_Tables_number   1
_chemical_formula_structural   CuH23C24SN6O7
_chemical_formula_sum   'Cu2 H46 C48 S2 N12 O14'
_cell_volume   1933.27816738
_cell_formula_units_Z   2
loop_
 _symmetry_equiv_pos_site_id
 _symmetry_equiv_pos_as_xyz
  1  'x, y, z'
loop_
 _atom_site_type_symbol
 _atom_site_label
 _atom_site_symmetry_multiplicity
 _atom_site_fract_x
 _atom_site_fract_y
 _atom_site_fract_z
 _atom_site_occupancy
  Cu  Cu0  1  0.19523000  0.10617000  0.07275000  1
  Cu  Cu1  1  0.80477000  0.89383000  0.92725000  1
  H  H2  1  0.02840000  0.33340000  0.81370000  1
  H  H3  1  0.04830000  0.27170000  0.02430000  1
  H  H4  1  0.05540000  0.32690000  0.20750000  1
  H  H5  1  0.12420000  0.73050000  0.17590000  1
  H  H6  1  0.13740000  0.07910000  0.25930000  1
  H  H7  1  0.16410000  0.89200000  0.34470000  1
  H  H8  1  0.17890000  0.01030000  0.39210000  1
  H  H9  1  0.19360000  0.08080000  0.86870000  1
  H  H10  1  0.21390000  0.78310000  0.35320000  1
  H  H11  1  0.23090000  0.42340000  0.88610000  1
  H  H12  1  0.25690000  0.74350000  0.08900000  1
  H  H13  1  0.28890000  0.74330000  0.42760000  1
  H  H14  1  0.29390000  0.58180000  0.76510000  1
  H  H15  1  0.31310000  0.54620000  0.93490000  1
  H  H16  1  0.32580000  0.47050000  0.99100000  1
  H  H17  1  0.32780000  0.15880000  0.44210000  1
  H  H18  1  0.33490000  0.67520000  0.03190000  1
  H  H19  1  0.33570000  0.67750000  0.13290000  1
  H  H20  1  0.35720000  0.75390000  0.34600000  1
  H  H21  1  0.36060000  0.88090000  0.91660000  1
  H  H22  1  0.37250000  0.96010000  0.11680000  1
  H  H23  1  0.46890000  0.23700000  0.52480000  1
  H  H24  1  0.48400000  0.19650000  0.42400000  1
  H  H25  1  0.51600000  0.80350000  0.57600000  1
  H  H26  1  0.53110000  0.76300000  0.47520000  1
  H  H27  1  0.62750000  0.03990000  0.88320000  1
  H  H28  1  0.63940000  0.11910000  0.08340000  1
  H  H29  1  0.64280000  0.24610000  0.65400000  1
  H  H30  1  0.66430000  0.32250000  0.86710000  1
  H  H31  1  0.66510000  0.32480000  0.96810000  1
  H  H32  1  0.67220000  0.84120000  0.55790000  1
  H  H33  1  0.67420000  0.52950000  0.00900000  1
  H  H34  1  0.68690000  0.45380000  0.06510000  1
  H  H35  1  0.70610000  0.41820000  0.23490000  1
  H  H36  1  0.71110000  0.25670000  0.57240000  1
  H  H37  1  0.74310000  0.25650000  0.91100000  1
  H  H38  1  0.76910000  0.57660000  0.11390000  1
  H  H39  1  0.78610000  0.21690000  0.64680000  1
  H  H40  1  0.80640000  0.91920000  0.13130000  1
  H  H41  1  0.82110000  0.98970000  0.60790000  1
  H  H42  1  0.83590000  0.10800000  0.65530000  1
  H  H43  1  0.86260000  0.92090000  0.74070000  1
  H  H44  1  0.87580000  0.26950000  0.82410000  1
  H  H45  1  0.94460000  0.67310000  0.79250000  1
  H  H46  1  0.95170000  0.72830000  0.97570000  1
  H  H47  1  0.97160000  0.66666667  0.18630000  1
  C  C48  1  0.01050000  0.59280000  0.06570000  1
  C  C49  1  0.01990000  0.68900000  0.14270000  1
  C  C50  1  0.04780000  0.68880000  0.80640000  1
  C  C51  1  0.07390000  0.23420000  0.97420000  1
  C  C52  1  0.08210000  0.87380000  0.90130000  1
  C  C53  1  0.10390000  0.61090000  0.77260000  1
  C  C54  1  0.12520000  0.49210000  0.97220000  1
  C  C55  1  0.13530000  0.58640000  0.03750000  1
  C  C56  1  0.14250000  0.78990000  0.86040000  1
  C  C57  1  0.15100000  0.13170000  0.88890000  1
  C  C58  1  0.19870000  0.04250000  0.23880000  1
  C  C59  1  0.22950000  0.96500000  0.36320000  1
  C  C60  1  0.25590000  0.63420000  0.78970000  1
  C  C61  1  0.26090000  0.48220000  0.94350000  1
  C  C62  1  0.27850000  0.67890000  0.07630000  1
  C  C63  1  0.29550000  0.81280000  0.87930000  1
  C  C64  1  0.30730000  0.78410000  0.38810000  1
  C  C65  1  0.32590000  0.97700000  0.16290000  1
  C  C66  1  0.35170000  0.73570000  0.84340000  1
  C  C67  1  0.37200000  0.98290000  0.43330000  1
  C  C68  1  0.40440000  0.89640000  0.44670000  1
  C  C69  1  0.43380000  0.17770000  0.46740000  1
  C  C70  1  0.46620000  0.08500000  0.48530000  1
  C  C71  1  0.48250000  0.23570000  0.13830000  1
  C  C72  1  0.51750000  0.76430000  0.86170000  1
  C  C73  1  0.53380000  0.91500000  0.51470000  1
  C  C74  1  0.56620000  0.82230000  0.53260000  1
  C  C75  1  0.59560000  0.10360000  0.55330000  1
  C  C76  1  0.62800000  0.01710000  0.56670000  1
  C  C77  1  0.64830000  0.26430000  0.15660000  1
  C  C78  1  0.67410000  0.02300000  0.83710000  1
  C  C79  1  0.69270000  0.21590000  0.61190000  1
  C  C80  1  0.70450000  0.18720000  0.12070000  1
  C  C81  1  0.72150000  0.32110000  0.92370000  1
  C  C82  1  0.73910000  0.51780000  0.05650000  1
  C  C83  1  0.74410000  0.36580000  0.21030000  1
  C  C84  1  0.77050000  0.03500000  0.63680000  1
  C  C85  1  0.80130000  0.95750000  0.76120000  1
  C  C86  1  0.84900000  0.86830000  0.11110000  1
  C  C87  1  0.85750000  0.21010000  0.13960000  1
  C  C88  1  0.86470000  0.41360000  0.96250000  1
  C  C89  1  0.87480000  0.50790000  0.02780000  1
  C  C90  1  0.89610000  0.38910000  0.22740000  1
  C  C91  1  0.91790000  0.12620000  0.09870000  1
  C  C92  1  0.92610000  0.76580000  0.02580000  1
  C  C93  1  0.95220000  0.31120000  0.19360000  1
  C  C94  1  0.98010000  0.31100000  0.85730000  1
  C  C95  1  0.98950000  0.40720000  0.93430000  1
  S  S96  1  0.02188000  0.51739000  0.29525000  1
  S  S97  1  0.97812000  0.48261000  0.70475000  1
  N  N98  1  0.05150000  0.24470000  0.89250000  1
  N  N99  1  0.09940000  0.17820000  0.83570000  1
  N  N100  1  0.13790000  0.16310000  0.97487000  1
  N  N101  1  0.24150000  0.03900000  0.16380000  1
  N  N102  1  0.25450000  0.98680000  0.28090000  1
  N  N103  1  0.33650000  0.94290000  0.23240000  1
  N  N104  1  0.66350000  0.05710000  0.76760000  1
  N  N105  1  0.74550000  0.01320000  0.71910000  1
  N  N106  1  0.75850000  0.96100000  0.83620000  1
  N  N107  1  0.86210000  0.83690000  0.02513000  1
  N  N108  1  0.90060000  0.82180000  0.16430000  1
  N  N109  1  0.94850000  0.75530000  0.10750000  1
  O  O110  1  0.05630000  0.14982000  0.13361000  1
  O  O111  1  0.06490000  0.41491000  0.69197000  1
  O  O112  1  0.09310000  0.50690000  0.38124000  1
  O  O113  1  0.12830000  0.54320000  0.24503000  1
  O  O114  1  0.16640000  0.95440000  0.96457000  1
  O  O115  1  0.40560000  0.15136000  0.07279000  1
  O  O116  1  0.43190000  0.29460000  0.18827000  1
  O  O117  1  0.56810000  0.70540000  0.81173000  1
  O  O118  1  0.59440000  0.84864000  0.92721000  1
  O  O119  1  0.83360000  0.04560000  0.03543000  1
  O  O120  1  0.87170000  0.45680000  0.75497000  1
  O  O121  1  0.90690000  0.49310000  0.61876000  1
  O  O122  1  0.93510000  0.58509000  0.30803000  1
  O  O123  1  0.94370000  0.85018000  0.86639000  1
