# generated using pymatgen
data_FeH28C22(SN5)2
_symmetry_space_group_name_H-M   'P 1'
_cell_length_a   11.03850000
_cell_length_b   15.17580000
_cell_length_c   15.17574912
_cell_angle_alpha   114.31908459
_cell_angle_beta   104.03149384
_cell_angle_gamma   104.03200000
_symmetry_Int_Tables_number   1
_chemical_formula_structural   FeH28C22(SN5)2
_chemical_formula_sum   'Fe3 H84 C66 S6 N30'
_cell_volume   2072.19774776
_cell_formula_units_Z   3
loop_
 _symmetry_equiv_pos_site_id
 _symmetry_equiv_pos_as_xyz
  1  'x, y, z'
loop_
 _atom_site_type_symbol
 _atom_site_label
 _atom_site_symmetry_multiplicity
 _atom_site_fract_x
 _atom_site_fract_y
 _atom_site_fract_z
 _atom_site_occupancy
  Fe  Fe0  1  0.50000000  0.50000000  0.50000000  1
  Fe  Fe1  1  0.00000000  0.00000000  0.50000000  1
  Fe  Fe2  1  0.00000000  0.50000000  0.00000000  1
  H  H3  1  0.86900000  0.23190000  0.86060000  1
  H  H4  1  0.36920000  0.97970000  0.35020000  1
  H  H5  1  0.26820000  0.95210000  0.24130000  1
  H  H6  1  0.56350000  0.77160000  0.52920000  1
  H  H7  1  0.45800000  0.69050000  0.41440000  1
  H  H8  1  0.56250000  0.20790000  0.51830000  1
  H  H9  1  0.76680000  0.53170000  0.65550000  1
  H  H10  1  0.38820000  0.59130000  0.26010000  1
  H  H11  1  0.36290000  0.37130000  0.23190000  1
  H  H12  1  0.28020000  0.52000000  0.14480000  1
  H  H13  1  0.73740000  0.16610000  0.58130000  1
  H  H14  1  0.42190000  0.97570000  0.26210000  1
  H  H15  1  0.87190000  0.26010000  0.66880000  1
  H  H16  1  0.96570000  0.52920000  0.75760000  1
  H  H17  1  0.52340000  0.29170000  0.31320000  1
  H  H18  1  0.55540000  0.20090000  0.32480000  1
  H  H19  1  0.21020000  0.68680000  0.97850000  1
  H  H20  1  0.95640000  0.41440000  0.72390000  1
  H  H21  1  0.76490000  0.87620000  0.53170000  1
  H  H22  1  0.11130000  0.34450000  0.87620000  1
  H  H23  1  0.86460000  0.14480000  0.62480000  1
  H  H24  1  0.42870000  0.58480000  0.16610000  1
  H  H25  1  0.31610000  0.28920000  0.04790000  1
  H  H26  1  0.76020000  0.62480000  0.48000000  1
  H  H27  1  0.02690000  0.75870000  0.71080000  1
  H  H28  1  0.62040000  0.97520000  0.26830000  1
  H  H29  1  0.23060000  0.67520000  0.87610000  1
  H  H30  1  0.04420000  0.48170000  0.68960000  1
  H  H31  1  0.64790000  0.26830000  0.29310000  1
  H  H32  1  0.99160000  0.86060000  0.62870000  1
  H  H33  1  0.38950000  0.37050000  0.02030000  1
  H  H34  1  0.35480000  0.70690000  0.97520000  1
  H  H35  1  0.79690000  0.66880000  0.40870000  1
  H  H36  1  0.01900000  0.64980000  0.62950000  1
  H  H37  1  0.44620000  0.28640000  0.02430000  1
  H  H38  1  0.84390000  0.58130000  0.41520000  1
  H  H39  1  0.20810000  0.24240000  0.77160000  1
  H  H40  1  0.64540000  0.68960000  0.20790000  1
  H  H41  1  0.64550000  0.87610000  0.20090000  1
  H  H42  1  0.15980000  0.73790000  0.71360000  1
  H  H43  1  0.76750000  0.72390000  0.30950000  1
  H  H44  1  0.76830000  0.97850000  0.29170000  1
  H  H45  1  0.23170000  0.02150000  0.70830000  1
  H  H46  1  0.23250000  0.27610000  0.69050000  1
  H  H47  1  0.84020000  0.26210000  0.28640000  1
  H  H48  1  0.35450000  0.12390000  0.79910000  1
  H  H49  1  0.35460000  0.31040000  0.79210000  1
  H  H50  1  0.79190000  0.75760000  0.22840000  1
  H  H51  1  0.15610000  0.41870000  0.58480000  1
  H  H52  1  0.55380000  0.71360000  0.97570000  1
  H  H53  1  0.98100000  0.35020000  0.37050000  1
  H  H54  1  0.20310000  0.33120000  0.59130000  1
  H  H55  1  0.64520000  0.29310000  0.02480000  1
  H  H56  1  0.61050000  0.62950000  0.97970000  1
  H  H57  1  0.00840000  0.13940000  0.37130000  1
  H  H58  1  0.35210000  0.73170000  0.70690000  1
  H  H59  1  0.95580000  0.51830000  0.31040000  1
  H  H60  1  0.76940000  0.32480000  0.12390000  1
  H  H61  1  0.37960000  0.02480000  0.73170000  1
  H  H62  1  0.97310000  0.24130000  0.28920000  1
  H  H63  1  0.23980000  0.37520000  0.52000000  1
  H  H64  1  0.68390000  0.71080000  0.95210000  1
  H  H65  1  0.57130000  0.41520000  0.83390000  1
  H  H66  1  0.13540000  0.85520000  0.37520000  1
  H  H67  1  0.88870000  0.65550000  0.12380000  1
  H  H68  1  0.23510000  0.12380000  0.46830000  1
  H  H69  1  0.04360000  0.58560000  0.27610000  1
  H  H70  1  0.78980000  0.31320000  0.02150000  1
  H  H71  1  0.44460000  0.79910000  0.67520000  1
  H  H72  1  0.47660000  0.70830000  0.68680000  1
  H  H73  1  0.03430000  0.47080000  0.24240000  1
  H  H74  1  0.12810000  0.73990000  0.33120000  1
  H  H75  1  0.57810000  0.02430000  0.73790000  1
  H  H76  1  0.26260000  0.83390000  0.41870000  1
  H  H77  1  0.71980000  0.48000000  0.85520000  1
  H  H78  1  0.63710000  0.62870000  0.76810000  1
  H  H79  1  0.61180000  0.40870000  0.73990000  1
  H  H80  1  0.23320000  0.46830000  0.34450000  1
  H  H81  1  0.43750000  0.79210000  0.48170000  1
  H  H82  1  0.54200000  0.30950000  0.58560000  1
  H  H83  1  0.43650000  0.22840000  0.47080000  1
  H  H84  1  0.73180000  0.04790000  0.75870000  1
  H  H85  1  0.63080000  0.02030000  0.64980000  1
  H  H86  1  0.13100000  0.76810000  0.13940000  1
  C  C87  1  0.92671000  0.65072000  0.91501000  1
  C  C88  1  0.50330000  0.76360000  0.46640000  1
  C  C89  1  0.34720000  0.94480000  0.27590000  1
  C  C90  1  0.72401000  0.73571000  0.65072000  1
  C  C91  1  0.31980000  0.83130000  0.23610000  1
  C  C92  1  0.31906000  0.67406000  0.19942000  1
  C  C93  1  0.40243000  0.78257000  0.26062000  1
  C  C94  1  0.58180000  0.81990000  0.42600000  1
  C  C95  1  0.35750000  0.58470000  0.19200000  1
  C  C96  1  0.54222000  0.83211000  0.33945000  1
  C  C97  1  0.83450000  0.19200000  0.60730000  1
  C  C98  1  0.68152000  0.34451000  0.44705000  1
  C  C99  1  0.84420000  0.42600000  0.60610000  1
  C  C100  1  0.59430000  0.26970000  0.33460000  1
  C  C101  1  0.96310000  0.46640000  0.70280000  1
  C  C102  1  0.01170000  0.08499000  0.73571000  1
  C  C103  1  0.79723000  0.33945000  0.50734000  1
  C  C104  1  0.66299000  0.89746000  0.34451000  1
  C  C105  1  0.64500000  0.52536000  0.32594000  1
  C  C106  1  0.48850000  0.40480000  0.16870000  1
  C  C107  1  0.25970000  0.66540000  0.93510000  1
  C  C108  1  0.23447000  0.55295000  0.89746000  1
  C  C109  1  0.40240000  0.33110000  0.05520000  1
  C  C110  1  0.88036000  0.19942000  0.52536000  1
  C  C111  1  0.77280000  0.60730000  0.41530000  1
  C  C112  1  0.85819000  0.26062000  0.47805000  1
  C  C113  1  0.07130000  0.72410000  0.66890000  1
  C  C114  1  0.61986000  0.47805000  0.21743000  1
  C  C115  1  0.67540000  0.93510000  0.26970000  1
  C  C116  1  0.23810000  0.39390000  0.81990000  1
  C  C117  1  0.28989000  0.49266000  0.83211000  1
  C  C118  1  0.08370000  0.76390000  0.59520000  1
  C  C119  1  0.26030000  0.29720000  0.76360000  1
  C  C120  1  0.73970000  0.70280000  0.23640000  1
  C  C121  1  0.91630000  0.23610000  0.40480000  1
  C  C122  1  0.71011000  0.50734000  0.16789000  1
  C  C123  1  0.76190000  0.60610000  0.18010000  1
  C  C124  1  0.32460000  0.06490000  0.73030000  1
  C  C125  1  0.38014000  0.52195000  0.78257000  1
  C  C126  1  0.92870000  0.27590000  0.33110000  1
  C  C127  1  0.14181000  0.73938000  0.52195000  1
  C  C128  1  0.22720000  0.39270000  0.58470000  1
  C  C129  1  0.11964000  0.80058000  0.47464000  1
  C  C130  1  0.59760000  0.66890000  0.94480000  1
  C  C131  1  0.76553000  0.44705000  0.10254000  1
  C  C132  1  0.74030000  0.33460000  0.06490000  1
  C  C133  1  0.51150000  0.59520000  0.83130000  1
  C  C134  1  0.35500000  0.47464000  0.67406000  1
  C  C135  1  0.33701000  0.10254000  0.65549000  1
  C  C136  1  0.20277000  0.66055000  0.49266000  1
  C  C137  1  0.98830000  0.91501000  0.26429000  1
  C  C138  1  0.03690000  0.53360000  0.29720000  1
  C  C139  1  0.40570000  0.73030000  0.66540000  1
  C  C140  1  0.15580000  0.57400000  0.39390000  1
  C  C141  1  0.31848000  0.65549000  0.55295000  1
  C  C142  1  0.16550000  0.80800000  0.39270000  1
  C  C143  1  0.45778000  0.16789000  0.66055000  1
  C  C144  1  0.64250000  0.41530000  0.80800000  1
  C  C145  1  0.41820000  0.18010000  0.57400000  1
  C  C146  1  0.59757000  0.21743000  0.73938000  1
  C  C147  1  0.68094000  0.32594000  0.80058000  1
  C  C148  1  0.68020000  0.16870000  0.76390000  1
  C  C149  1  0.27599000  0.26429000  0.34928000  1
  C  C150  1  0.65280000  0.05520000  0.72410000  1
  C  C151  1  0.49670000  0.23640000  0.53360000  1
  C  C152  1  0.07329000  0.34928000  0.08499000  1
  S  S153  1  0.90167000  0.71723000  0.85657000  1
  S  S154  1  0.81556000  0.86066000  0.71723000  1
  S  S155  1  0.04510000  0.14343000  0.86066000  1
  S  S156  1  0.95490000  0.85657000  0.13934000  1
  S  S157  1  0.18444000  0.13934000  0.28277000  1
  S  S158  1  0.09833000  0.28277000  0.14343000  1
  N  N159  1  0.05268000  0.39636000  0.04298000  1
  N  N160  1  0.19852000  0.75589000  0.16637000  1
  N  N161  1  0.19314000  0.65746000  0.14246000  1
  N  N162  1  0.65632000  0.64662000  0.60364000  1
  N  N163  1  0.65862000  0.42834000  0.50602000  1
  N  N164  1  0.75870000  0.47586000  0.60244000  1
  N  N165  1  0.53568000  0.48500000  0.34254000  1
  N  N166  1  0.44263000  0.41048000  0.24411000  1
  N  N167  1  0.15260000  0.49398000  0.92232000  1
  N  N168  1  0.71716000  0.87342000  0.47586000  1
  N  N169  1  0.15626000  0.39756000  0.87342000  1
  N  N170  1  0.76972000  0.92232000  0.42834000  1
  N  N171  1  0.99030000  0.04298000  0.64662000  1
  N  N172  1  0.03215000  0.83363000  0.58952000  1
  N  N173  1  0.94932000  0.14246000  0.48500000  1
  N  N174  1  0.05068000  0.85754000  0.51500000  1
  N  N175  1  0.96785000  0.16637000  0.41048000  1
  N  N176  1  0.00970000  0.95702000  0.35338000  1
  N  N177  1  0.23028000  0.07768000  0.57166000  1
  N  N178  1  0.84374000  0.60244000  0.12658000  1
  N  N179  1  0.28284000  0.12658000  0.52414000  1
  N  N180  1  0.84740000  0.50602000  0.07768000  1
  N  N181  1  0.55737000  0.58952000  0.75589000  1
  N  N182  1  0.46432000  0.51500000  0.65746000  1
  N  N183  1  0.24130000  0.52414000  0.39756000  1
  N  N184  1  0.34138000  0.57166000  0.49398000  1
  N  N185  1  0.34368000  0.35338000  0.39636000  1
  N  N186  1  0.80686000  0.34254000  0.85754000  1
  N  N187  1  0.80148000  0.24411000  0.83363000  1
  N  N188  1  0.94732000  0.60364000  0.95702000  1
