# generated using pymatgen
data_CdH12C21(NO3)3
_symmetry_space_group_name_H-M   'P 1'
_cell_length_a   11.60900000
_cell_length_b   14.40697314
_cell_length_c   14.40697314
_cell_angle_alpha   64.55860132
_cell_angle_beta   66.24095577
_cell_angle_gamma   66.24095577
_symmetry_Int_Tables_number   1
_chemical_formula_structural   CdH12C21(NO3)3
_chemical_formula_sum   'Cd2 H24 C42 N6 O18'
_cell_volume   1912.95649960
_cell_formula_units_Z   2
loop_
 _symmetry_equiv_pos_site_id
 _symmetry_equiv_pos_as_xyz
  1  'x, y, z'
loop_
 _atom_site_type_symbol
 _atom_site_label
 _atom_site_symmetry_multiplicity
 _atom_site_fract_x
 _atom_site_fract_y
 _atom_site_fract_z
 _atom_site_occupancy
  C  C0  1  0.86790000  0.74990000  0.15830000  1
  C  C1  1  0.86790000  0.15830000  0.74990000  1
  C  C2  1  0.68960000  0.83730000  0.06510000  1
  C  C3  1  0.68960000  0.06510000  0.83730000  1
  C  C4  1  0.97880000  0.66290000  0.18610000  1
  C  C5  1  0.97880000  0.18610000  0.66290000  1
  C  C6  1  0.80950000  0.74960000  0.09140000  1
  C  C7  1  0.80950000  0.09140000  0.74960000  1
  C  C8  1  0.05820000  0.41690000  0.41690000  1
  C  C9  1  0.94970000  0.40700000  0.40700000  1
  C  C10  1  0.18190000  0.36650000  0.36650000  1
  C  C11  1  0.02880000  0.58720000  0.13800000  1
  C  C12  1  0.02880000  0.13800000  0.58720000  1
  C  C13  1  0.86150000  0.66930000  0.04710000  1
  C  C14  1  0.86150000  0.04710000  0.66930000  1
  C  C15  1  0.96180000  0.34810000  0.34810000  1
  C  C16  1  0.97070000  0.58650000  0.06930000  1
  C  C17  1  0.97070000  0.06930000  0.58650000  1
  C  C18  1  0.19850000  0.30530000  0.30530000  1
  C  C19  1  0.08970000  0.29700000  0.29700000  1
  C  C20  1  0.33290000  0.25200000  0.25200000  1
  C  C21  1  0.66710000  0.74800000  0.74800000  1
  C  C22  1  0.91030000  0.70300000  0.70300000  1
  C  C23  1  0.80150000  0.69470000  0.69470000  1
  C  C24  1  0.02930000  0.41350000  0.93070000  1
  C  C25  1  0.02930000  0.93070000  0.41350000  1
  C  C26  1  0.03820000  0.65190000  0.65190000  1
  C  C27  1  0.13850000  0.33070000  0.95290000  1
  C  C28  1  0.13850000  0.95290000  0.33070000  1
  C  C29  1  0.97120000  0.41280000  0.86200000  1
  C  C30  1  0.97120000  0.86200000  0.41280000  1
  C  C31  1  0.81810000  0.63350000  0.63350000  1
  C  C32  1  0.05030000  0.59300000  0.59300000  1
  C  C33  1  0.94180000  0.58310000  0.58310000  1
  C  C34  1  0.19050000  0.25040000  0.90860000  1
  C  C35  1  0.19050000  0.90860000  0.25040000  1
  C  C36  1  0.02120000  0.33710000  0.81390000  1
  C  C37  1  0.02120000  0.81390000  0.33710000  1
  C  C38  1  0.31040000  0.16270000  0.93490000  1
  C  C39  1  0.31040000  0.93490000  0.16270000  1
  C  C40  1  0.13210000  0.25010000  0.84170000  1
  C  C41  1  0.13210000  0.84170000  0.25010000  1
  Cd  Cd42  1  0.48743000  0.90801000  0.90801000  1
  Cd  Cd43  1  0.51257000  0.09199000  0.09199000  1
  H  H44  1  0.24060000  0.80590000  0.13090000  1
  H  H45  1  0.24060000  0.13090000  0.80590000  1
  H  H46  1  0.01450000  0.65900000  0.23540000  1
  H  H47  1  0.01450000  0.23540000  0.65900000  1
  H  H48  1  0.86630000  0.44140000  0.44140000  1
  H  H49  1  0.25500000  0.37270000  0.37270000  1
  H  H50  1  0.88820000  0.34220000  0.34220000  1
  H  H51  1  0.10440000  0.53340000  0.15080000  1
  H  H52  1  0.10440000  0.15080000  0.53340000  1
  H  H53  1  0.82250000  0.67040000  0.00140000  1
  H  H54  1  0.82250000  0.00140000  0.67040000  1
  H  H55  1  0.82080000  0.78810000  0.78810000  1
  H  H56  1  0.17920000  0.21190000  0.21190000  1
  H  H57  1  0.17750000  0.32960000  0.99860000  1
  H  H58  1  0.17750000  0.99860000  0.32960000  1
  H  H59  1  0.89560000  0.46660000  0.84920000  1
  H  H60  1  0.89560000  0.84920000  0.46660000  1
  H  H61  1  0.11180000  0.65780000  0.65780000  1
  H  H62  1  0.74500000  0.62730000  0.62730000  1
  H  H63  1  0.13370000  0.55860000  0.55860000  1
  H  H64  1  0.98550000  0.34100000  0.76460000  1
  H  H65  1  0.98550000  0.76460000  0.34100000  1
  H  H66  1  0.75940000  0.19410000  0.86910000  1
  H  H67  1  0.75940000  0.86910000  0.19410000  1
  N  N68  1  0.05870000  0.47560000  0.47560000  1
  N  N69  1  0.03210000  0.50180000  0.02520000  1
  N  N70  1  0.03210000  0.02520000  0.50180000  1
  N  N71  1  0.96790000  0.49820000  0.97480000  1
  N  N72  1  0.96790000  0.97480000  0.49820000  1
  N  N73  1  0.94130000  0.52440000  0.52440000  1
  O  O74  1  0.35030000  0.89870000  0.08450000  1
  O  O75  1  0.35030000  0.08450000  0.89870000  1
  O  O76  1  0.17630000  0.78880000  0.17740000  1
  O  O77  1  0.17630000  0.17740000  0.78880000  1
  O  O78  1  0.63770000  0.82850000  0.01090000  1
  O  O79  1  0.63770000  0.01090000  0.82850000  1
  O  O80  1  0.66310000  0.80390000  0.80390000  1
  O  O81  1  0.89860000  0.76200000  0.76200000  1
  O  O82  1  0.42620000  0.26050000  0.26050000  1
  O  O83  1  0.57380000  0.73950000  0.73950000  1
  O  O84  1  0.10140000  0.23800000  0.23800000  1
  O  O85  1  0.33690000  0.19610000  0.19610000  1
  O  O86  1  0.36230000  0.17150000  0.98910000  1
  O  O87  1  0.36230000  0.98910000  0.17150000  1
  O  O88  1  0.82370000  0.21120000  0.82260000  1
  O  O89  1  0.82370000  0.82260000  0.21120000  1
  O  O90  1  0.64970000  0.10130000  0.91550000  1
  O  O91  1  0.64970000  0.91550000  0.10130000  1
