# generated using pymatgen
data_Zn9H18(C27O19)2
_symmetry_space_group_name_H-M   'P 1'
_cell_length_a   20.35419507
_cell_length_b   20.35419507
_cell_length_c   20.35419507
_cell_angle_alpha   109.47122063
_cell_angle_beta   109.47122063
_cell_angle_gamma   109.47122063
_symmetry_Int_Tables_number   1
_chemical_formula_structural   Zn9H18(C27O19)2
_chemical_formula_sum   'Zn18 H36 C108 O76'
_cell_volume   6491.42294226
_cell_formula_units_Z   2
loop_
 _symmetry_equiv_pos_site_id
 _symmetry_equiv_pos_as_xyz
  1  'x, y, z'
loop_
 _atom_site_type_symbol
 _atom_site_label
 _atom_site_symmetry_multiplicity
 _atom_site_fract_x
 _atom_site_fract_y
 _atom_site_fract_z
 _atom_site_occupancy
  C  C0  1  0.42330000  0.92400000  0.34590000  1
  C  C1  1  0.57810000  0.07740000  0.65410000  1
  C  C2  1  0.38000000  0.12650000  0.50170000  1
  C  C3  1  0.62480000  0.87830000  0.49830000  1
  C  C4  1  0.30310000  0.21690000  0.50420000  1
  C  C5  1  0.71270000  0.79890000  0.49580000  1
  C  C6  1  0.36670000  0.84840000  0.12570000  1
  C  C7  1  0.72270000  0.24100000  0.87430000  1
  C  C8  1  0.40740000  0.89230000  0.20690000  1
  C  C9  1  0.68540000  0.20050000  0.79310000  1
  C  C10  1  0.40690000  0.19370000  0.49300000  1
  C  C11  1  0.70070000  0.91390000  0.50700000  1
  C  C12  1  0.36770000  0.23700000  0.49390000  1
  C  C13  1  0.74310000  0.87380000  0.50610000  1
  C  C14  1  0.07740000  0.65410000  0.57810000  1
  C  C15  1  0.07600000  0.49930000  0.42190000  1
  C  C16  1  0.50070000  0.57670000  0.92260000  1
  C  C17  1  0.65410000  0.57810000  0.07740000  1
  C  C18  1  0.40380000  0.87140000  0.08000000  1
  C  C19  1  0.79140000  0.32380000  0.92000000  1
  C  C20  1  0.40420000  0.31360000  0.48800000  1
  C  C21  1  0.82560000  0.91620000  0.51200000  1
  C  C22  1  0.49830000  0.62480000  0.87830000  1
  C  C23  1  0.74650000  0.62000000  0.12170000  1
  C  C24  1  0.12650000  0.50170000  0.38000000  1
  C  C25  1  0.12170000  0.74650000  0.62000000  1
  C  C26  1  0.48490000  0.59260000  0.79950000  1
  C  C27  1  0.79310000  0.68540000  0.20050000  1
  C  C28  1  0.19370000  0.49300000  0.40690000  1
  C  C29  1  0.08610000  0.78680000  0.59310000  1
  C  C30  1  0.50700000  0.70070000  0.91390000  1
  C  C31  1  0.78680000  0.59310000  0.08610000  1
  C  C32  1  0.20050000  0.79310000  0.68540000  1
  C  C33  1  0.10770000  0.51510000  0.31460000  1
  C  C34  1  0.48170000  0.63330000  0.75900000  1
  C  C35  1  0.87430000  0.72270000  0.24100000  1
  C  C36  1  0.23700000  0.49390000  0.36770000  1
  C  C37  1  0.12620000  0.86930000  0.63230000  1
  C  C38  1  0.50610000  0.74310000  0.87380000  1
  C  C39  1  0.86930000  0.63230000  0.12620000  1
  C  C40  1  0.46760000  0.59620000  0.67620000  1
  C  C41  1  0.92000000  0.79140000  0.32380000  1
  C  C42  1  0.24100000  0.87430000  0.72270000  1
  C  C43  1  0.15160000  0.51830000  0.27730000  1
  C  C44  1  0.31360000  0.48800000  0.40420000  1
  C  C45  1  0.08380000  0.90940000  0.59580000  1
  C  C46  1  0.49580000  0.71270000  0.79890000  1
  C  C47  1  0.91380000  0.69690000  0.20110000  1
  C  C48  1  0.21690000  0.50420000  0.30310000  1
  C  C49  1  0.20110000  0.91380000  0.69690000  1
  C  C50  1  0.51200000  0.82560000  0.91620000  1
  C  C51  1  0.90940000  0.59580000  0.08380000  1
  C  C52  1  0.32380000  0.92000000  0.79140000  1
  C  C53  1  0.12860000  0.53240000  0.20860000  1
  C  C54  1  0.67620000  0.46760000  0.59620000  1
  C  C55  1  0.87140000  0.08000000  0.40380000  1
  C  C56  1  0.48800000  0.40420000  0.31360000  1
  C  C57  1  0.09060000  0.17440000  0.68640000  1
  C  C58  1  0.78310000  0.08620000  0.28730000  1
  C  C59  1  0.79890000  0.49580000  0.71270000  1
  C  C60  1  0.50420000  0.30310000  0.21690000  1
  C  C61  1  0.08620000  0.28730000  0.78310000  1
  C  C62  1  0.68640000  0.09060000  0.17440000  1
  C  C63  1  0.91620000  0.51200000  0.82560000  1
  C  C64  1  0.75900000  0.48170000  0.63330000  1
  C  C65  1  0.84840000  0.12570000  0.36670000  1
  C  C66  1  0.53240000  0.20860000  0.12860000  1
  C  C67  1  0.08000000  0.40380000  0.87140000  1
  C  C68  1  0.49390000  0.36770000  0.23700000  1
  C  C69  1  0.13070000  0.25690000  0.76300000  1
  C  C70  1  0.76300000  0.13070000  0.25690000  1
  C  C71  1  0.87380000  0.50610000  0.74310000  1
  C  C72  1  0.51830000  0.27730000  0.15160000  1
  C  C73  1  0.12570000  0.36670000  0.84840000  1
  C  C74  1  0.79950000  0.48490000  0.59260000  1
  C  C75  1  0.89230000  0.20690000  0.40740000  1
  C  C76  1  0.49300000  0.40690000  0.19370000  1
  C  C77  1  0.21320000  0.29930000  0.80630000  1
  C  C78  1  0.80630000  0.21320000  0.29930000  1
  C  C79  1  0.91390000  0.50700000  0.70070000  1
  C  C80  1  0.51510000  0.31460000  0.10770000  1
  C  C81  1  0.20690000  0.40740000  0.89230000  1
  C  C82  1  0.87350000  0.25350000  0.37520000  1
  C  C83  1  0.87830000  0.49830000  0.62480000  1
  C  C84  1  0.50170000  0.38000000  0.12650000  1
  C  C85  1  0.25350000  0.37520000  0.87350000  1
  C  C86  1  0.59580000  0.08380000  0.90940000  1
  C  C87  1  0.17440000  0.68640000  0.09060000  1
  C  C88  1  0.59620000  0.67620000  0.46760000  1
  C  C89  1  0.20860000  0.12860000  0.53240000  1
  C  C90  1  0.49930000  0.42190000  0.07600000  1
  C  C91  1  0.34590000  0.42330000  0.92400000  1
  C  C92  1  0.92260000  0.50070000  0.57670000  1
  C  C93  1  0.92400000  0.34590000  0.42330000  1
  C  C94  1  0.63230000  0.12620000  0.86930000  1
  C  C95  1  0.25690000  0.76300000  0.13070000  1
  C  C96  1  0.59310000  0.08610000  0.78680000  1
  C  C97  1  0.29930000  0.80630000  0.21320000  1
  C  C98  1  0.59260000  0.79950000  0.48490000  1
  C  C99  1  0.31460000  0.10770000  0.51510000  1
  C  C100  1  0.63330000  0.75900000  0.48170000  1
  C  C101  1  0.27730000  0.15160000  0.51830000  1
  C  C102  1  0.69690000  0.20110000  0.91380000  1
  C  C103  1  0.28730000  0.78310000  0.08620000  1
  C  C104  1  0.62000000  0.12170000  0.74650000  1
  C  C105  1  0.37520000  0.87350000  0.25350000  1
  C  C106  1  0.57670000  0.92260000  0.50070000  1
  C  C107  1  0.42190000  0.07600000  0.49930000  1
  H  H108  1  0.27570000  0.24550000  0.50200000  1
  H  H109  1  0.74350000  0.77370000  0.49800000  1
  H  H110  1  0.45860000  0.93650000  0.23290000  1
  H  H111  1  0.70360000  0.22570000  0.76710000  1
  H  H112  1  0.45170000  0.20940000  0.48650000  1
  H  H113  1  0.72290000  0.96520000  0.51350000  1
  H  H114  1  0.20940000  0.48650000  0.45170000  1
  H  H115  1  0.03480000  0.75770000  0.54830000  1
  H  H116  1  0.47790000  0.54140000  0.77430000  1
  H  H117  1  0.76710000  0.70360000  0.22570000  1
  H  H118  1  0.51350000  0.72290000  0.96520000  1
  H  H119  1  0.75770000  0.54830000  0.03480000  1
  H  H120  1  0.22570000  0.76710000  0.70360000  1
  H  H121  1  0.06350000  0.52210000  0.29640000  1
  H  H122  1  0.49800000  0.74350000  0.77370000  1
  H  H123  1  0.96980000  0.72430000  0.22630000  1
  H  H124  1  0.24550000  0.50200000  0.27570000  1
  H  H125  1  0.22630000  0.96980000  0.72430000  1
  H  H126  1  0.75450000  0.03020000  0.25650000  1
  H  H127  1  0.77370000  0.49800000  0.74350000  1
  H  H128  1  0.50200000  0.27570000  0.24550000  1
  H  H129  1  0.03020000  0.25650000  0.75450000  1
  H  H130  1  0.77430000  0.47790000  0.54140000  1
  H  H131  1  0.93650000  0.23290000  0.45860000  1
  H  H132  1  0.48650000  0.45170000  0.20940000  1
  H  H133  1  0.24230000  0.27710000  0.79060000  1
  H  H134  1  0.52210000  0.29640000  0.06350000  1
  H  H135  1  0.23290000  0.45860000  0.93650000  1
  H  H136  1  0.79060000  0.24230000  0.27710000  1
  H  H137  1  0.96520000  0.51350000  0.72290000  1
  H  H138  1  0.54830000  0.03480000  0.75770000  1
  H  H139  1  0.27710000  0.79060000  0.24230000  1
  H  H140  1  0.54140000  0.77430000  0.47790000  1
  H  H141  1  0.29640000  0.06350000  0.52210000  1
  H  H142  1  0.72430000  0.22630000  0.96980000  1
  H  H143  1  0.25650000  0.75450000  0.03020000  1
  O  O144  1  0.48380000  0.10340000  0.49220000  1
  O  O145  1  0.61120000  0.99160000  0.50780000  1
  O  O146  1  0.49040000  0.98270000  0.37770000  1
  O  O147  1  0.60500000  0.11270000  0.62230000  1
  O  O148  1  0.10340000  0.49220000  0.48380000  1
  O  O149  1  0.00840000  0.61960000  0.51620000  1
  O  O150  1  0.49230000  0.50960000  0.88730000  1
  O  O151  1  0.62230000  0.60500000  0.11270000  1
  O  O152  1  0.50780000  0.61120000  0.99160000  1
  O  O153  1  0.61960000  0.51620000  0.00840000  1
  O  O154  1  0.11270000  0.62230000  0.60500000  1
  O  O155  1  0.01730000  0.50770000  0.39500000  1
  O  O156  1  0.36870000  0.83160000  0.00410000  1
  O  O157  1  0.82750000  0.36460000  0.99590000  1
  O  O158  1  0.37340000  0.35750000  0.49890000  1
  O  O159  1  0.85860000  0.87450000  0.50110000  1
  O  O160  1  0.47530000  0.93020000  0.11890000  1
  O  O161  1  0.81130000  0.35640000  0.88110000  1
  O  O162  1  0.45820000  0.32510000  0.47110000  1
  O  O163  1  0.85400000  0.98710000  0.52890000  1
  O  O164  1  0.45490000  0.52470000  0.64360000  1
  O  O165  1  0.88110000  0.81130000  0.35640000  1
  O  O166  1  0.32510000  0.47110000  0.45820000  1
  O  O167  1  0.01290000  0.86690000  0.54180000  1
  O  O168  1  0.52890000  0.85400000  0.98710000  1
  O  O169  1  0.86690000  0.54180000  0.01290000  1
  O  O170  1  0.35640000  0.88110000  0.81130000  1
  O  O171  1  0.06980000  0.54510000  0.18870000  1
  O  O172  1  0.46290000  0.63130000  0.63540000  1
  O  O173  1  0.99590000  0.82750000  0.36460000  1
  O  O174  1  0.63540000  0.46290000  0.63130000  1
  O  O175  1  0.83160000  0.00410000  0.36870000  1
  O  O176  1  0.35750000  0.49890000  0.37340000  1
  O  O177  1  0.12550000  0.98410000  0.62660000  1
  O  O178  1  0.50110000  0.85860000  0.87450000  1
  O  O179  1  0.98410000  0.62660000  0.12550000  1
  O  O180  1  0.49600000  0.00000000  1.00000000  1
  O  O181  1  1.00000000  0.49600000  1.00000000  1
  O  O182  1  0.50400000  0.50400000  0.50400000  1
  O  O183  1  0.00000000  1.00000000  0.49600000  1
  O  O184  1  0.49890000  0.37340000  0.35750000  1
  O  O185  1  0.01590000  0.14140000  0.64250000  1
  O  O186  1  0.64250000  0.01590000  0.14140000  1
  O  O187  1  0.87450000  0.50110000  0.85860000  1
  O  O188  1  0.36460000  0.99590000  0.82750000  1
  O  O189  1  0.16840000  0.53710000  0.17250000  1
  O  O190  1  0.53710000  0.17250000  0.16840000  1
  O  O191  1  0.00410000  0.36870000  0.83160000  1
  O  O192  1  0.64360000  0.45490000  0.52470000  1
  O  O193  1  0.93020000  0.11890000  0.47530000  1
  O  O194  1  0.47110000  0.45820000  0.32510000  1
  O  O195  1  0.13310000  0.14600000  0.67490000  1
  O  O196  1  0.67490000  0.13310000  0.14600000  1
  O  O197  1  0.98710000  0.52890000  0.85400000  1
  O  O198  1  0.54510000  0.18870000  0.06980000  1
  O  O199  1  0.11890000  0.47530000  0.93020000  1
  O  O200  1  0.54180000  0.01290000  0.86690000  1
  O  O201  1  0.14600000  0.67490000  0.13310000  1
  O  O202  1  0.52470000  0.64360000  0.45490000  1
  O  O203  1  0.18870000  0.06980000  0.54510000  1
  O  O204  1  0.62660000  0.12550000  0.98410000  1
  O  O205  1  0.14140000  0.64250000  0.01590000  1
  O  O206  1  0.63130000  0.63540000  0.46290000  1
  O  O207  1  0.17250000  0.16840000  0.53710000  1
  O  O208  1  0.88730000  0.49230000  0.50960000  1
  O  O209  1  0.98270000  0.37770000  0.49040000  1
  O  O210  1  0.49220000  0.48380000  0.10340000  1
  O  O211  1  0.38040000  0.38880000  0.89660000  1
  O  O212  1  0.50770000  0.39500000  0.01730000  1
  O  O213  1  0.37770000  0.49040000  0.98270000  1
  O  O214  1  0.89660000  0.38040000  0.38880000  1
  O  O215  1  0.99160000  0.50780000  0.61120000  1
  O  O216  1  0.50960000  0.88730000  0.49230000  1
  O  O217  1  0.39500000  0.01730000  0.50770000  1
  O  O218  1  0.51620000  0.00840000  0.61960000  1
  O  O219  1  0.38880000  0.89660000  0.38040000  1
  Zn  Zn220  1  0.06360000  0.50000000  0.56360000  1
  Zn  Zn221  1  0.50000000  0.56360000  0.06360000  1
  Zn  Zn222  1  0.50000000  0.43640000  0.93640000  1
  Zn  Zn223  1  0.93640000  0.50000000  0.43640000  1
  Zn  Zn224  1  0.56360000  0.06360000  0.50000000  1
  Zn  Zn225  1  0.41685000  0.47289000  0.53078000  1
  Zn  Zn226  1  0.94211000  0.88607000  0.46922000  1
  Zn  Zn227  1  0.52711000  0.94396000  0.05789000  1
  Zn  Zn228  1  0.88607000  0.46922000  0.94211000  1
  Zn  Zn229  1  0.53078000  0.41685000  0.47289000  1
  Zn  Zn230  1  0.94396000  0.05789000  0.52711000  1
  Zn  Zn231  1  0.46922000  0.94211000  0.88607000  1
  Zn  Zn232  1  0.05604000  0.58315000  0.11393000  1
  Zn  Zn233  1  0.47289000  0.53078000  0.41685000  1
  Zn  Zn234  1  0.11393000  0.05604000  0.58315000  1
  Zn  Zn235  1  0.58315000  0.11393000  0.05604000  1
  Zn  Zn236  1  0.05789000  0.52711000  0.94396000  1
  Zn  Zn237  1  0.43640000  0.93640000  0.50000000  1
