# generated using pymatgen
data_EuH5C9NO6
_symmetry_space_group_name_H-M   'P 1'
_cell_length_a   6.64750000
_cell_length_b   13.53960000
_cell_length_c   15.91310000
_cell_angle_alpha   90.00000000
_cell_angle_beta   97.66200000
_cell_angle_gamma   90.00000000
_symmetry_Int_Tables_number   1
_chemical_formula_structural   EuH5C9NO6
_chemical_formula_sum   'Eu4 H20 C36 N4 O24'
_cell_volume   1419.46311123
_cell_formula_units_Z   4
loop_
 _symmetry_equiv_pos_site_id
 _symmetry_equiv_pos_as_xyz
  1  'x, y, z'
loop_
 _atom_site_type_symbol
 _atom_site_label
 _atom_site_symmetry_multiplicity
 _atom_site_fract_x
 _atom_site_fract_y
 _atom_site_fract_z
 _atom_site_occupancy
  Eu  Eu0  1  0.53126000  0.93970000  0.74913000  1
  Eu  Eu1  1  0.03126000  0.56030000  0.74913000  1
  Eu  Eu2  1  0.96874000  0.43970000  0.25087000  1
  Eu  Eu3  1  0.46874000  0.06030000  0.25087000  1
  H  H4  1  0.55040000  0.40380000  0.98160000  1
  H  H5  1  0.05040000  0.09620000  0.98160000  1
  H  H6  1  0.11790000  0.93260000  0.96290000  1
  H  H7  1  0.61790000  0.56740000  0.96290000  1
  H  H8  1  0.47500000  0.30140000  0.68210000  1
  H  H9  1  0.97500000  0.19860000  0.68210000  1
  H  H10  1  0.14310000  0.93120000  0.53640000  1
  H  H11  1  0.64310000  0.56880000  0.53640000  1
  H  H12  1  0.59680000  0.86380000  0.52780000  1
  H  H13  1  0.09680000  0.63620000  0.52780000  1
  H  H14  1  0.90320000  0.36380000  0.47220000  1
  H  H15  1  0.40320000  0.13620000  0.47220000  1
  H  H16  1  0.35690000  0.43120000  0.46360000  1
  H  H17  1  0.85690000  0.06880000  0.46360000  1
  H  H18  1  0.02500000  0.80140000  0.31790000  1
  H  H19  1  0.52500000  0.69860000  0.31790000  1
  H  H20  1  0.38210000  0.43260000  0.03710000  1
  H  H21  1  0.88210000  0.06740000  0.03710000  1
  H  H22  1  0.94960000  0.90380000  0.01840000  1
  H  H23  1  0.44960000  0.59620000  0.01840000  1
  C  C24  1  0.98780000  0.95240000  0.97860000  1
  C  C25  1  0.48780000  0.54760000  0.97860000  1
  C  C26  1  0.83000000  0.95040000  0.89910000  1
  C  C27  1  0.33000000  0.54960000  0.89910000  1
  C  C28  1  0.16050000  0.78290000  0.64380000  1
  C  C29  1  0.66050000  0.71710000  0.64380000  1
  C  C30  1  0.98000000  0.38680000  0.64180000  1
  C  C31  1  0.48000000  0.11320000  0.64180000  1
  C  C32  1  0.44800000  0.29720000  0.62330000  1
  C  C33  1  0.94800000  0.20280000  0.62330000  1
  C  C34  1  0.94490000  0.29620000  0.58660000  1
  C  C35  1  0.44490000  0.20380000  0.58660000  1
  C  C36  1  0.12350000  0.78430000  0.54820000  1
  C  C37  1  0.62350000  0.71570000  0.54820000  1
  C  C38  1  0.12000000  0.87350000  0.50490000  1
  C  C39  1  0.62000000  0.62650000  0.50490000  1
  C  C40  1  0.59240000  0.80270000  0.50100000  1
  C  C41  1  0.09240000  0.69730000  0.50100000  1
  C  C42  1  0.90760000  0.30270000  0.49900000  1
  C  C43  1  0.40760000  0.19730000  0.49900000  1
  C  C44  1  0.38000000  0.37350000  0.49510000  1
  C  C45  1  0.88000000  0.12650000  0.49510000  1
  C  C46  1  0.37650000  0.28430000  0.45180000  1
  C  C47  1  0.87650000  0.21570000  0.45180000  1
  C  C48  1  0.55510000  0.79620000  0.41340000  1
  C  C49  1  0.05510000  0.70380000  0.41340000  1
  C  C50  1  0.05200000  0.79720000  0.37670000  1
  C  C51  1  0.55200000  0.70280000  0.37670000  1
  C  C52  1  0.52000000  0.88680000  0.35820000  1
  C  C53  1  0.02000000  0.61320000  0.35820000  1
  C  C54  1  0.33950000  0.28290000  0.35620000  1
  C  C55  1  0.83950000  0.21710000  0.35620000  1
  C  C56  1  0.67000000  0.45040000  0.10090000  1
  C  C57  1  0.17000000  0.04960000  0.10090000  1
  C  C58  1  0.51220000  0.45240000  0.02140000  1
  C  C59  1  0.01220000  0.04760000  0.02140000  1
  N  N60  1  0.41470000  0.38110000  0.57960000  1
  N  N61  1  0.91470000  0.11890000  0.57960000  1
  N  N62  1  0.08530000  0.88110000  0.42040000  1
  N  N63  1  0.58530000  0.61890000  0.42040000  1
  O  O64  1  0.19050000  0.48800000  0.88720000  1
  O  O65  1  0.69050000  0.01200000  0.88720000  1
  O  O66  1  0.84350000  0.88160000  0.84840000  1
  O  O67  1  0.34350000  0.61840000  0.84840000  1
  O  O68  1  0.05190000  0.37580000  0.71830000  1
  O  O69  1  0.55190000  0.12420000  0.71830000  1
  O  O70  1  0.21140000  0.86270000  0.68070000  1
  O  O71  1  0.71140000  0.63730000  0.68070000  1
  O  O72  1  0.63250000  0.79640000  0.67980000  1
  O  O73  1  0.13250000  0.70360000  0.67980000  1
  O  O74  1  0.93830000  0.46990000  0.61090000  1
  O  O75  1  0.43830000  0.03010000  0.61090000  1
  O  O76  1  0.56170000  0.96990000  0.38910000  1
  O  O77  1  0.06170000  0.53010000  0.38910000  1
  O  O78  1  0.86750000  0.29640000  0.32020000  1
  O  O79  1  0.36750000  0.20360000  0.32020000  1
  O  O80  1  0.28860000  0.36270000  0.31930000  1
  O  O81  1  0.78860000  0.13730000  0.31930000  1
  O  O82  1  0.44810000  0.87580000  0.28170000  1
  O  O83  1  0.94810000  0.62420000  0.28170000  1
  O  O84  1  0.65650000  0.38160000  0.15160000  1
  O  O85  1  0.15650000  0.11840000  0.15160000  1
  O  O86  1  0.30950000  0.98800000  0.11280000  1
  O  O87  1  0.80950000  0.51200000  0.11280000  1
