# generated using pymatgen
data_CdH12C18(NO2)3
_symmetry_space_group_name_H-M   'P 1'
_cell_length_a   12.64100000
_cell_length_b   15.44600000
_cell_length_c   24.54200000
_cell_angle_alpha   90.00000000
_cell_angle_beta   90.00000000
_cell_angle_gamma   90.00000000
_symmetry_Int_Tables_number   1
_chemical_formula_structural   CdH12C18(NO2)3
_chemical_formula_sum   'Cd8 H96 C144 N24 O48'
_cell_volume   4791.89632821
_cell_formula_units_Z   8
loop_
 _symmetry_equiv_pos_site_id
 _symmetry_equiv_pos_as_xyz
  1  'x, y, z'
loop_
 _atom_site_type_symbol
 _atom_site_label
 _atom_site_symmetry_multiplicity
 _atom_site_fract_x
 _atom_site_fract_y
 _atom_site_fract_z
 _atom_site_occupancy
  Cd  Cd0  1  0.17365000  0.06751000  0.23548000  1
  Cd  Cd1  1  0.82635000  0.56751000  0.23548000  1
  Cd  Cd2  1  0.32635000  0.56751000  0.26452000  1
  Cd  Cd3  1  0.67365000  0.06751000  0.26452000  1
  Cd  Cd4  1  0.32635000  0.93249000  0.73548000  1
  Cd  Cd5  1  0.67365000  0.43249000  0.73548000  1
  Cd  Cd6  1  0.17365000  0.43249000  0.76452000  1
  Cd  Cd7  1  0.82635000  0.93249000  0.76452000  1
  H  H8  1  0.47160000  0.41040000  0.00210000  1
  H  H9  1  0.52840000  0.91040000  0.00210000  1
  H  H10  1  0.41480000  0.94470000  0.01620000  1
  H  H11  1  0.58520000  0.44470000  0.01620000  1
  H  H12  1  0.08540000  0.42680000  0.05420000  1
  H  H13  1  0.91460000  0.92680000  0.05420000  1
  H  H14  1  0.30010000  0.49890000  0.05710000  1
  H  H15  1  0.69990000  0.99890000  0.05710000  1
  H  H16  1  0.13090000  0.29090000  0.08710000  1
  H  H17  1  0.86910000  0.79090000  0.08710000  1
  H  H18  1  0.42520000  0.11130000  0.09420000  1
  H  H19  1  0.57480000  0.61130000  0.09420000  1
  H  H20  1  0.44240000  0.31070000  0.10260000  1
  H  H21  1  0.55760000  0.81070000  0.10260000  1
  H  H22  1  0.01720000  0.52830000  0.11280000  1
  H  H23  1  0.98280000  0.02830000  0.11280000  1
  H  H24  1  0.40100000  0.88770000  0.11780000  1
  H  H25  1  0.59900000  0.38770000  0.11780000  1
  H  H26  1  0.25880000  0.50090000  0.14820000  1
  H  H27  1  0.74120000  0.00090000  0.14820000  1
  H  H28  1  0.33560000  0.27560000  0.17420000  1
  H  H29  1  0.66440000  0.77560000  0.17420000  1
  H  H30  1  0.47660000  0.11160000  0.18280000  1
  H  H31  1  0.52340000  0.61160000  0.18280000  1
  H  H32  1  0.02340000  0.61160000  0.31720000  1
  H  H33  1  0.97660000  0.11160000  0.31720000  1
  H  H34  1  0.16440000  0.77560000  0.32580000  1
  H  H35  1  0.83560000  0.27560000  0.32580000  1
  H  H36  1  0.24120000  0.00090000  0.35180000  1
  H  H37  1  0.75880000  0.50090000  0.35180000  1
  H  H38  1  0.09900000  0.38770000  0.38220000  1
  H  H39  1  0.90100000  0.88770000  0.38220000  1
  H  H40  1  0.48280000  0.02830000  0.38720000  1
  H  H41  1  0.51720000  0.52830000  0.38720000  1
  H  H42  1  0.05760000  0.81070000  0.39740000  1
  H  H43  1  0.94240000  0.31070000  0.39740000  1
  H  H44  1  0.07480000  0.61130000  0.40580000  1
  H  H45  1  0.92520000  0.11130000  0.40580000  1
  H  H46  1  0.36910000  0.79090000  0.41290000  1
  H  H47  1  0.63090000  0.29090000  0.41290000  1
  H  H48  1  0.19990000  0.99890000  0.44290000  1
  H  H49  1  0.80010000  0.49890000  0.44290000  1
  H  H50  1  0.41460000  0.92680000  0.44580000  1
  H  H51  1  0.58540000  0.42680000  0.44580000  1
  H  H52  1  0.08520000  0.44470000  0.48380000  1
  H  H53  1  0.91480000  0.94470000  0.48380000  1
  H  H54  1  0.02840000  0.91040000  0.49790000  1
  H  H55  1  0.97160000  0.41040000  0.49790000  1
  H  H56  1  0.02840000  0.58960000  0.50210000  1
  H  H57  1  0.97160000  0.08960000  0.50210000  1
  H  H58  1  0.08520000  0.05530000  0.51620000  1
  H  H59  1  0.91480000  0.55530000  0.51620000  1
  H  H60  1  0.41460000  0.57320000  0.55420000  1
  H  H61  1  0.58540000  0.07320000  0.55420000  1
  H  H62  1  0.19990000  0.50110000  0.55710000  1
  H  H63  1  0.80010000  0.00110000  0.55710000  1
  H  H64  1  0.36910000  0.70910000  0.58710000  1
  H  H65  1  0.63090000  0.20910000  0.58710000  1
  H  H66  1  0.07480000  0.88870000  0.59420000  1
  H  H67  1  0.92520000  0.38870000  0.59420000  1
  H  H68  1  0.05760000  0.68930000  0.60260000  1
  H  H69  1  0.94240000  0.18930000  0.60260000  1
  H  H70  1  0.48280000  0.47170000  0.61280000  1
  H  H71  1  0.51720000  0.97170000  0.61280000  1
  H  H72  1  0.09900000  0.11230000  0.61780000  1
  H  H73  1  0.90100000  0.61230000  0.61780000  1
  H  H74  1  0.24120000  0.49910000  0.64820000  1
  H  H75  1  0.75880000  0.99910000  0.64820000  1
  H  H76  1  0.16440000  0.72440000  0.67420000  1
  H  H77  1  0.83560000  0.22440000  0.67420000  1
  H  H78  1  0.02340000  0.88840000  0.68280000  1
  H  H79  1  0.97660000  0.38840000  0.68280000  1
  H  H80  1  0.47660000  0.38840000  0.81720000  1
  H  H81  1  0.52340000  0.88840000  0.81720000  1
  H  H82  1  0.33560000  0.22440000  0.82580000  1
  H  H83  1  0.66440000  0.72440000  0.82580000  1
  H  H84  1  0.25880000  0.99910000  0.85180000  1
  H  H85  1  0.74120000  0.49910000  0.85180000  1
  H  H86  1  0.40100000  0.61230000  0.88220000  1
  H  H87  1  0.59900000  0.11230000  0.88220000  1
  H  H88  1  0.01720000  0.97170000  0.88720000  1
  H  H89  1  0.98280000  0.47170000  0.88720000  1
  H  H90  1  0.44240000  0.18930000  0.89740000  1
  H  H91  1  0.55760000  0.68930000  0.89740000  1
  H  H92  1  0.42520000  0.38870000  0.90580000  1
  H  H93  1  0.57480000  0.88870000  0.90580000  1
  H  H94  1  0.13090000  0.20910000  0.91290000  1
  H  H95  1  0.86910000  0.70910000  0.91290000  1
  H  H96  1  0.30010000  0.00110000  0.94290000  1
  H  H97  1  0.69990000  0.50110000  0.94290000  1
  H  H98  1  0.08540000  0.07320000  0.94580000  1
  H  H99  1  0.91460000  0.57320000  0.94580000  1
  H  H100  1  0.41480000  0.55530000  0.98380000  1
  H  H101  1  0.58520000  0.05530000  0.98380000  1
  H  H102  1  0.47160000  0.08960000  0.99790000  1
  H  H103  1  0.52840000  0.58960000  0.99790000  1
  C  C104  1  0.47650000  0.54540000  0.00640000  1
  C  C105  1  0.52350000  0.04540000  0.00640000  1
  C  C106  1  0.44590000  0.55210000  0.06510000  1
  C  C107  1  0.55410000  0.05210000  0.06510000  1
  C  C108  1  0.34790000  0.52140000  0.08210000  1
  C  C109  1  0.65210000  0.02140000  0.08210000  1
  C  C110  1  0.07570000  0.41350000  0.09080000  1
  C  C111  1  0.92430000  0.91350000  0.09080000  1
  C  C112  1  0.49030000  0.08780000  0.10380000  1
  C  C113  1  0.50970000  0.58780000  0.10380000  1
  C  C114  1  0.10220000  0.33190000  0.11060000  1
  C  C115  1  0.89780000  0.83190000  0.11060000  1
  C  C116  1  0.03540000  0.47370000  0.12560000  1
  C  C117  1  0.96460000  0.97370000  0.12560000  1
  C  C118  1  0.32280000  0.52470000  0.13700000  1
  C  C119  1  0.67720000  0.02470000  0.13700000  1
  C  C120  1  0.46240000  0.32510000  0.13790000  1
  C  C121  1  0.53760000  0.82510000  0.13790000  1
  C  C122  1  0.44260000  0.86990000  0.14710000  1
  C  C123  1  0.55740000  0.36990000  0.14710000  1
  C  C124  1  0.47710000  0.58880000  0.15700000  1
  C  C125  1  0.52290000  0.08880000  0.15700000  1
  C  C126  1  0.08680000  0.31110000  0.16410000  1
  C  C127  1  0.91320000  0.81110000  0.16410000  1
  C  C128  1  0.40000000  0.30290000  0.18040000  1
  C  C129  1  0.60000000  0.80290000  0.18040000  1
  C  C130  1  0.11800000  0.22250000  0.18520000  1
  C  C131  1  0.88200000  0.72250000  0.18520000  1
  C  C132  1  0.04560000  0.37370000  0.19850000  1
  C  C133  1  0.95440000  0.87370000  0.19850000  1
  C  C134  1  0.41160000  0.88720000  0.19940000  1
  C  C135  1  0.58840000  0.38720000  0.19940000  1
  C  C136  1  0.31280000  0.93960000  0.21200000  1
  C  C137  1  0.68720000  0.43960000  0.21200000  1
  C  C138  1  0.47580000  0.86080000  0.24230000  1
  C  C139  1  0.52420000  0.36080000  0.24230000  1
  C  C140  1  0.02420000  0.36080000  0.25770000  1
  C  C141  1  0.97580000  0.86080000  0.25770000  1
  C  C142  1  0.18720000  0.43960000  0.28800000  1
  C  C143  1  0.81280000  0.93960000  0.28800000  1
  C  C144  1  0.08840000  0.38720000  0.30060000  1
  C  C145  1  0.91160000  0.88720000  0.30060000  1
  C  C146  1  0.45440000  0.87370000  0.30150000  1
  C  C147  1  0.54560000  0.37370000  0.30150000  1
  C  C148  1  0.38200000  0.72250000  0.31480000  1
  C  C149  1  0.61800000  0.22250000  0.31480000  1
  C  C150  1  0.10000000  0.80290000  0.31960000  1
  C  C151  1  0.90000000  0.30290000  0.31960000  1
  C  C152  1  0.41320000  0.81110000  0.33590000  1
  C  C153  1  0.58680000  0.31110000  0.33590000  1
  C  C154  1  0.02290000  0.08880000  0.34300000  1
  C  C155  1  0.97710000  0.58880000  0.34300000  1
  C  C156  1  0.05740000  0.36990000  0.35290000  1
  C  C157  1  0.94260000  0.86990000  0.35290000  1
  C  C158  1  0.03760000  0.82510000  0.36210000  1
  C  C159  1  0.96240000  0.32510000  0.36210000  1
  C  C160  1  0.17720000  0.02470000  0.36300000  1
  C  C161  1  0.82280000  0.52470000  0.36300000  1
  C  C162  1  0.46460000  0.97370000  0.37440000  1
  C  C163  1  0.53540000  0.47370000  0.37440000  1
  C  C164  1  0.39780000  0.83190000  0.38940000  1
  C  C165  1  0.60220000  0.33190000  0.38940000  1
  C  C166  1  0.00970000  0.58780000  0.39620000  1
  C  C167  1  0.99030000  0.08780000  0.39620000  1
  C  C168  1  0.42430000  0.91350000  0.40920000  1
  C  C169  1  0.57570000  0.41350000  0.40920000  1
  C  C170  1  0.15210000  0.02140000  0.41790000  1
  C  C171  1  0.84790000  0.52140000  0.41790000  1
  C  C172  1  0.05410000  0.05210000  0.43490000  1
  C  C173  1  0.94590000  0.55210000  0.43490000  1
  C  C174  1  0.02350000  0.04540000  0.49360000  1
  C  C175  1  0.97650000  0.54540000  0.49360000  1
  C  C176  1  0.02350000  0.45460000  0.50640000  1
  C  C177  1  0.97650000  0.95460000  0.50640000  1
  C  C178  1  0.05410000  0.44790000  0.56510000  1
  C  C179  1  0.94590000  0.94790000  0.56510000  1
  C  C180  1  0.15210000  0.47860000  0.58210000  1
  C  C181  1  0.84790000  0.97860000  0.58210000  1
  C  C182  1  0.42430000  0.58650000  0.59080000  1
  C  C183  1  0.57570000  0.08650000  0.59080000  1
  C  C184  1  0.00970000  0.91220000  0.60380000  1
  C  C185  1  0.99030000  0.41220000  0.60380000  1
  C  C186  1  0.39780000  0.66810000  0.61060000  1
  C  C187  1  0.60220000  0.16810000  0.61060000  1
  C  C188  1  0.46460000  0.52630000  0.62560000  1
  C  C189  1  0.53540000  0.02630000  0.62560000  1
  C  C190  1  0.17720000  0.47530000  0.63700000  1
  C  C191  1  0.82280000  0.97530000  0.63700000  1
  C  C192  1  0.03760000  0.67490000  0.63790000  1
  C  C193  1  0.96240000  0.17490000  0.63790000  1
  C  C194  1  0.05740000  0.13010000  0.64710000  1
  C  C195  1  0.94260000  0.63010000  0.64710000  1
  C  C196  1  0.02290000  0.41120000  0.65700000  1
  C  C197  1  0.97710000  0.91120000  0.65700000  1
  C  C198  1  0.41320000  0.68890000  0.66410000  1
  C  C199  1  0.58680000  0.18890000  0.66410000  1
  C  C200  1  0.10000000  0.69710000  0.68040000  1
  C  C201  1  0.90000000  0.19710000  0.68040000  1
  C  C202  1  0.38200000  0.77750000  0.68520000  1
  C  C203  1  0.61800000  0.27750000  0.68520000  1
  C  C204  1  0.45440000  0.62630000  0.69850000  1
  C  C205  1  0.54560000  0.12630000  0.69850000  1
  C  C206  1  0.08840000  0.11280000  0.69940000  1
  C  C207  1  0.91160000  0.61280000  0.69940000  1
  C  C208  1  0.18720000  0.06040000  0.71200000  1
  C  C209  1  0.81280000  0.56040000  0.71200000  1
  C  C210  1  0.02420000  0.13920000  0.74230000  1
  C  C211  1  0.97580000  0.63920000  0.74230000  1
  C  C212  1  0.47580000  0.63920000  0.75770000  1
  C  C213  1  0.52420000  0.13920000  0.75770000  1
  C  C214  1  0.31280000  0.56040000  0.78800000  1
  C  C215  1  0.68720000  0.06040000  0.78800000  1
  C  C216  1  0.41160000  0.61280000  0.80060000  1
  C  C217  1  0.58840000  0.11280000  0.80060000  1
  C  C218  1  0.04560000  0.12630000  0.80150000  1
  C  C219  1  0.95440000  0.62630000  0.80150000  1
  C  C220  1  0.11800000  0.27750000  0.81480000  1
  C  C221  1  0.88200000  0.77750000  0.81480000  1
  C  C222  1  0.40000000  0.19710000  0.81960000  1
  C  C223  1  0.60000000  0.69710000  0.81960000  1
  C  C224  1  0.08680000  0.18890000  0.83590000  1
  C  C225  1  0.91320000  0.68890000  0.83590000  1
  C  C226  1  0.47710000  0.91120000  0.84300000  1
  C  C227  1  0.52290000  0.41120000  0.84300000  1
  C  C228  1  0.44260000  0.63010000  0.85290000  1
  C  C229  1  0.55740000  0.13010000  0.85290000  1
  C  C230  1  0.46240000  0.17490000  0.86210000  1
  C  C231  1  0.53760000  0.67490000  0.86210000  1
  C  C232  1  0.32280000  0.97530000  0.86300000  1
  C  C233  1  0.67720000  0.47530000  0.86300000  1
  C  C234  1  0.03540000  0.02630000  0.87440000  1
  C  C235  1  0.96460000  0.52630000  0.87440000  1
  C  C236  1  0.10220000  0.16810000  0.88940000  1
  C  C237  1  0.89780000  0.66810000  0.88940000  1
  C  C238  1  0.49030000  0.41220000  0.89620000  1
  C  C239  1  0.50970000  0.91220000  0.89620000  1
  C  C240  1  0.07570000  0.08650000  0.90920000  1
  C  C241  1  0.92430000  0.58650000  0.90920000  1
  C  C242  1  0.34790000  0.97860000  0.91790000  1
  C  C243  1  0.65210000  0.47860000  0.91790000  1
  C  C244  1  0.44590000  0.94790000  0.93490000  1
  C  C245  1  0.55410000  0.44790000  0.93490000  1
  C  C246  1  0.47650000  0.95460000  0.99360000  1
  C  C247  1  0.52350000  0.45460000  0.99360000  1
  N  N248  1  0.38490000  0.55990000  0.17460000  1
  N  N249  1  0.61510000  0.05990000  0.17460000  1
  N  N250  1  0.02220000  0.45430000  0.17800000  1
  N  N251  1  0.97780000  0.95430000  0.17800000  1
  N  N252  1  0.43100000  0.32020000  0.23210000  1
  N  N253  1  0.56900000  0.82020000  0.23210000  1
  N  N254  1  0.06900000  0.82020000  0.26790000  1
  N  N255  1  0.93100000  0.32020000  0.26790000  1
  N  N256  1  0.47780000  0.95430000  0.32200000  1
  N  N257  1  0.52220000  0.45430000  0.32200000  1
  N  N258  1  0.11510000  0.05990000  0.32540000  1
  N  N259  1  0.88490000  0.55990000  0.32540000  1
  N  N260  1  0.11510000  0.44010000  0.67460000  1
  N  N261  1  0.88490000  0.94010000  0.67460000  1
  N  N262  1  0.47780000  0.54570000  0.67800000  1
  N  N263  1  0.52220000  0.04570000  0.67800000  1
  N  N264  1  0.06900000  0.67980000  0.73210000  1
  N  N265  1  0.93100000  0.17980000  0.73210000  1
  N  N266  1  0.43100000  0.17980000  0.76790000  1
  N  N267  1  0.56900000  0.67980000  0.76790000  1
  N  N268  1  0.02220000  0.04570000  0.82200000  1
  N  N269  1  0.97780000  0.54570000  0.82200000  1
  N  N270  1  0.38490000  0.94010000  0.82540000  1
  N  N271  1  0.61510000  0.44010000  0.82540000  1
  O  O272  1  0.16870000  0.17350000  0.15580000  1
  O  O273  1  0.83130000  0.67350000  0.15580000  1
  O  O274  1  0.26930000  0.97950000  0.17269000  1
  O  O275  1  0.73070000  0.47950000  0.17269000  1
  O  O276  1  0.00730000  0.01570000  0.21210000  1
  O  O277  1  0.99270000  0.51570000  0.21210000  1
  O  O278  1  0.12910000  0.79630000  0.22660000  1
  O  O279  1  0.87090000  0.29630000  0.22660000  1
  O  O280  1  0.09210000  0.20360000  0.23300000  1
  O  O281  1  0.90790000  0.70360000  0.23300000  1
  O  O282  1  0.21850000  0.44490000  0.23989000  1
  O  O283  1  0.78150000  0.94490000  0.23989000  1
  O  O284  1  0.28150000  0.94490000  0.26011000  1
  O  O285  1  0.71850000  0.44490000  0.26011000  1
  O  O286  1  0.40790000  0.70360000  0.26700000  1
  O  O287  1  0.59210000  0.20360000  0.26700000  1
  O  O288  1  0.37090000  0.29630000  0.27340000  1
  O  O289  1  0.62910000  0.79630000  0.27340000  1
  O  O290  1  0.49270000  0.51570000  0.28790000  1
  O  O291  1  0.50730000  0.01570000  0.28790000  1
  O  O292  1  0.23070000  0.47950000  0.32731000  1
  O  O293  1  0.76930000  0.97950000  0.32731000  1
  O  O294  1  0.33130000  0.67350000  0.34420000  1
  O  O295  1  0.66870000  0.17350000  0.34420000  1
  O  O296  1  0.33130000  0.82650000  0.65580000  1
  O  O297  1  0.66870000  0.32650000  0.65580000  1
  O  O298  1  0.23070000  0.02050000  0.67269000  1
  O  O299  1  0.76930000  0.52050000  0.67269000  1
  O  O300  1  0.49270000  0.98430000  0.71210000  1
  O  O301  1  0.50730000  0.48430000  0.71210000  1
  O  O302  1  0.37090000  0.20370000  0.72660000  1
  O  O303  1  0.62910000  0.70370000  0.72660000  1
  O  O304  1  0.40790000  0.79640000  0.73300000  1
  O  O305  1  0.59210000  0.29640000  0.73300000  1
  O  O306  1  0.28150000  0.55510000  0.73989000  1
  O  O307  1  0.71850000  0.05510000  0.73989000  1
  O  O308  1  0.21850000  0.05510000  0.76011000  1
  O  O309  1  0.78150000  0.55510000  0.76011000  1
  O  O310  1  0.09210000  0.29640000  0.76700000  1
  O  O311  1  0.90790000  0.79640000  0.76700000  1
  O  O312  1  0.12910000  0.70370000  0.77340000  1
  O  O313  1  0.87090000  0.20370000  0.77340000  1
  O  O314  1  0.00730000  0.48430000  0.78790000  1
  O  O315  1  0.99270000  0.98430000  0.78790000  1
  O  O316  1  0.26930000  0.52050000  0.82731000  1
  O  O317  1  0.73070000  0.02050000  0.82731000  1
  O  O318  1  0.16870000  0.32650000  0.84420000  1
  O  O319  1  0.83130000  0.82650000  0.84420000  1
