# generated using pymatgen
data_CuH5C15NO6
_symmetry_space_group_name_H-M   'P 1'
_cell_length_a   10.30360000
_cell_length_b   15.22480000
_cell_length_c   20.40691225
_cell_angle_alpha   111.90268554
_cell_angle_beta   104.62279103
_cell_angle_gamma   90.00000000
_symmetry_Int_Tables_number   1
_chemical_formula_structural   CuH5C15NO6
_chemical_formula_sum   'Cu4 H20 C60 N4 O24'
_cell_volume   2858.10540573
_cell_formula_units_Z   4
loop_
 _symmetry_equiv_pos_site_id
 _symmetry_equiv_pos_as_xyz
  1  'x, y, z'
loop_
 _atom_site_type_symbol
 _atom_site_label
 _atom_site_symmetry_multiplicity
 _atom_site_fract_x
 _atom_site_fract_y
 _atom_site_fract_z
 _atom_site_occupancy
  Cu  Cu0  1  0.06801000  0.97473000  0.94946000  1
  Cu  Cu1  1  0.38145000  0.47473000  0.94946000  1
  Cu  Cu2  1  0.61855000  0.52527000  0.05054000  1
  Cu  Cu3  1  0.93199000  0.02527000  0.05054000  1
  H  H4  1  0.23330000  0.96090000  0.21760000  1
  H  H5  1  0.23330000  0.25670000  0.21760000  1
  H  H6  1  0.24110000  0.82260000  0.43540000  1
  H  H7  1  0.24110000  0.61280000  0.43540000  1
  H  H8  1  0.26250000  0.76250000  0.02500000  1
  H  H9  1  0.26250000  0.26250000  0.02500000  1
  H  H10  1  0.30570000  0.88720000  0.56460000  1
  H  H11  1  0.30570000  0.67740000  0.56460000  1
  H  H12  1  0.48430000  0.75670000  0.21760000  1
  H  H13  1  0.48430000  0.46090000  0.21760000  1
  H  H14  1  0.51570000  0.53910000  0.78240000  1
  H  H15  1  0.51570000  0.24330000  0.78240000  1
  H  H16  1  0.69430000  0.32260000  0.43540000  1
  H  H17  1  0.69430000  0.11280000  0.43540000  1
  H  H18  1  0.73750000  0.73750000  0.97500000  1
  H  H19  1  0.73750000  0.23750000  0.97500000  1
  H  H20  1  0.75890000  0.38720000  0.56460000  1
  H  H21  1  0.75890000  0.17740000  0.56460000  1
  H  H22  1  0.76670000  0.74330000  0.78240000  1
  H  H23  1  0.76670000  0.03910000  0.78240000  1
  C  C24  1  0.14540000  0.91965000  0.07380000  1
  C  C25  1  0.14540000  0.15415000  0.07380000  1
  C  C26  1  0.23752000  0.86993000  0.11464000  1
  C  C27  1  0.23752000  0.24471000  0.11464000  1
  C  C28  1  0.27228000  0.90703000  0.19136000  1
  C  C29  1  0.27228000  0.28433000  0.19136000  1
  C  C30  1  0.28857000  0.78857000  0.07714000  1
  C  C31  1  0.28857000  0.28857000  0.07714000  1
  C  C32  1  0.31180000  0.87310000  0.46140000  1
  C  C33  1  0.31180000  0.58830000  0.46140000  1
  C  C34  1  0.33192000  0.86662000  0.34204000  1
  C  C35  1  0.33192000  0.47542000  0.34204000  1
  C  C36  1  0.35040000  0.91170000  0.53860000  1
  C  C37  1  0.35040000  0.62690000  0.53860000  1
  C  C38  1  0.36400000  0.86400000  0.22800000  1
  C  C39  1  0.36400000  0.36400000  0.22800000  1
  C  C40  1  0.37471000  0.90731000  0.42382000  1
  C  C41  1  0.37471000  0.51651000  0.42382000  1
  C  C42  1  0.37712000  0.74471000  0.11464000  1
  C  C43  1  0.37712000  0.36993000  0.11464000  1
  C  C44  1  0.41908000  0.78433000  0.19136000  1
  C  C45  1  0.41908000  0.40703000  0.19136000  1
  C  C46  1  0.42840000  0.65415000  0.07380000  1
  C  C47  1  0.42840000  0.41965000  0.07380000  1
  C  C48  1  0.45089000  0.98349000  0.57618000  1
  C  C49  1  0.45089000  0.59269000  0.57618000  1
  C  C50  1  0.48059000  0.98059000  0.46118000  1
  C  C51  1  0.48059000  0.48059000  0.46118000  1
  C  C52  1  0.48988000  0.63338000  0.65796000  1
  C  C53  1  0.48988000  0.02458000  0.65796000  1
  C  C54  1  0.51012000  0.97542000  0.34204000  1
  C  C55  1  0.51012000  0.36662000  0.34204000  1
  C  C56  1  0.51941000  0.51941000  0.53882000  1
  C  C57  1  0.51941000  0.01941000  0.53882000  1
  C  C58  1  0.54911000  0.40731000  0.42382000  1
  C  C59  1  0.54911000  0.01651000  0.42382000  1
  C  C60  1  0.57160000  0.58035000  0.92620000  1
  C  C61  1  0.57160000  0.34585000  0.92620000  1
  C  C62  1  0.58092000  0.59297000  0.80864000  1
  C  C63  1  0.58092000  0.21567000  0.80864000  1
  C  C64  1  0.62288000  0.63007000  0.88536000  1
  C  C65  1  0.62288000  0.25529000  0.88536000  1
  C  C66  1  0.62529000  0.48349000  0.57618000  1
  C  C67  1  0.62529000  0.09269000  0.57618000  1
  C  C68  1  0.63600000  0.63600000  0.77200000  1
  C  C69  1  0.63600000  0.13600000  0.77200000  1
  C  C70  1  0.64960000  0.37310000  0.46140000  1
  C  C71  1  0.64960000  0.08830000  0.46140000  1
  C  C72  1  0.66808000  0.52458000  0.65796000  1
  C  C73  1  0.66808000  0.13338000  0.65796000  1
  C  C74  1  0.68820000  0.41170000  0.53860000  1
  C  C75  1  0.68820000  0.12690000  0.53860000  1
  C  C76  1  0.71143000  0.71143000  0.92286000  1
  C  C77  1  0.71143000  0.21143000  0.92286000  1
  C  C78  1  0.72772000  0.71567000  0.80864000  1
  C  C79  1  0.72772000  0.09297000  0.80864000  1
  C  C80  1  0.76248000  0.75529000  0.88536000  1
  C  C81  1  0.76248000  0.13007000  0.88536000  1
  C  C82  1  0.85460000  0.84585000  0.92620000  1
  C  C83  1  0.85460000  0.08035000  0.92620000  1
  N  N84  1  0.40390000  0.90390000  0.30780000  1
  N  N85  1  0.40390000  0.40390000  0.30780000  1
  N  N86  1  0.59610000  0.59610000  0.69220000  1
  N  N87  1  0.59610000  0.09610000  0.69220000  1
  O  O88  1  0.05785000  0.96238000  0.10250000  1
  O  O89  1  0.05785000  0.14012000  0.10250000  1
  O  O90  1  0.16701000  0.91513000  0.01480000  1
  O  O91  1  0.16701000  0.09967000  0.01480000  1
  O  O92  1  0.24221000  0.80381000  0.30642000  1
  O  O93  1  0.24221000  0.50261000  0.30642000  1
  O  O94  1  0.34779000  0.59967000  0.01480000  1
  O  O95  1  0.34779000  0.41513000  0.01480000  1
  O  O96  1  0.43579000  0.99739000  0.69358000  1
  O  O97  1  0.43579000  0.69619000  0.69358000  1
  O  O98  1  0.45535000  0.53762000  0.89750000  1
  O  O99  1  0.45535000  0.35988000  0.89750000  1
  O  O100  1  0.54465000  0.64012000  0.10250000  1
  O  O101  1  0.54465000  0.46238000  0.10250000  1
  O  O102  1  0.56421000  0.30381000  0.30642000  1
  O  O103  1  0.56421000  0.00261000  0.30642000  1
  O  O104  1  0.65221000  0.58487000  0.98520000  1
  O  O105  1  0.65221000  0.40033000  0.98520000  1
  O  O106  1  0.75779000  0.49739000  0.69358000  1
  O  O107  1  0.75779000  0.19619000  0.69358000  1
  O  O108  1  0.83299000  0.90033000  0.98520000  1
  O  O109  1  0.83299000  0.08487000  0.98520000  1
  O  O110  1  0.94215000  0.85988000  0.89750000  1
  O  O111  1  0.94215000  0.03762000  0.89750000  1
