# generated using pymatgen
data_Zn2H53C62(NO6)2
_symmetry_space_group_name_H-M   'P 1'
_cell_length_a   23.90133223
_cell_length_b   23.90133223
_cell_length_c   23.98641823
_cell_angle_alpha   108.00759140
_cell_angle_beta   110.72686976
_cell_angle_gamma   109.54718830
_symmetry_Int_Tables_number   1
_chemical_formula_structural   Zn2H53C62(NO6)2
_chemical_formula_sum   'Zn8 H212 C248 N8 O48'
_cell_volume   10561.09404122
_cell_formula_units_Z   4
loop_
 _symmetry_equiv_pos_site_id
 _symmetry_equiv_pos_as_xyz
  1  'x, y, z'
loop_
 _atom_site_type_symbol
 _atom_site_label
 _atom_site_symmetry_multiplicity
 _atom_site_fract_x
 _atom_site_fract_y
 _atom_site_fract_z
 _atom_site_occupancy
  C  C0  1  0.84620000  0.98450000  0.91190000  1
  C  C1  1  0.42740000  0.06570000  0.41190000  1
  C  C2  1  0.89791000  0.76729000  0.22780000  1
  C  C3  1  0.96051000  0.32989000  0.72780000  1
  C  C4  1  0.41520000  0.98400000  0.52960000  1
  C  C5  1  0.04560000  0.11440000  0.02960000  1
  C  C6  1  0.87500000  0.81420000  0.15980000  1
  C  C7  1  0.84560000  0.28480000  0.65980000  1
  C  C8  1  0.34290000  0.94600000  0.49910000  1
  C  C9  1  0.05310000  0.15620000  0.99910000  1
  C  C10  1  0.04237000  0.92637000  0.21900000  1
  C  C11  1  0.79263000  0.17663000  0.71900000  1
  C  C12  1  0.56980000  0.04380000  0.62960000  1
  C  C13  1  0.08580000  0.05980000  0.12960000  1
  C  C14  1  0.05067000  0.89745000  0.26020000  1
  C  C15  1  0.86275000  0.20953000  0.76020000  1
  C  C16  1  0.08460000  0.02520000  0.16840000  1
  C  C17  1  0.64320000  0.08380000  0.66840000  1
  C  C18  1  0.81920000  0.97530000  0.95650000  1
  C  C19  1  0.48120000  0.13730000  0.45650000  1
  C  C20  1  0.75240000  0.88450000  0.98150000  1
  C  C21  1  0.59700000  0.22910000  0.48150000  1
  C  C22  1  0.33160000  0.69140000  0.76080000  1
  C  C23  1  0.56940000  0.42920000  0.26080000  1
  C  C24  1  0.81830000  0.93870000  0.00360000  1
  C  C25  1  0.56490000  0.18530000  0.50360000  1
  C  C26  1  0.86043000  0.66685000  0.32350000  1
  C  C27  1  0.15665000  0.46307000  0.82350000  1
  C  C28  1  0.14890000  0.71750000  0.56340000  1
  C  C29  1  0.34590000  0.41450000  0.06340000  1
  C  C30  1  0.78910000  0.63020000  0.29150000  1
  C  C31  1  0.16130000  0.50240000  0.79150000  1
  C  C32  1  0.15440000  0.68450000  0.60370000  1
  C  C33  1  0.41920000  0.44930000  0.10370000  1
  C  C34  1  0.20600000  0.65050000  0.72170000  1
  C  C35  1  0.57120000  0.51570000  0.22170000  1
  C  C36  1  0.20370000  0.61740000  0.75750000  1
  C  C37  1  0.64010000  0.55380000  0.25750000  1
  C  C38  1  0.53190000  0.08140000  0.63090000  1
  C  C39  1  0.04950000  0.09900000  0.13090000  1
  C  C40  1  0.04280000  0.02550000  0.19930000  1
  C  C41  1  0.67380000  0.15650000  0.69930000  1
  C  C42  1  0.45270000  0.04280000  0.59210000  1
  C  C43  1  0.04930000  0.13940000  0.09210000  1
  C  C44  1  0.30887000  0.96407000  0.52970000  1
  C  C45  1  0.06563000  0.22083000  0.02970000  1
  C  C46  1  0.05000000  0.99210000  0.24290000  1
  C  C47  1  0.75080000  0.19290000  0.74290000  1
  C  C48  1  0.23161000  0.92163000  0.49640000  1
  C  C49  1  0.07477000  0.26479000  0.99640000  1
  C  C50  1  0.06337000  0.93055000  0.32630000  1
  C  C51  1  0.89575000  0.26293000  0.82630000  1
  C  C52  1  0.89697000  0.81383000  0.27740000  1
  C  C53  1  0.96357000  0.38043000  0.77740000  1
  C  C54  1  0.87408000  0.86312000  0.20740000  1
  C  C55  1  0.84428000  0.33332000  0.70740000  1
  C  C56  1  0.07486000  0.90006000  0.37220000  1
  C  C57  1  0.97214000  0.29734000  0.87220000  1
  C  C58  1  0.97355000  0.77553000  0.40660000  1
  C  C59  1  0.13107000  0.43305000  0.90660000  1
  C  C60  1  0.13100000  0.80480000  0.53750000  1
  C  C61  1  0.23270000  0.40650000  0.03750000  1
  C  C62  1  0.14316000  0.77296000  0.58210000  1
  C  C63  1  0.30914000  0.43894000  0.08210000  1
  C  C64  1  0.89661000  0.73199000  0.37660000  1
  C  C65  1  0.14461000  0.47999000  0.87660000  1
  C  C66  1  0.15580000  0.67010000  0.70110000  1
  C  C67  1  0.53100000  0.54530000  0.20110000  1
  C  C68  1  0.00010000  0.07640000  0.13970000  1
  C  C69  1  0.75365000  0.65705000  0.31260000  1
  C  C70  1  0.15555000  0.55895000  0.81260000  1
  C  C71  1  0.56330000  0.13960000  0.63970000  1
  C  C72  1  0.15430000  0.70830000  0.66240000  1
  C  C73  1  0.45410000  0.50810000  0.16240000  1
  C  C74  1  0.67590000  0.62020000  0.27770000  1
  C  C75  1  0.15750000  0.60180000  0.77770000  1
  C  C76  1  0.00080000  0.04310000  0.18230000  1
  C  C77  1  0.63920000  0.18150000  0.68230000  1
  C  C78  1  0.88574000  0.86392000  0.26760000  1
  C  C79  1  0.90368000  0.38186000  0.76760000  1
  C  C80  1  0.41890000  0.05960000  0.62350000  1
  C  C81  1  0.06390000  0.20460000  0.12350000  1
  C  C82  1  0.34710000  0.02120000  0.59090000  1
  C  C83  1  0.06970000  0.24380000  0.09090000  1
  C  C84  1  0.10780000  0.65490000  0.71990000  1
  C  C85  1  0.56500000  0.61210000  0.21990000  1
  C  C86  1  0.05960000  0.02310000  0.30830000  1
  C  C87  1  0.78520000  0.24870000  0.80830000  1
  C  C88  1  0.63760000  0.65240000  0.25840000  1
  C  C89  1  0.10600000  0.62080000  0.75840000  1
  C  C90  1  0.06790000  0.99340000  0.34990000  1
  C  C91  1  0.85650000  0.28200000  0.84990000  1
  C  C92  1  0.86153000  0.75863000  0.39870000  1
  C  C93  1  0.14007000  0.53717000  0.89870000  1
  C  C94  1  0.14970000  0.76500000  0.68110000  1
  C  C95  1  0.41610000  0.53140000  0.18110000  1
  C  C96  1  0.78940000  0.72120000  0.36540000  1
  C  C97  1  0.14420000  0.57600000  0.86540000  1
  C  C98  1  0.14200000  0.79670000  0.64270000  1
  C  C99  1  0.34600000  0.50070000  0.14270000  1
  C  C100  1  0.88785000  0.91819000  0.32190000  1
  C  C101  1  0.90371000  0.43405000  0.82190000  1
  C  C102  1  0.92140000  0.08530000  0.21170000  1
  C  C103  1  0.62640000  0.29030000  0.71170000  1
  C  C104  1  0.62910000  0.75160000  0.25950000  1
  C  C105  1  0.00790000  0.63040000  0.75950000  1
  C  C106  1  0.91110000  0.92860000  0.38430000  1
  C  C107  1  0.95570000  0.47320000  0.88430000  1
  C  C108  1  0.86770000  0.95710000  0.31380000  1
  C  C109  1  0.85670000  0.44610000  0.81380000  1
  C  C110  1  0.88720000  0.06500000  0.24880000  1
  C  C111  1  0.68380000  0.36160000  0.74880000  1
  C  C112  1  0.75510000  0.03260000  0.18210000  1
  C  C113  1  0.64950000  0.42700000  0.68210000  1
  C  C114  1  0.62130000  0.77430000  0.31040000  1
  C  C115  1  0.03610000  0.68910000  0.81040000  1
  C  C116  1  0.69230000  0.98070000  0.17860000  1
  C  C117  1  0.69790000  0.48630000  0.67860000  1
  C  C118  1  0.82650000  0.05700000  0.24130000  1
  C  C119  1  0.68430000  0.41480000  0.74130000  1
  C  C120  1  0.12880000  0.99140000  0.63400000  1
  C  C121  1  0.14260000  0.50520000  0.13400000  1
  C  C122  1  0.91210000  0.97990000  0.43160000  1
  C  C123  1  0.95170000  0.51950000  0.93160000  1
  C  C124  1  0.08790000  0.02010000  0.56840000  1
  C  C125  1  0.04830000  0.48050000  0.06840000  1
  C  C126  1  0.87120000  0.00860000  0.36600000  1
  C  C127  1  0.85740000  0.49480000  0.86600000  1
  C  C128  1  0.17350000  0.94300000  0.75870000  1
  C  C129  1  0.31570000  0.58520000  0.25870000  1
  C  C130  1  0.30770000  0.01930000  0.82140000  1
  C  C131  1  0.30210000  0.51370000  0.32140000  1
  C  C132  1  0.37870000  0.22570000  0.68960000  1
  C  C133  1  0.96390000  0.31090000  0.18960000  1
  C  C134  1  0.24490000  0.96740000  0.81790000  1
  C  C135  1  0.35050000  0.57300000  0.31790000  1
  C  C136  1  0.11280000  0.93500000  0.75120000  1
  C  C137  1  0.31620000  0.63840000  0.25120000  1
  C  C138  1  0.13230000  0.04290000  0.68620000  1
  C  C139  1  0.14330000  0.55390000  0.18620000  1
  C  C140  1  0.08890000  0.07140000  0.61570000  1
  C  C141  1  0.04430000  0.52680000  0.11570000  1
  C  C142  1  0.37090000  0.24840000  0.74050000  1
  C  C143  1  0.99210000  0.36960000  0.24050000  1
  C  C144  1  0.07860000  0.91470000  0.78830000  1
  C  C145  1  0.37360000  0.70970000  0.28830000  1
  C  C146  1  0.11215000  0.08181000  0.67810000  1
  C  C147  1  0.09629000  0.56595000  0.17810000  1
  C  C148  1  0.85800000  0.20330000  0.35730000  1
  C  C149  1  0.65400000  0.49930000  0.85730000  1
  C  C150  1  0.21060000  0.27880000  0.63460000  1
  C  C151  1  0.85580000  0.42400000  0.13460000  1
  C  C152  1  0.85030000  0.23500000  0.31890000  1
  C  C153  1  0.58390000  0.46860000  0.81890000  1
  C  C154  1  0.13847000  0.24137000  0.60130000  1
  C  C155  1  0.85993000  0.46283000  0.10130000  1
  C  C156  1  0.93210000  0.00660000  0.65010000  1
  C  C157  1  0.14350000  0.71800000  0.15010000  1
  C  C158  1  0.36240000  0.34760000  0.74160000  1
  C  C159  1  0.89400000  0.37920000  0.24160000  1
  C  C160  1  0.94040000  0.97690000  0.69170000  1
  C  C161  1  0.21480000  0.75130000  0.19170000  1
  C  C162  1  0.89220000  0.34510000  0.28010000  1
  C  C163  1  0.43500000  0.38790000  0.78010000  1
  C  C164  1  0.65290000  0.97880000  0.40910000  1
  C  C165  1  0.93030000  0.75620000  0.90910000  1
  C  C166  1  0.58110000  0.94040000  0.37650000  1
  C  C167  1  0.93610000  0.79540000  0.87650000  1
  C  C168  1  0.11426000  0.13608000  0.73240000  1
  C  C169  1  0.09632000  0.61814000  0.23240000  1
  C  C170  1  0.99920000  0.95690000  0.81770000  1
  C  C171  1  0.36080000  0.81850000  0.31770000  1
  C  C172  1  0.32410000  0.37980000  0.72230000  1
  C  C173  1  0.84250000  0.39820000  0.22230000  1
  C  C174  1  0.84570000  0.29170000  0.33760000  1
  C  C175  1  0.54590000  0.49190000  0.83760000  1
  C  C176  1  0.24635000  0.34295000  0.68740000  1
  C  C177  1  0.99990000  0.92360000  0.86030000  1
  C  C178  1  0.43670000  0.86040000  0.36030000  1
  C  C179  1  0.84445000  0.44105000  0.18740000  1
  C  C180  1  0.84420000  0.32990000  0.29890000  1
  C  C181  1  0.46900000  0.45470000  0.79890000  1
  C  C182  1  0.10339000  0.26801000  0.62340000  1
  C  C183  1  0.85539000  0.52001000  0.12340000  1
  C  C184  1  0.85684000  0.22704000  0.41790000  1
  C  C185  1  0.69086000  0.56106000  0.91790000  1
  C  C186  1  0.86900000  0.19520000  0.46250000  1
  C  C187  1  0.76730000  0.59350000  0.96250000  1
  C  C188  1  0.02645000  0.22447000  0.59340000  1
  C  C189  1  0.86893000  0.56695000  0.09340000  1
  C  C190  1  0.92514000  0.09994000  0.62780000  1
  C  C191  1  0.02786000  0.70266000  0.12780000  1
  C  C192  1  0.12592000  0.13688000  0.79260000  1
  C  C193  1  0.15572000  0.66668000  0.29260000  1
  C  C194  1  0.10303000  0.18617000  0.72260000  1
  C  C195  1  0.03643000  0.61957000  0.22260000  1
  C  C196  1  0.93663000  0.06945000  0.67370000  1
  C  C197  1  0.10425000  0.73707000  0.17370000  1
  C  C198  1  0.76839000  0.07837000  0.50360000  1
  C  C199  1  0.92523000  0.73521000  0.00360000  1
  C  C200  1  0.95000000  0.00790000  0.75710000  1
  C  C201  1  0.24920000  0.80710000  0.25710000  1
  C  C202  1  0.69113000  0.03593000  0.47030000  1
  C  C203  1  0.93437000  0.77917000  0.97030000  1
  C  C204  1  0.54730000  0.95720000  0.40790000  1
  C  C205  1  0.95070000  0.86060000  0.90790000  1
  C  C206  1  0.95720000  0.97450000  0.80070000  1
  C  C207  1  0.32620000  0.84350000  0.30070000  1
  C  C208  1  0.46810000  0.91860000  0.36910000  1
  C  C209  1  0.95050000  0.90100000  0.86910000  1
  C  C210  1  0.79630000  0.38260000  0.24250000  1
  C  C211  1  0.35990000  0.44620000  0.74250000  1
  C  C212  1  0.79400000  0.34950000  0.27830000  1
  C  C213  1  0.42880000  0.48430000  0.77830000  1
  C  C214  1  0.84560000  0.31550000  0.39630000  1
  C  C215  1  0.58080000  0.55070000  0.89630000  1
  C  C216  1  0.21090000  0.36980000  0.70850000  1
  C  C217  1  0.83870000  0.49760000  0.20850000  1
  C  C218  1  0.85110000  0.28250000  0.43660000  1
  C  C219  1  0.65410000  0.58550000  0.93660000  1
  C  C220  1  0.13957000  0.33315000  0.67650000  1
  C  C221  1  0.84335000  0.53693000  0.17650000  1
  C  C222  1  0.18170000  0.06130000  0.99640000  1
  C  C223  1  0.43510000  0.81470000  0.49640000  1
  C  C224  1  0.66840000  0.30860000  0.23920000  1
  C  C225  1  0.43060000  0.57080000  0.73920000  1
  C  C226  1  0.24760000  0.11550000  0.01850000  1
  C  C227  1  0.40300000  0.77090000  0.51850000  1
  C  C228  1  0.18080000  0.02470000  0.04350000  1
  C  C229  1  0.51880000  0.86270000  0.54350000  1
  C  C230  1  0.91540000  0.97480000  0.83160000  1
  C  C231  1  0.35680000  0.91620000  0.33160000  1
  C  C232  1  0.94933000  0.10255000  0.73980000  1
  C  C233  1  0.13725000  0.79047000  0.23980000  1
  C  C234  1  0.43020000  0.95620000  0.37040000  1
  C  C235  1  0.91420000  0.94020000  0.87040000  1
  C  C236  1  0.95763000  0.07363000  0.78100000  1
  C  C237  1  0.20737000  0.82337000  0.28100000  1
  C  C238  1  0.65710000  0.05400000  0.50090000  1
  C  C239  1  0.94690000  0.84380000  0.00090000  1
  C  C240  1  0.12500000  0.18580000  0.84020000  1
  C  C241  1  0.15440000  0.71520000  0.34020000  1
  C  C242  1  0.58480000  0.01600000  0.47040000  1
  C  C243  1  0.95440000  0.88560000  0.97040000  1
  C  C244  1  0.10209000  0.23271000  0.77220000  1
  C  C245  1  0.03949000  0.67011000  0.27220000  1
  C  C246  1  0.15380000  0.01550000  0.08810000  1
  C  C247  1  0.57260000  0.93430000  0.58810000  1
  H  H248  1  0.80980000  0.97400000  0.86900000  1
  H  H249  1  0.39500000  0.05920000  0.36900000  1
  H  H250  1  0.43750000  0.96990000  0.50820000  1
  H  H251  1  0.03830000  0.07070000  0.00820000  1
  H  H252  1  0.03160000  0.90240000  0.17440000  1
  H  H253  1  0.77200000  0.14280000  0.67440000  1
  H  H254  1  0.31760000  0.90730000  0.45670000  1
  H  H255  1  0.04940000  0.13910000  0.95670000  1
  H  H256  1  0.04790000  0.85530000  0.24420000  1
  H  H257  1  0.88890000  0.19630000  0.74420000  1
  H  H258  1  0.35610000  0.67270000  0.74380000  1
  H  H259  1  0.57110000  0.38770000  0.24380000  1
  H  H260  1  0.90680000  0.73460000  0.23560000  1
  H  H261  1  0.00100000  0.32880000  0.73560000  1
  H  H262  1  0.11010000  0.00310000  0.17360000  1
  H  H263  1  0.67050000  0.06350000  0.67360000  1
  H  H264  1  0.86690000  0.81480000  0.11910000  1
  H  H265  1  0.80430000  0.25220000  0.61910000  1
  H  H266  1  0.88390000  0.64730000  0.30900000  1
  H  H267  1  0.16170000  0.42510000  0.80900000  1
  H  H268  1  0.14930000  0.69990000  0.52320000  1
  H  H269  1  0.32330000  0.37390000  0.02320000  1
  H  H270  1  0.76510000  0.58650000  0.25500000  1
  H  H271  1  0.16850000  0.48990000  0.75500000  1
  H  H272  1  0.15800000  0.64580000  0.58920000  1
  H  H273  1  0.44340000  0.43120000  0.08920000  1
  H  H274  1  0.84970000  0.92100000  0.00590000  1
  H  H275  1  0.58490000  0.15620000  0.50590000  1
  H  H276  1  0.88270000  0.03110000  0.93340000  1
  H  H277  1  0.40230000  0.05070000  0.43340000  1
  H  H278  1  0.71710000  0.88060000  0.94210000  1
  H  H279  1  0.56150000  0.22500000  0.44210000  1
  H  H280  1  0.77030000  0.95740000  0.92710000  1
  H  H281  1  0.46970000  0.15680000  0.42710000  1
  H  H282  1  0.23660000  0.60410000  0.76930000  1
  H  H283  1  0.66520000  0.53270000  0.26930000  1
  H  H284  1  0.33060000  0.68140000  0.79680000  1
  H  H285  1  0.61540000  0.46620000  0.29680000  1
  H  H286  1  0.74180000  0.89520000  0.01760000  1
  H  H287  1  0.62240000  0.27580000  0.51760000  1
  H  H288  1  0.83630000  0.02190000  0.98860000  1
  H  H289  1  0.46670000  0.15230000  0.48860000  1
  H  H290  1  0.83630000  0.97300000  0.04950000  1
  H  H291  1  0.57650000  0.21320000  0.54950000  1
  H  H292  1  0.90370000  0.81170000  0.31720000  1
  H  H293  1  0.00550000  0.41350000  0.81720000  1
  H  H294  1  0.86550000  0.89560000  0.19870000  1
  H  H295  1  0.80310000  0.33320000  0.69870000  1
  H  H296  1  0.96180000  0.08070000  0.11890000  1
  H  H297  1  0.53820000  0.15710000  0.61890000  1
  H  H298  1  0.07450000  0.66750000  0.70680000  1
  H  H299  1  0.53930000  0.63230000  0.20680000  1
  H  H300  1  0.44370000  0.09700000  0.66690000  1
  H  H301  1  0.06990000  0.22320000  0.16690000  1
  H  H302  1  0.32480000  0.03530000  0.61210000  1
  H  H303  1  0.07680000  0.28730000  0.11210000  1
  H  H304  1  0.06050000  0.06430000  0.32400000  1
  H  H305  1  0.75970000  0.26350000  0.82400000  1
  H  H306  1  0.07656667  0.01593333  0.39390000  1
  H  H307  1  0.87796667  0.31733333  0.89390000  1
  H  H308  1  0.88810000  0.07390000  0.16660000  1
  H  H309  1  0.88550000  0.80180000  0.43610000  1
  H  H310  1  0.13430000  0.55060000  0.93610000  1
  H  H311  1  0.59276667  0.27850000  0.66666667  1
  H  H312  1  0.15190000  0.78370000  0.72260000  1
  H  H313  1  0.76590000  0.74060000  0.37970000  1
  H  H314  1  0.13910000  0.61380000  0.87970000  1
  H  H315  1  0.43890000  0.57070000  0.22260000  1
  H  H316  1  0.13610000  0.83410000  0.65680000  1
  H  H317  1  0.32270000  0.52070000  0.15680000  1
  H  H318  1  0.58400000  0.72040000  0.21860000  1
  H  H319  1  0.99820000  0.63460000  0.71860000  1
  H  H320  1  0.92710000  0.90130000  0.39680000  1
  H  H321  1  0.99550000  0.46970000  0.89680000  1
  H  H322  1  0.84890000  0.95270000  0.27040000  1
  H  H323  1  0.81770000  0.42150000  0.77040000  1
  H  H324  1  0.88470000  0.02200000  0.24290000  1
  H  H325  1  0.72090000  0.35820000  0.74290000  1
  H  H326  1  0.65250000  0.78910000  0.25340000  1
  H  H327  1  0.96430000  0.60090000  0.75340000  1
  H  H328  1  0.75390000  0.01230000  0.13960000  1
  H  H329  1  0.62730000  0.38570000  0.63960000  1
  H  H330  1  0.95490000  0.13340000  0.23690000  1
  H  H331  1  0.60350000  0.28200000  0.73690000  1
  H  H332  1  0.69570000  0.94070000  0.17360000  1
  H  H333  1  0.73290000  0.47790000  0.67360000  1
  H  H334  1  0.60970000  0.74130000  0.32580000  1
  H  H335  1  0.08450000  0.71610000  0.82580000  1
  H  H336  1  0.65060000  0.96870000  0.14030000  1
  H  H337  1  0.67160000  0.48970000  0.64030000  1
  H  H338  1  0.16130000  0.89860000  0.72630000  1
  H  H339  1  0.32770000  0.56500000  0.22630000  1
  H  H340  1  0.14380000  0.96320000  0.64540000  1
  H  H341  1  0.18220000  0.50160000  0.14540000  1
  H  H342  1  0.06930000  0.01400000  0.52430000  1
  H  H343  1  0.01030000  0.45500000  0.02430000  1
  H  H344  1  0.30810000  0.99950000  0.78020000  1
  H  H345  1  0.28070000  0.47210000  0.28020000  1
  H  H346  1  0.92050000  0.09750000  0.29660000  1
  H  H347  1  0.69910000  0.37610000  0.79660000  1
  H  H348  1  0.81570000  0.02820000  0.26130000  1
  H  H349  1  0.73310000  0.44560000  0.76130000  1
  H  H350  1  0.24990000  0.92810000  0.81440000  1
  H  H351  1  0.38630000  0.56450000  0.31440000  1
  H  H352  1  0.41390000  0.21260000  0.70030000  1
  H  H353  1  0.98770000  0.28640000  0.20030000  1
  H  H354  1  0.58610000  0.78740000  0.29970000  1
  H  H355  1  0.01230000  0.71360000  0.79970000  1
  H  H356  1  0.75010000  0.07190000  0.18560000  1
  H  H357  1  0.61370000  0.43550000  0.68560000  1
  H  H358  1  0.18430000  0.97180000  0.73870000  1
  H  H359  1  0.26690000  0.55440000  0.23870000  1
  H  H360  1  0.07950000  0.90250000  0.70340000  1
  H  H361  1  0.30090000  0.62390000  0.20340000  1
  H  H362  1  0.69190000  0.00050000  0.21980000  1
  H  H363  1  0.71930000  0.52790000  0.71980000  1
  H  H364  1  0.93070000  0.98600000  0.47570000  1
  H  H365  1  0.98970000  0.54500000  0.97570000  1
  H  H366  1  0.85620000  0.03680000  0.35460000  1
  H  H367  1  0.81780000  0.49840000  0.85460000  1
  H  H368  1  0.83870000  0.10140000  0.27370000  1
  H  H369  1  0.67230000  0.43500000  0.77370000  1
  H  H370  1  0.34940000  0.03130000  0.85970000  1
  H  H371  1  0.32840000  0.51030000  0.35970000  1
  H  H372  1  0.39030000  0.25870000  0.67420000  1
  H  H373  1  0.91550000  0.28390000  0.17420000  1
  H  H374  1  0.30430000  0.05930000  0.82640000  1
  H  H375  1  0.26710000  0.52210000  0.32640000  1
  H  H376  1  0.04510000  0.86660000  0.76310000  1
  H  H377  1  0.39650000  0.71800000  0.26310000  1
  H  H378  1  0.24610000  0.98770000  0.86040000  1
  H  H379  1  0.37270000  0.61430000  0.36040000  1
  H  H380  1  0.34750000  0.21090000  0.74660000  1
  H  H381  1  0.03570000  0.39910000  0.24660000  1
  H  H382  1  0.11530000  0.97800000  0.75710000  1
  H  H383  1  0.27910000  0.64180000  0.25710000  1
  H  H384  1  0.15110000  0.04730000  0.72960000  1
  H  H385  1  0.18230000  0.57850000  0.22960000  1
  H  H386  1  0.07290000  0.09870000  0.60320000  1
  H  H387  1  0.00450000  0.53030000  0.10320000  1
  H  H388  1  0.41600000  0.27960000  0.78140000  1
  H  H389  1  0.00180000  0.36540000  0.28140000  1
  H  H390  1  0.86390000  0.16590000  0.34320000  1
  H  H391  1  0.67730000  0.47930000  0.84320000  1
  H  H392  1  0.23410000  0.25940000  0.62030000  1
  H  H393  1  0.84810000  0.21630000  0.27740000  1
  H  H394  1  0.56110000  0.42930000  0.77740000  1
  H  H395  1  0.86090000  0.38620000  0.12030000  1
  H  H396  1  0.11450000  0.19820000  0.56390000  1
  H  H397  1  0.11190000  0.92610000  0.83340000  1
  H  H398  1  0.40730000  0.72150000  0.33340000  1
  H  H399  1  0.86570000  0.44940000  0.06390000  1
  H  H400  1  0.92340000  0.98410000  0.60610000  1
  H  H401  1  0.12200000  0.68270000  0.10610000  1
  H  H402  1  0.93950000  0.93570000  0.67600000  1
  H  H403  1  0.24030000  0.73650000  0.17600000  1
  H  H404  1  0.67520000  0.96470000  0.38790000  1
  H  H405  1  0.92320000  0.71270000  0.88790000  1
  H  H406  1  0.55630000  0.90300000  0.33310000  1
  H  H407  1  0.93010000  0.77680000  0.83310000  1
  H  H408  1  0.92550000  0.33250000  0.29320000  1
  H  H409  1  0.46070000  0.36770000  0.79320000  1
  H  H410  1  0.03820000  0.91930000  0.88110000  1
  H  H411  1  0.46180000  0.84290000  0.38110000  1
  H  H412  1  0.13450000  0.10440000  0.80130000  1
  H  H413  1  0.19690000  0.66680000  0.30130000  1
  H  H414  1  0.09630000  0.18830000  0.68280000  1
  H  H415  1  0.99450000  0.58650000  0.18280000  1
  H  H416  1  0.16370000  0.02700000  0.95050000  1
  H  H417  1  0.42350000  0.78680000  0.45050000  1
  H  H418  1  0.16370000  0.97810000  0.01140000  1
  H  H419  1  0.53330000  0.84770000  0.51140000  1
  H  H420  1  0.25820000  0.10480000  0.98240000  1
  H  H421  1  0.37760000  0.72420000  0.48240000  1
  H  H422  1  0.66940000  0.31860000  0.20320000  1
  H  H423  1  0.38460000  0.53380000  0.70320000  1
  H  H424  1  0.76340000  0.39590000  0.23070000  1
  H  H425  1  0.33480000  0.46730000  0.73070000  1
  H  H426  1  0.22970000  0.04260000  0.07290000  1
  H  H427  1  0.53030000  0.84320000  0.57290000  1
  H  H428  1  0.28290000  0.11940000  0.05790000  1
  H  H429  1  0.43850000  0.77500000  0.55790000  1
  H  H430  1  0.11730000  0.96890000  0.06660000  1
  H  H431  1  0.59770000  0.94930000  0.56660000  1
  H  H432  1  0.15030000  0.07900000  0.99410000  1
  H  H433  1  0.41510000  0.84380000  0.49410000  1
  H  H434  1  0.84200000  0.35420000  0.41080000  1
  H  H435  1  0.55660000  0.56880000  0.91080000  1
  H  H436  1  0.23490000  0.41350000  0.74500000  1
  H  H437  1  0.83150000  0.51010000  0.24500000  1
  H  H438  1  0.85070000  0.30010000  0.47680000  1
  H  H439  1  0.67670000  0.62610000  0.97680000  1
  H  H440  1  0.11610000  0.35270000  0.69100000  1
  H  H441  1  0.83830000  0.57490000  0.19100000  1
  H  H442  1  0.13310000  0.18520000  0.88090000  1
  H  H443  1  0.19570000  0.74780000  0.38090000  1
  H  H444  1  0.88990000  0.99690000  0.82640000  1
  H  H445  1  0.32950000  0.93650000  0.32640000  1
  H  H446  1  0.09320000  0.26540000  0.76440000  1
  H  H447  1  0.99900000  0.67120000  0.26440000  1
  H  H448  1  0.64390000  0.32730000  0.25620000  1
  H  H449  1  0.42890000  0.61230000  0.75620000  1
  H  H450  1  0.95210000  0.14470000  0.75580000  1
  H  H451  1  0.11110000  0.80370000  0.25580000  1
  H  H452  1  0.68240000  0.09270000  0.54330000  1
  H  H453  1  0.95060000  0.86090000  0.04330000  1
  H  H454  1  0.96840000  0.09760000  0.82560000  1
  H  H455  1  0.22800000  0.85720000  0.32560000  1
  H  H456  1  0.56250000  0.03010000  0.49180000  1
  H  H457  1  0.96170000  0.92930000  0.99180000  1
  H  H458  1  0.19020000  0.02600000  0.13100000  1
  H  H459  1  0.60500000  0.94080000  0.63100000  1
  N  N460  1  0.88677000  0.76641000  0.16840000  1
  N  N461  1  0.90199000  0.28163000  0.66840000  1
  N  N462  1  0.10892000  0.98100000  0.57780000  1
  N  N463  1  0.09680000  0.46888000  0.07780000  1
  N  N464  1  0.89108000  0.01900000  0.42220000  1
  N  N465  1  0.90320000  0.53112000  0.92220000  1
  N  N466  1  0.11323000  0.23359000  0.83160000  1
  N  N467  1  0.09801000  0.71837000  0.33160000  1
  O  O468  1  0.53740000  0.97210000  0.59930000  1
  O  O469  1  0.12720000  0.06190000  0.09930000  1
  O  O470  1  0.25720000  0.66300000  0.70240000  1
  O  O471  1  0.53940000  0.44520000  0.20240000  1
  O  O472  1  0.20216000  0.86746000  0.44592000  1
  O  O473  1  0.07846000  0.24376000  0.94592000  1
  O  O474  1  0.07387000  0.84475000  0.35016000  1
  O  O475  1  0.00541000  0.27629000  0.85016000  1
  O  O476  1  0.00151000  0.74876000  0.38081000  1
  O  O477  1  0.13205000  0.37930000  0.88081000  1
  O  O478  1  0.12993000  0.77833000  0.48310000  1
  O  O479  1  0.20477000  0.35317000  0.98310000  1
  O  O480  1  0.20442000  0.94436000  0.52718000  1
  O  O481  1  0.08282000  0.32276000  0.02718000  1
  O  O482  1  0.08297000  0.93078000  0.42967000  1
  O  O483  1  0.99889000  0.34670000  0.92967000  1
  O  O484  1  0.00250000  0.83458000  0.45328000  1
  O  O485  1  0.11870000  0.45078000  0.95328000  1
  O  O486  1  0.12417000  0.85536000  0.55769000  1
  O  O487  1  0.20233000  0.43352000  0.05769000  1
  O  O488  1  0.95630000  0.04130000  0.20840000  1
  O  O489  1  0.66710000  0.25210000  0.70840000  1
  O  O490  1  0.67010000  0.71560000  0.26870000  1
  O  O491  1  0.05310000  0.59860000  0.76870000  1
  O  O492  1  0.32990000  0.28440000  0.73130000  1
  O  O493  1  0.94690000  0.40140000  0.23130000  1
  O  O494  1  0.04370000  0.95870000  0.79160000  1
  O  O495  1  0.33290000  0.74790000  0.29160000  1
  O  O496  1  0.87583000  0.14464000  0.44231000  1
  O  O497  1  0.79767000  0.56648000  0.94231000  1
  O  O498  1  0.99750000  0.16542000  0.54672000  1
  O  O499  1  0.88130000  0.54922000  0.04672000  1
  O  O500  1  0.91703000  0.06922000  0.57033000  1
  O  O501  1  0.00111000  0.65330000  0.07033000  1
  O  O502  1  0.79558000  0.05564000  0.47282000  1
  O  O503  1  0.91718000  0.67724000  0.97282000  1
  O  O504  1  0.87007000  0.22167000  0.51690000  1
  O  O505  1  0.79523000  0.64683000  0.01690000  1
  O  O506  1  0.99849000  0.25124000  0.61919000  1
  O  O507  1  0.86795000  0.62070000  0.11919000  1
  O  O508  1  0.92613000  0.15525000  0.64984000  1
  O  O509  1  0.99459000  0.72371000  0.14984000  1
  O  O510  1  0.79784000  0.13254000  0.55408000  1
  O  O511  1  0.92154000  0.75624000  0.05408000  1
  O  O512  1  0.74280000  0.33700000  0.29760000  1
  O  O513  1  0.46060000  0.55480000  0.79760000  1
  O  O514  1  0.46260000  0.02790000  0.40070000  1
  O  O515  1  0.87280000  0.93810000  0.90070000  1
  Zn  Zn516  1  0.10093000  0.79548000  0.40171000  1
  Zn  Zn517  1  0.10623000  0.30078000  0.90171000  1
  Zn  Zn518  1  0.10534000  0.90533000  0.50501000  1
  Zn  Zn519  1  0.09968000  0.39967000  0.00501000  1
  Zn  Zn520  1  0.89466000  0.09467000  0.49499000  1
  Zn  Zn521  1  0.90032000  0.60033000  0.99499000  1
  Zn  Zn522  1  0.89907000  0.20452000  0.59829000  1
  Zn  Zn523  1  0.89377000  0.69922000  0.09829000  1
