# generated using pymatgen
data_KZnH15C15O7
_symmetry_space_group_name_H-M   'P 1'
_cell_length_a   11.11104399
_cell_length_b   11.11104399
_cell_length_c   16.47500000
_cell_angle_alpha   90.10072698
_cell_angle_beta   90.10072698
_cell_angle_gamma   91.99827538
_symmetry_Int_Tables_number   1
_chemical_formula_structural   KZnH15C15O7
_chemical_formula_sum   'K4 Zn4 H60 C60 O28'
_cell_volume   2032.68265643
_cell_formula_units_Z   4
loop_
 _symmetry_equiv_pos_site_id
 _symmetry_equiv_pos_as_xyz
  1  'x, y, z'
loop_
 _atom_site_type_symbol
 _atom_site_label
 _atom_site_symmetry_multiplicity
 _atom_site_fract_x
 _atom_site_fract_y
 _atom_site_fract_z
 _atom_site_occupancy
  C  C0  1  0.61690000  0.38010000  0.02060000  1
  C  C1  1  0.38010000  0.61690000  0.52060000  1
  C  C2  1  0.68930000  0.22170000  0.34860000  1
  C  C3  1  0.22170000  0.68930000  0.84860000  1
  C  C4  1  0.59340000  0.29240000  0.64180000  1
  C  C5  1  0.29240000  0.59340000  0.14180000  1
  C  C6  1  0.63150000  0.25230000  0.49610000  1
  C  C7  1  0.25230000  0.63150000  0.99610000  1
  C  C8  1  0.66140000  0.17400000  0.43260000  1
  C  C9  1  0.17400000  0.66140000  0.93260000  1
  C  C10  1  0.61620000  0.20740000  0.57330000  1
  C  C11  1  0.20740000  0.61620000  0.07330000  1
  C  C12  1  0.83940000  0.97840000  0.35880000  1
  C  C13  1  0.97840000  0.83940000  0.85880000  1
  C  C14  1  0.53920000  0.26540000  0.02000000  1
  C  C15  1  0.26540000  0.53920000  0.52000000  1
  C  C16  1  0.72610000  0.03190000  0.72270000  1
  C  C17  1  0.03190000  0.72610000  0.22270000  1
  C  C18  1  0.67180000  0.05140000  0.44840000  1
  C  C19  1  0.05140000  0.67180000  0.94840000  1
  C  C20  1  0.62480000  0.08500000  0.58950000  1
  C  C21  1  0.08500000  0.62480000  0.08950000  1
  C  C22  1  0.70630000  0.97010000  0.37860000  1
  C  C23  1  0.97010000  0.70630000  0.87860000  1
  C  C24  1  0.65420000  0.00440000  0.52550000  1
  C  C25  1  0.00440000  0.65420000  0.02550000  1
  C  C26  1  0.60890000  0.03570000  0.67540000  1
  C  C27  1  0.03570000  0.60890000  0.17540000  1
  C  C28  1  0.67390000  0.87390000  0.54350000  1
  C  C29  1  0.87390000  0.67390000  0.04350000  1
  C  C30  1  0.32610000  0.12610000  0.45650000  1
  C  C31  1  0.12610000  0.32610000  0.95650000  1
  C  C32  1  0.39110000  0.96430000  0.32460000  1
  C  C33  1  0.96430000  0.39110000  0.82460000  1
  C  C34  1  0.34580000  0.99560000  0.47450000  1
  C  C35  1  0.99560000  0.34580000  0.97450000  1
  C  C36  1  0.29370000  0.02990000  0.62140000  1
  C  C37  1  0.02990000  0.29370000  0.12140000  1
  C  C38  1  0.37520000  0.91500000  0.41050000  1
  C  C39  1  0.91500000  0.37520000  0.91050000  1
  C  C40  1  0.32820000  0.94860000  0.55160000  1
  C  C41  1  0.94860000  0.32820000  0.05160000  1
  C  C42  1  0.27390000  0.96810000  0.27730000  1
  C  C43  1  0.96810000  0.27390000  0.77730000  1
  C  C44  1  0.46080000  0.73460000  0.98000000  1
  C  C45  1  0.73460000  0.46080000  0.48000000  1
  C  C46  1  0.16060000  0.02160000  0.64120000  1
  C  C47  1  0.02160000  0.16060000  0.14120000  1
  C  C48  1  0.38380000  0.79260000  0.42670000  1
  C  C49  1  0.79260000  0.38380000  0.92670000  1
  C  C50  1  0.33860000  0.82600000  0.56740000  1
  C  C51  1  0.82600000  0.33860000  0.06740000  1
  C  C52  1  0.36850000  0.74770000  0.50390000  1
  C  C53  1  0.74770000  0.36850000  0.00390000  1
  C  C54  1  0.40660000  0.70760000  0.35820000  1
  C  C55  1  0.70760000  0.40660000  0.85820000  1
  C  C56  1  0.31070000  0.77830000  0.65140000  1
  C  C57  1  0.77830000  0.31070000  0.15140000  1
  C  C58  1  0.38310000  0.61990000  0.97940000  1
  C  C59  1  0.61990000  0.38310000  0.47940000  1
  H  H60  1  0.62970000  0.36990000  0.62980000  1
  H  H61  1  0.36990000  0.62970000  0.12980000  1
  H  H62  1  0.56550000  0.41530000  0.51940000  1
  H  H63  1  0.41530000  0.56550000  0.01940000  1
  H  H64  1  0.58200000  0.39120000  0.42670000  1
  H  H65  1  0.39120000  0.58200000  0.92670000  1
  H  H66  1  0.71220000  0.25300000  0.14760000  1
  H  H67  1  0.25300000  0.71220000  0.64760000  1
  H  H68  1  0.62760000  0.26180000  0.69090000  1
  H  H69  1  0.26180000  0.62760000  0.19090000  1
  H  H70  1  0.72170000  0.15890000  0.31610000  1
  H  H71  1  0.15890000  0.72170000  0.81610000  1
  H  H72  1  0.61670000  0.24870000  0.32390000  1
  H  H73  1  0.24870000  0.61670000  0.82390000  1
  H  H74  1  0.50820000  0.29980000  0.64870000  1
  H  H75  1  0.29980000  0.50820000  0.14870000  1
  H  H76  1  0.66070000  0.99150000  0.33080000  1
  H  H77  1  0.99150000  0.66070000  0.83080000  1
  H  H78  1  0.55350000  0.08570000  0.70470000  1
  H  H79  1  0.08570000  0.55350000  0.20470000  1
  H  H80  1  0.71640000  0.86740000  0.59410000  1
  H  H81  1  0.86740000  0.71640000  0.09410000  1
  H  H82  1  0.68400000  0.88740000  0.39240000  1
  H  H83  1  0.88740000  0.68400000  0.89240000  1
  H  H84  1  0.40240000  0.16880000  0.45270000  1
  H  H85  1  0.16880000  0.40240000  0.95270000  1
  H  H86  1  0.72050000  0.83970000  0.50080000  1
  H  H87  1  0.83970000  0.72050000  0.00080000  1
  H  H88  1  0.57300000  0.95500000  0.67240000  1
  H  H89  1  0.95500000  0.57300000  0.17240000  1
  H  H90  1  0.42700000  0.04500000  0.32760000  1
  H  H91  1  0.04500000  0.42700000  0.82760000  1
  H  H92  1  0.27950000  0.16030000  0.49920000  1
  H  H93  1  0.16030000  0.27950000  0.99920000  1
  H  H94  1  0.59760000  0.83120000  0.54730000  1
  H  H95  1  0.83120000  0.59760000  0.04730000  1
  H  H96  1  0.31600000  0.11260000  0.60760000  1
  H  H97  1  0.11260000  0.31600000  0.10760000  1
  H  H98  1  0.28360000  0.13260000  0.40590000  1
  H  H99  1  0.13260000  0.28360000  0.90590000  1
  H  H100  1  0.44650000  0.91430000  0.29530000  1
  H  H101  1  0.91430000  0.44650000  0.79530000  1
  H  H102  1  0.33930000  0.00850000  0.66920000  1
  H  H103  1  0.00850000  0.33930000  0.16920000  1
  H  H104  1  0.49180000  0.70020000  0.35130000  1
  H  H105  1  0.70020000  0.49180000  0.85130000  1
  H  H106  1  0.38330000  0.75130000  0.67610000  1
  H  H107  1  0.75130000  0.38330000  0.17610000  1
  H  H108  1  0.27830000  0.84110000  0.68390000  1
  H  H109  1  0.84110000  0.27830000  0.18390000  1
  H  H110  1  0.37240000  0.73820000  0.30910000  1
  H  H111  1  0.73820000  0.37240000  0.80910000  1
  H  H112  1  0.28780000  0.74700000  0.85240000  1
  H  H113  1  0.74700000  0.28780000  0.35240000  1
  H  H114  1  0.41800000  0.60880000  0.57330000  1
  H  H115  1  0.60880000  0.41800000  0.07330000  1
  H  H116  1  0.43450000  0.58470000  0.48060000  1
  H  H117  1  0.58470000  0.43450000  0.98060000  1
  H  H118  1  0.37030000  0.63010000  0.37020000  1
  H  H119  1  0.63010000  0.37030000  0.87020000  1
  K  K120  1  0.83822000  0.09334000  0.95262000  1
  K  K121  1  0.09334000  0.83822000  0.45262000  1
  K  K122  1  0.16178000  0.90666000  0.04738000  1
  K  K123  1  0.90666000  0.16178000  0.54738000  1
  O  O124  1  0.91430000  0.00250000  0.40970000  1
  O  O125  1  0.00250000  0.91430000  0.90970000  1
  O  O126  1  0.82280000  0.04020000  0.68250000  1
  O  O127  1  0.04020000  0.82280000  0.18250000  1
  O  O128  1  0.86220000  0.95540000  0.28370000  1
  O  O129  1  0.95540000  0.86220000  0.78370000  1
  O  O130  1  0.58580000  0.16940000  0.99800000  1
  O  O131  1  0.16940000  0.58580000  0.49800000  1
  O  O132  1  0.72080000  0.01860000  0.79720000  1
  O  O133  1  0.01860000  0.72080000  0.29720000  1
  O  O134  1  0.43240000  0.27540000  0.03980000  1
  O  O135  1  0.27540000  0.43240000  0.53980000  1
  O  O136  1  0.67320000  0.92180000  0.00910000  1
  O  O137  1  0.92180000  0.67320000  0.50910000  1
  O  O138  1  0.32680000  0.07820000  0.99090000  1
  O  O139  1  0.07820000  0.32680000  0.49090000  1
  O  O140  1  0.56760000  0.72460000  0.96020000  1
  O  O141  1  0.72460000  0.56760000  0.46020000  1
  O  O142  1  0.27920000  0.98140000  0.20280000  1
  O  O143  1  0.98140000  0.27920000  0.70280000  1
  O  O144  1  0.41420000  0.83060000  0.00200000  1
  O  O145  1  0.83060000  0.41420000  0.50200000  1
  O  O146  1  0.13780000  0.04460000  0.71630000  1
  O  O147  1  0.04460000  0.13780000  0.21630000  1
  O  O148  1  0.17720000  0.95980000  0.31750000  1
  O  O149  1  0.95980000  0.17720000  0.81750000  1
  O  O150  1  0.08570000  0.99750000  0.59030000  1
  O  O151  1  0.99750000  0.08570000  0.09030000  1
  Zn  Zn152  1  0.96868000  0.03132000  0.75000000  1
  Zn  Zn153  1  0.03132000  0.96868000  0.25000000  1
  Zn  Zn154  1  0.50000000  1.00000000  1.00000000  1
  Zn  Zn155  1  0.00000000  0.50000000  0.50000000  1
