# generated using pymatgen
data_Zn2H11C19N3O8
_symmetry_space_group_name_H-M   'P 1'
_cell_length_a   14.04000000
_cell_length_b   14.34500000
_cell_length_c   27.75600000
_cell_angle_alpha   90.00000000
_cell_angle_beta   90.00000000
_cell_angle_gamma   90.00000000
_symmetry_Int_Tables_number   1
_chemical_formula_structural   Zn2H11C19N3O8
_chemical_formula_sum   'Zn16 H88 C152 N24 O64'
_cell_volume   5590.16387280
_cell_formula_units_Z   8
loop_
 _symmetry_equiv_pos_site_id
 _symmetry_equiv_pos_as_xyz
  1  'x, y, z'
loop_
 _atom_site_type_symbol
 _atom_site_label
 _atom_site_symmetry_multiplicity
 _atom_site_fract_x
 _atom_site_fract_y
 _atom_site_fract_z
 _atom_site_occupancy
  Zn  Zn0  1  0.21261000  0.51077000  0.34721000  1
  Zn  Zn1  1  0.21261000  0.98923000  0.84721000  1
  Zn  Zn2  1  0.21372000  0.59116000  0.09779000  1
  Zn  Zn3  1  0.21372000  0.90884000  0.59779000  1
  Zn  Zn4  1  0.28628000  0.09116000  0.09779000  1
  Zn  Zn5  1  0.28628000  0.40884000  0.59779000  1
  Zn  Zn6  1  0.28739000  0.01077000  0.34721000  1
  Zn  Zn7  1  0.28739000  0.48923000  0.84721000  1
  Zn  Zn8  1  0.71261000  0.51077000  0.15279000  1
  Zn  Zn9  1  0.71261000  0.98923000  0.65279000  1
  Zn  Zn10  1  0.71372000  0.59116000  0.40221000  1
  Zn  Zn11  1  0.71372000  0.90884000  0.90221000  1
  Zn  Zn12  1  0.78628000  0.09116000  0.40221000  1
  Zn  Zn13  1  0.78628000  0.40884000  0.90221000  1
  Zn  Zn14  1  0.78739000  0.01077000  0.15279000  1
  Zn  Zn15  1  0.78739000  0.48923000  0.65279000  1
  H  H16  1  0.02760000  0.16790000  0.90000000  1
  H  H17  1  0.02760000  0.33210000  0.40000000  1
  H  H18  1  0.04220000  0.02530000  0.94060000  1
  H  H19  1  0.04220000  0.47470000  0.44060000  1
  H  H20  1  0.07970000  0.05140000  0.36250000  1
  H  H21  1  0.07970000  0.44860000  0.86250000  1
  H  H22  1  0.08480000  0.07760000  0.06170000  1
  H  H23  1  0.08480000  0.42240000  0.56170000  1
  H  H24  1  0.09730000  0.04120000  0.19660000  1
  H  H25  1  0.09730000  0.45880000  0.69660000  1
  H  H26  1  0.11820000  0.70520000  0.63670000  1
  H  H27  1  0.11820000  0.79480000  0.13670000  1
  H  H28  1  0.19690000  0.52460000  0.45660000  1
  H  H29  1  0.19690000  0.97540000  0.95660000  1
  H  H30  1  0.19980000  0.63980000  0.51480000  1
  H  H31  1  0.19980000  0.86020000  0.01480000  1
  H  H32  1  0.20410000  0.71370000  0.35370000  1
  H  H33  1  0.20410000  0.78630000  0.85370000  1
  H  H34  1  0.23130000  0.02290000  0.24250000  1
  H  H35  1  0.23130000  0.47710000  0.74250000  1
  H  H36  1  0.23720000  0.59830000  0.63700000  1
  H  H37  1  0.23720000  0.90170000  0.13700000  1
  H  H38  1  0.26280000  0.09830000  0.63700000  1
  H  H39  1  0.26280000  0.40170000  0.13700000  1
  H  H40  1  0.26870000  0.52290000  0.24250000  1
  H  H41  1  0.26870000  0.97710000  0.74250000  1
  H  H42  1  0.29590000  0.21370000  0.35370000  1
  H  H43  1  0.29590000  0.28630000  0.85370000  1
  H  H44  1  0.30020000  0.13980000  0.51480000  1
  H  H45  1  0.30020000  0.36020000  0.01480000  1
  H  H46  1  0.30310000  0.02460000  0.45660000  1
  H  H47  1  0.30310000  0.47540000  0.95660000  1
  H  H48  1  0.38180000  0.20520000  0.63670000  1
  H  H49  1  0.38180000  0.29480000  0.13670000  1
  H  H50  1  0.40270000  0.54120000  0.19660000  1
  H  H51  1  0.40270000  0.95880000  0.69660000  1
  H  H52  1  0.41520000  0.57760000  0.06170000  1
  H  H53  1  0.41520000  0.92240000  0.56170000  1
  H  H54  1  0.42030000  0.55140000  0.36250000  1
  H  H55  1  0.42030000  0.94860000  0.86250000  1
  H  H56  1  0.45780000  0.52530000  0.94060000  1
  H  H57  1  0.45780000  0.97470000  0.44060000  1
  H  H58  1  0.47240000  0.66790000  0.90000000  1
  H  H59  1  0.47240000  0.83210000  0.40000000  1
  H  H60  1  0.52760000  0.16790000  0.60000000  1
  H  H61  1  0.52760000  0.33210000  0.10000000  1
  H  H62  1  0.54220000  0.02530000  0.55940000  1
  H  H63  1  0.54220000  0.47470000  0.05940000  1
  H  H64  1  0.57970000  0.05140000  0.13750000  1
  H  H65  1  0.57970000  0.44860000  0.63750000  1
  H  H66  1  0.58480000  0.07760000  0.43830000  1
  H  H67  1  0.58480000  0.42240000  0.93830000  1
  H  H68  1  0.59730000  0.04120000  0.30340000  1
  H  H69  1  0.59730000  0.45880000  0.80340000  1
  H  H70  1  0.61820000  0.70520000  0.86330000  1
  H  H71  1  0.61820000  0.79480000  0.36330000  1
  H  H72  1  0.69690000  0.52460000  0.04340000  1
  H  H73  1  0.69690000  0.97540000  0.54340000  1
  H  H74  1  0.69980000  0.63980000  0.98520000  1
  H  H75  1  0.69980000  0.86020000  0.48520000  1
  H  H76  1  0.70410000  0.71370000  0.14630000  1
  H  H77  1  0.70410000  0.78630000  0.64630000  1
  H  H78  1  0.73130000  0.02290000  0.25750000  1
  H  H79  1  0.73130000  0.47710000  0.75750000  1
  H  H80  1  0.73720000  0.59830000  0.86300000  1
  H  H81  1  0.73720000  0.90170000  0.36300000  1
  H  H82  1  0.76280000  0.09830000  0.86300000  1
  H  H83  1  0.76280000  0.40170000  0.36300000  1
  H  H84  1  0.76870000  0.52290000  0.25750000  1
  H  H85  1  0.76870000  0.97710000  0.75750000  1
  H  H86  1  0.79590000  0.21370000  0.14630000  1
  H  H87  1  0.79590000  0.28630000  0.64630000  1
  H  H88  1  0.80020000  0.13980000  0.98520000  1
  H  H89  1  0.80020000  0.36020000  0.48520000  1
  H  H90  1  0.80310000  0.02460000  0.04340000  1
  H  H91  1  0.80310000  0.47540000  0.54340000  1
  H  H92  1  0.88180000  0.20520000  0.86330000  1
  H  H93  1  0.88180000  0.29480000  0.36330000  1
  H  H94  1  0.90270000  0.54120000  0.30340000  1
  H  H95  1  0.90270000  0.95880000  0.80340000  1
  H  H96  1  0.91520000  0.57760000  0.43830000  1
  H  H97  1  0.91520000  0.92240000  0.93830000  1
  H  H98  1  0.92030000  0.55140000  0.13750000  1
  H  H99  1  0.92030000  0.94860000  0.63750000  1
  H  H100  1  0.95780000  0.52530000  0.55940000  1
  H  H101  1  0.95780000  0.97470000  0.05940000  1
  H  H102  1  0.97240000  0.66790000  0.60000000  1
  H  H103  1  0.97240000  0.83210000  0.10000000  1
  C  C104  1  0.00120000  0.06020000  0.30260000  1
  C  C105  1  0.00120000  0.43980000  0.80260000  1
  C  C106  1  0.00380000  0.05580000  0.25270000  1
  C  C107  1  0.00380000  0.44420000  0.75270000  1
  C  C108  1  0.01480000  0.54120000  0.57600000  1
  C  C109  1  0.01480000  0.95880000  0.07600000  1
  C  C110  1  0.02400000  0.62510000  0.59920000  1
  C  C111  1  0.02400000  0.87490000  0.09920000  1
  C  C112  1  0.08280000  0.04920000  0.32840000  1
  C  C113  1  0.08280000  0.45080000  0.82840000  1
  C  C114  1  0.08300000  0.57330000  0.27890000  1
  C  C115  1  0.08300000  0.92670000  0.77890000  1
  C  C116  1  0.09080000  0.01920000  0.07750000  1
  C  C117  1  0.09080000  0.48080000  0.57750000  1
  C  C118  1  0.09130000  0.56740000  0.17030000  1
  C  C119  1  0.09130000  0.93260000  0.67030000  1
  C  C120  1  0.09260000  0.04280000  0.23070000  1
  C  C121  1  0.09260000  0.45720000  0.73070000  1
  C  C122  1  0.10940000  0.64650000  0.62150000  1
  C  C123  1  0.10940000  0.85350000  0.12150000  1
  C  C124  1  0.17180000  0.03240000  0.25810000  1
  C  C125  1  0.17180000  0.46760000  0.75810000  1
  C  C126  1  0.17920000  0.58320000  0.62120000  1
  C  C127  1  0.17920000  0.91680000  0.12120000  1
  C  C128  1  0.20120000  0.58800000  0.44700000  1
  C  C129  1  0.20120000  0.91200000  0.94700000  1
  C  C130  1  0.20480000  0.65610000  0.48170000  1
  C  C131  1  0.20480000  0.84390000  0.98170000  1
  C  C132  1  0.20670000  0.69860000  0.38700000  1
  C  C133  1  0.20670000  0.80140000  0.88700000  1
  C  C134  1  0.21360000  0.73000000  0.91980000  1
  C  C135  1  0.21360000  0.77000000  0.41980000  1
  C  C136  1  0.21590000  0.74970000  0.46840000  1
  C  C137  1  0.21590000  0.75030000  0.96840000  1
  C  C138  1  0.21890000  0.63090000  0.90120000  1
  C  C139  1  0.21890000  0.86910000  0.40120000  1
  C  C140  1  0.23610000  0.67580000  0.00550000  1
  C  C141  1  0.23610000  0.82420000  0.50550000  1
  C  C142  1  0.26390000  0.17580000  0.00550000  1
  C  C143  1  0.26390000  0.32420000  0.50550000  1
  C  C144  1  0.28110000  0.13090000  0.90120000  1
  C  C145  1  0.28110000  0.36910000  0.40120000  1
  C  C146  1  0.28410000  0.24970000  0.46840000  1
  C  C147  1  0.28410000  0.25030000  0.96840000  1
  C  C148  1  0.28640000  0.23000000  0.91980000  1
  C  C149  1  0.28640000  0.27000000  0.41980000  1
  C  C150  1  0.29330000  0.19860000  0.38700000  1
  C  C151  1  0.29330000  0.30140000  0.88700000  1
  C  C152  1  0.29520000  0.15610000  0.48170000  1
  C  C153  1  0.29520000  0.34390000  0.98170000  1
  C  C154  1  0.29880000  0.08800000  0.44700000  1
  C  C155  1  0.29880000  0.41200000  0.94700000  1
  C  C156  1  0.32080000  0.08320000  0.62120000  1
  C  C157  1  0.32080000  0.41680000  0.12120000  1
  C  C158  1  0.32820000  0.53240000  0.25810000  1
  C  C159  1  0.32820000  0.96760000  0.75810000  1
  C  C160  1  0.39060000  0.14650000  0.62150000  1
  C  C161  1  0.39060000  0.35350000  0.12150000  1
  C  C162  1  0.40740000  0.54280000  0.23070000  1
  C  C163  1  0.40740000  0.95720000  0.73070000  1
  C  C164  1  0.40870000  0.06740000  0.17030000  1
  C  C165  1  0.40870000  0.43260000  0.67030000  1
  C  C166  1  0.40920000  0.51920000  0.07750000  1
  C  C167  1  0.40920000  0.98080000  0.57750000  1
  C  C168  1  0.41700000  0.07330000  0.27890000  1
  C  C169  1  0.41700000  0.42670000  0.77890000  1
  C  C170  1  0.41720000  0.54920000  0.32840000  1
  C  C171  1  0.41720000  0.95080000  0.82840000  1
  C  C172  1  0.47600000  0.12510000  0.59920000  1
  C  C173  1  0.47600000  0.37490000  0.09920000  1
  C  C174  1  0.48520000  0.04120000  0.57600000  1
  C  C175  1  0.48520000  0.45880000  0.07600000  1
  C  C176  1  0.49620000  0.55580000  0.25270000  1
  C  C177  1  0.49620000  0.94420000  0.75270000  1
  C  C178  1  0.49880000  0.56020000  0.30260000  1
  C  C179  1  0.49880000  0.93980000  0.80260000  1
  C  C180  1  0.50120000  0.06020000  0.19740000  1
  C  C181  1  0.50120000  0.43980000  0.69740000  1
  C  C182  1  0.50380000  0.05580000  0.24730000  1
  C  C183  1  0.50380000  0.44420000  0.74730000  1
  C  C184  1  0.51480000  0.54120000  0.92400000  1
  C  C185  1  0.51480000  0.95880000  0.42400000  1
  C  C186  1  0.52400000  0.62510000  0.90080000  1
  C  C187  1  0.52400000  0.87490000  0.40080000  1
  C  C188  1  0.58280000  0.04920000  0.17160000  1
  C  C189  1  0.58280000  0.45080000  0.67160000  1
  C  C190  1  0.58300000  0.57330000  0.22110000  1
  C  C191  1  0.58300000  0.92670000  0.72110000  1
  C  C192  1  0.59080000  0.01920000  0.42250000  1
  C  C193  1  0.59080000  0.48080000  0.92250000  1
  C  C194  1  0.59130000  0.56740000  0.32970000  1
  C  C195  1  0.59130000  0.93260000  0.82970000  1
  C  C196  1  0.59260000  0.04280000  0.26930000  1
  C  C197  1  0.59260000  0.45720000  0.76930000  1
  C  C198  1  0.60940000  0.64650000  0.87850000  1
  C  C199  1  0.60940000  0.85350000  0.37850000  1
  C  C200  1  0.67180000  0.03240000  0.24190000  1
  C  C201  1  0.67180000  0.46760000  0.74190000  1
  C  C202  1  0.67920000  0.58320000  0.87880000  1
  C  C203  1  0.67920000  0.91680000  0.37880000  1
  C  C204  1  0.70120000  0.58800000  0.05300000  1
  C  C205  1  0.70120000  0.91200000  0.55300000  1
  C  C206  1  0.70480000  0.65610000  0.01830000  1
  C  C207  1  0.70480000  0.84390000  0.51830000  1
  C  C208  1  0.70670000  0.69860000  0.11300000  1
  C  C209  1  0.70670000  0.80140000  0.61300000  1
  C  C210  1  0.71360000  0.73000000  0.58020000  1
  C  C211  1  0.71360000  0.77000000  0.08020000  1
  C  C212  1  0.71590000  0.74970000  0.03160000  1
  C  C213  1  0.71590000  0.75030000  0.53160000  1
  C  C214  1  0.71890000  0.63090000  0.59880000  1
  C  C215  1  0.71890000  0.86910000  0.09880000  1
  C  C216  1  0.73610000  0.67580000  0.49450000  1
  C  C217  1  0.73610000  0.82420000  0.99450000  1
  C  C218  1  0.76390000  0.17580000  0.49450000  1
  C  C219  1  0.76390000  0.32420000  0.99450000  1
  C  C220  1  0.78110000  0.13090000  0.59880000  1
  C  C221  1  0.78110000  0.36910000  0.09880000  1
  C  C222  1  0.78410000  0.24970000  0.03160000  1
  C  C223  1  0.78410000  0.25030000  0.53160000  1
  C  C224  1  0.78640000  0.23000000  0.58020000  1
  C  C225  1  0.78640000  0.27000000  0.08020000  1
  C  C226  1  0.79330000  0.19860000  0.11300000  1
  C  C227  1  0.79330000  0.30140000  0.61300000  1
  C  C228  1  0.79520000  0.15610000  0.01830000  1
  C  C229  1  0.79520000  0.34390000  0.51830000  1
  C  C230  1  0.79880000  0.08800000  0.05300000  1
  C  C231  1  0.79880000  0.41200000  0.55300000  1
  C  C232  1  0.82080000  0.08320000  0.87880000  1
  C  C233  1  0.82080000  0.41680000  0.37880000  1
  C  C234  1  0.82820000  0.53240000  0.24190000  1
  C  C235  1  0.82820000  0.96760000  0.74190000  1
  C  C236  1  0.89060000  0.14650000  0.87850000  1
  C  C237  1  0.89060000  0.35350000  0.37850000  1
  C  C238  1  0.90740000  0.54280000  0.26930000  1
  C  C239  1  0.90740000  0.95720000  0.76930000  1
  C  C240  1  0.90870000  0.06740000  0.32970000  1
  C  C241  1  0.90870000  0.43260000  0.82970000  1
  C  C242  1  0.90920000  0.51920000  0.42250000  1
  C  C243  1  0.90920000  0.98080000  0.92250000  1
  C  C244  1  0.91700000  0.07330000  0.22110000  1
  C  C245  1  0.91700000  0.42670000  0.72110000  1
  C  C246  1  0.91720000  0.54920000  0.17160000  1
  C  C247  1  0.91720000  0.95080000  0.67160000  1
  C  C248  1  0.97600000  0.12510000  0.90080000  1
  C  C249  1  0.97600000  0.37490000  0.40080000  1
  C  C250  1  0.98520000  0.04120000  0.92400000  1
  C  C251  1  0.98520000  0.45880000  0.42400000  1
  C  C252  1  0.99620000  0.55580000  0.24730000  1
  C  C253  1  0.99620000  0.94420000  0.74730000  1
  C  C254  1  0.99880000  0.56020000  0.19740000  1
  C  C255  1  0.99880000  0.93980000  0.69740000  1
  N  N256  1  0.16950000  0.03510000  0.30670000  1
  N  N257  1  0.16950000  0.46490000  0.80670000  1
  N  N258  1  0.17200000  0.00050000  0.09980000  1
  N  N259  1  0.17200000  0.49950000  0.59980000  1
  N  N260  1  0.20340000  0.60900000  0.39980000  1
  N  N261  1  0.20340000  0.89100000  0.89980000  1
  N  N262  1  0.29660000  0.10900000  0.39980000  1
  N  N263  1  0.29660000  0.39100000  0.89980000  1
  N  N264  1  0.32800000  0.50050000  0.09980000  1
  N  N265  1  0.32800000  0.99950000  0.59980000  1
  N  N266  1  0.33050000  0.53510000  0.30670000  1
  N  N267  1  0.33050000  0.96490000  0.80670000  1
  N  N268  1  0.66950000  0.03510000  0.19330000  1
  N  N269  1  0.66950000  0.46490000  0.69330000  1
  N  N270  1  0.67200000  0.00050000  0.40020000  1
  N  N271  1  0.67200000  0.49950000  0.90020000  1
  N  N272  1  0.70340000  0.60900000  0.10020000  1
  N  N273  1  0.70340000  0.89100000  0.60020000  1
  N  N274  1  0.79660000  0.10900000  0.10020000  1
  N  N275  1  0.79660000  0.39100000  0.60020000  1
  N  N276  1  0.82800000  0.50050000  0.40020000  1
  N  N277  1  0.82800000  0.99950000  0.90020000  1
  N  N278  1  0.83050000  0.53510000  0.19330000  1
  N  N279  1  0.83050000  0.96490000  0.69330000  1
  O  O280  1  0.09580000  0.62100000  0.13510000  1
  O  O281  1  0.09580000  0.87900000  0.63510000  1
  O  O282  1  0.10070000  0.50330000  0.30680000  1
  O  O283  1  0.10070000  0.99670000  0.80680000  1
  O  O284  1  0.12930000  0.64400000  0.27470000  1
  O  O285  1  0.12930000  0.85600000  0.77470000  1
  O  O286  1  0.15830000  0.51580000  0.18370000  1
  O  O287  1  0.15830000  0.98420000  0.68370000  1
  O  O288  1  0.15880000  0.57380000  0.91440000  1
  O  O289  1  0.15880000  0.92620000  0.41440000  1
  O  O290  1  0.19000000  0.68090000  0.04490000  1
  O  O291  1  0.19000000  0.81910000  0.54490000  1
  O  O292  1  0.19940000  0.11950000  0.99520000  1
  O  O293  1  0.19940000  0.38050000  0.49520000  1
  O  O294  1  0.21400000  0.11610000  0.87100000  1
  O  O295  1  0.21400000  0.38390000  0.37100000  1
  O  O296  1  0.28600000  0.61610000  0.87100000  1
  O  O297  1  0.28600000  0.88390000  0.37100000  1
  O  O298  1  0.30060000  0.61950000  0.99520000  1
  O  O299  1  0.30060000  0.88050000  0.49520000  1
  O  O300  1  0.31000000  0.18090000  0.04490000  1
  O  O301  1  0.31000000  0.31910000  0.54490000  1
  O  O302  1  0.34120000  0.07380000  0.91440000  1
  O  O303  1  0.34120000  0.42620000  0.41440000  1
  O  O304  1  0.34170000  0.01580000  0.18370000  1
  O  O305  1  0.34170000  0.48420000  0.68370000  1
  O  O306  1  0.37070000  0.14400000  0.27470000  1
  O  O307  1  0.37070000  0.35600000  0.77470000  1
  O  O308  1  0.39930000  0.00330000  0.30680000  1
  O  O309  1  0.39930000  0.49670000  0.80680000  1
  O  O310  1  0.40420000  0.12100000  0.13510000  1
  O  O311  1  0.40420000  0.37900000  0.63510000  1
  O  O312  1  0.59580000  0.62100000  0.36490000  1
  O  O313  1  0.59580000  0.87900000  0.86490000  1
  O  O314  1  0.60070000  0.50330000  0.19320000  1
  O  O315  1  0.60070000  0.99670000  0.69320000  1
  O  O316  1  0.62930000  0.64400000  0.22530000  1
  O  O317  1  0.62930000  0.85600000  0.72530000  1
  O  O318  1  0.65830000  0.51580000  0.31630000  1
  O  O319  1  0.65830000  0.98420000  0.81630000  1
  O  O320  1  0.65880000  0.57380000  0.58560000  1
  O  O321  1  0.65880000  0.92620000  0.08560000  1
  O  O322  1  0.69000000  0.68090000  0.45510000  1
  O  O323  1  0.69000000  0.81910000  0.95510000  1
  O  O324  1  0.69940000  0.11950000  0.50480000  1
  O  O325  1  0.69940000  0.38050000  0.00480000  1
  O  O326  1  0.71400000  0.11610000  0.62900000  1
  O  O327  1  0.71400000  0.38390000  0.12900000  1
  O  O328  1  0.78600000  0.61610000  0.62900000  1
  O  O329  1  0.78600000  0.88390000  0.12900000  1
  O  O330  1  0.80060000  0.61950000  0.50480000  1
  O  O331  1  0.80060000  0.88050000  0.00480000  1
  O  O332  1  0.81000000  0.18090000  0.45510000  1
  O  O333  1  0.81000000  0.31910000  0.95510000  1
  O  O334  1  0.84120000  0.07380000  0.58560000  1
  O  O335  1  0.84120000  0.42620000  0.08560000  1
  O  O336  1  0.84170000  0.01580000  0.31630000  1
  O  O337  1  0.84170000  0.48420000  0.81630000  1
  O  O338  1  0.87070000  0.14400000  0.22530000  1
  O  O339  1  0.87070000  0.35600000  0.72530000  1
  O  O340  1  0.89930000  0.00330000  0.19320000  1
  O  O341  1  0.89930000  0.49670000  0.69320000  1
  O  O342  1  0.90420000  0.12100000  0.36490000  1
  O  O343  1  0.90420000  0.37900000  0.86490000  1
