# generated using pymatgen
data_TbH15(C9O2)3
_symmetry_space_group_name_H-M   'P 1'
_cell_length_a   12.21480000
_cell_length_b   16.97000000
_cell_length_c   16.97008607
_cell_angle_alpha   114.43452213
_cell_angle_beta   103.88272877
_cell_angle_gamma   103.88200000
_symmetry_Int_Tables_number   1
_chemical_formula_structural   TbH15(C9O2)3
_chemical_formula_sum   'Tb3 H45 C81 O18'
_cell_volume   2870.99972974
_cell_formula_units_Z   3
loop_
 _symmetry_equiv_pos_site_id
 _symmetry_equiv_pos_as_xyz
  1  'x, y, z'
loop_
 _atom_site_type_symbol
 _atom_site_label
 _atom_site_symmetry_multiplicity
 _atom_site_fract_x
 _atom_site_fract_y
 _atom_site_fract_z
 _atom_site_occupancy
  Tb  Tb0  1  0.32249000  0.64498000  0.32249000  1
  Tb  Tb1  1  0.67751000  0.67751000  0.35502000  1
  Tb  Tb2  1  0.00000000  0.67751000  0.32249000  1
  H  H3  1  0.54730000  0.33920000  0.48310000  1
  H  H4  1  0.80400000  0.23700000  0.71590000  1
  H  H5  1  0.15640000  0.59180000  0.01730000  1
  H  H6  1  0.47960000  0.94630000  0.33910000  1
  H  H7  1  0.56950000  0.10550000  0.42440000  1
  H  H8  1  0.56460000  0.42550000  0.40820000  1
  H  H9  1  0.71260000  0.92840000  0.53580000  1
  H  H10  1  0.80200000  0.08780000  0.62240000  1
  H  H11  1  0.91190000  0.47890000  0.71590000  1
  H  H12  1  0.82040000  0.53460000  0.62240000  1
  H  H13  1  0.06420000  0.51690000  0.85610000  1
  H  H14  1  0.28740000  0.46420000  0.07160000  1
  H  H15  1  0.73655000  0.23655000  0.47310000  1
  H  H16  1  0.19800000  0.37760000  0.91220000  1
  H  H17  1  0.82320000  0.60740000  0.53580000  1
  H  H18  1  0.85490000  0.31890000  0.42440000  1
  H  H19  1  0.19600000  0.28410000  0.76300000  1
  H  H20  1  0.84360000  0.98270000  0.40820000  1
  H  H21  1  0.93580000  0.14390000  0.48310000  1
  H  H22  1  0.14510000  0.57560000  0.68110000  1
  H  H23  1  0.52040000  0.66090000  0.05370000  1
  H  H24  1  0.53330000  0.39280000  0.05370000  1
  H  H25  1  0.26345000  0.52690000  0.76345000  1
  H  H26  1  0.85950000  0.39280000  0.33910000  1
  H  H27  1  0.14050000  0.66090000  0.60720000  1
  H  H28  1  0.43050000  0.57560000  0.89450000  1
  H  H29  1  0.20810000  0.14390000  0.66080000  1
  H  H30  1  0.13910000  0.98270000  0.57450000  1
  H  H31  1  0.08810000  0.28410000  0.52110000  1
  H  H32  1  0.46400000  0.31890000  0.89450000  1
  H  H33  1  0.78420000  0.60740000  0.07160000  1
  H  H34  1  0.17960000  0.37760000  0.46540000  1
  H  H35  1  0.50000000  0.23655000  0.76345000  1
  H  H36  1  0.17680000  0.46420000  0.39260000  1
  H  H37  1  0.45270000  0.51690000  0.66080000  1
  H  H38  1  0.71420000  0.53460000  0.91220000  1
  H  H39  1  0.56700000  0.47890000  0.76300000  1
  H  H40  1  0.28580000  0.08780000  0.46540000  1
  H  H41  1  0.21580000  0.92840000  0.39260000  1
  H  H42  1  0.86090000  0.42550000  0.01730000  1
  H  H43  1  0.53600000  0.10550000  0.68110000  1
  H  H44  1  0.46670000  0.94630000  0.60720000  1
  H  H45  1  0.43540000  0.59180000  0.57450000  1
  H  H46  1  0.43300000  0.23700000  0.52110000  1
  H  H47  1  0.79190000  0.33920000  0.85610000  1
  C  C48  1  0.50000000  0.51671000  0.48329000  1
  C  C49  1  0.53012000  0.39302000  0.50404000  1
  C  C50  1  0.50000000  0.57014000  0.42986000  1
  C  C51  1  0.92038000  0.42038000  0.84076000  1
  C  C52  1  0.53651000  0.44219000  0.45664000  1
  C  C53  1  0.07987000  0.54336000  0.98555000  1
  C  C54  1  0.80965000  0.26956000  0.68349000  1
  C  C55  1  0.86703000  0.36703000  0.73406000  1
  C  C56  1  0.02608000  0.49596000  0.88898000  1
  C  C57  1  0.51788000  0.81733000  0.37681000  1
  C  C58  1  0.54480000  0.97479000  0.39611000  1
  C  C59  1  0.59878000  0.07002000  0.44692000  1
  C  C60  1  0.58481000  0.91991000  0.42762000  1
  C  C61  1  0.69987000  0.11609000  0.53432000  1
  C  C62  1  0.68361000  0.96417000  0.51356000  1
  C  C63  1  0.73761000  0.05979000  0.56494000  1
  C  C64  1  0.76102000  0.21969000  0.58657000  1
  C  C65  1  0.87384000  0.41393000  0.68349000  1
  C  C66  1  0.76913000  0.26913000  0.53826000  1
  C  C67  1  0.82555000  0.36688000  0.58657000  1
  C  C68  1  0.82733000  0.50515000  0.56494000  1
  C  C69  1  0.31639000  0.48644000  0.03583000  1
  C  C70  1  0.48212000  0.62319000  0.18267000  1
  C  C71  1  0.83445000  0.41823000  0.53432000  1
  C  C72  1  0.82995000  0.54939000  0.51356000  1
  C  C73  1  0.26239000  0.43506000  0.94021000  1
  C  C74  1  0.41519000  0.57238000  0.08009000  1
  C  C75  1  0.84814000  0.37690000  0.44692000  1
  C  C76  1  0.84281000  0.50771000  0.42762000  1
  C  C77  1  0.30013000  0.46568000  0.88391000  1
  C  C78  1  0.45520000  0.60389000  0.02521000  1
  C  C79  1  0.85131000  0.42132000  0.39611000  1
  C  C80  1  0.23898000  0.41343000  0.78031000  1
  C  C81  1  0.19035000  0.31651000  0.73044000  1
  C  C82  1  0.92013000  0.01445000  0.45664000  1
  C  C83  1  0.97392000  0.11102000  0.50404000  1
  C  C84  1  0.40122000  0.55308000  0.92998000  1
  C  C85  1  0.85893000  0.55948000  0.37681000  1
  C  C86  1  0.92986000  0.85972000  0.42986000  1
  C  C87  1  0.98329000  0.96658000  0.48329000  1
  C  C88  1  0.07962000  0.15924000  0.57962000  1
  C  C89  1  0.13297000  0.26594000  0.63297000  1
  C  C90  1  0.23087000  0.46174000  0.73087000  1
  C  C91  1  0.70055000  0.55948000  0.18267000  1
  C  C92  1  0.15186000  0.55308000  0.62310000  1
  C  C93  1  0.13710000  0.11102000  0.60698000  1
  C  C94  1  0.09432000  0.01445000  0.55781000  1
  C  C95  1  0.12616000  0.31651000  0.58607000  1
  C  C96  1  0.17445000  0.41343000  0.63312000  1
  C  C97  1  0.57001000  0.42132000  0.02521000  1
  C  C98  1  0.14869000  0.60389000  0.57868000  1
  C  C99  1  0.16555000  0.46568000  0.58177000  1
  C  C100  1  0.66490000  0.50771000  0.08009000  1
  C  C101  1  0.52876000  0.37690000  0.92998000  1
  C  C102  1  0.15719000  0.57238000  0.49229000  1
  C  C103  1  0.17267000  0.43506000  0.49485000  1
  C  C104  1  0.71944000  0.54939000  0.03583000  1
  C  C105  1  0.58378000  0.41823000  0.88391000  1
  C  C106  1  0.14107000  0.62319000  0.44052000  1
  C  C107  1  0.17005000  0.48644000  0.45061000  1
  C  C108  1  0.67782000  0.50515000  0.94021000  1
  C  C109  1  0.54133000  0.36688000  0.78031000  1
  C  C110  1  0.50000000  0.26913000  0.73087000  1
  C  C111  1  0.54009000  0.41393000  0.73044000  1
  C  C112  1  0.45867000  0.21969000  0.63312000  1
  C  C113  1  0.32218000  0.05979000  0.49485000  1
  C  C114  1  0.28056000  0.96417000  0.45061000  1
  C  C115  1  0.41622000  0.11609000  0.58177000  1
  C  C116  1  0.33510000  0.91991000  0.49229000  1
  C  C117  1  0.47124000  0.07002000  0.62310000  1
  C  C118  1  0.42999000  0.97479000  0.57868000  1
  C  C119  1  0.29945000  0.81733000  0.44052000  1
  C  C120  1  0.46988000  0.49596000  0.60698000  1
  C  C121  1  0.50000000  0.36703000  0.63297000  1
  C  C122  1  0.45991000  0.26956000  0.58607000  1
  C  C123  1  0.46349000  0.54336000  0.55781000  1
  C  C124  1  0.90568000  0.44219000  0.98555000  1
  C  C125  1  0.50000000  0.42038000  0.57962000  1
  C  C126  1  0.07014000  0.57014000  0.14028000  1
  C  C127  1  0.86290000  0.39302000  0.88898000  1
  C  C128  1  0.01671000  0.51671000  0.03342000  1
  O  O129  1  0.18344000  0.61140000  0.18070000  1
  O  O130  1  0.41589000  0.78058000  0.31129000  1
  O  O131  1  0.56031000  0.76684000  0.40483000  1
  O  O132  1  0.57204000  0.56930000  0.38860000  1
  O  O133  1  0.43969000  0.59517000  0.23316000  1
  O  O134  1  0.58411000  0.68871000  0.21942000  1
  O  O135  1  0.63531000  0.53071000  0.21942000  1
  O  O136  1  0.81656000  0.81930000  0.38860000  1
  O  O137  1  0.84452000  0.63799000  0.40483000  1
  O  O138  1  0.79347000  0.63799000  0.23316000  1
  O  O139  1  0.00274000  0.81930000  0.43070000  1
  O  O140  1  0.89540000  0.53071000  0.31129000  1
  O  O141  1  0.10460000  0.68871000  0.46929000  1
  O  O142  1  0.15548000  0.59517000  0.36201000  1
  O  O143  1  0.99726000  0.56930000  0.18070000  1
  O  O144  1  0.20653000  0.76684000  0.36201000  1
  O  O145  1  0.36469000  0.78058000  0.46929000  1
  O  O146  1  0.42796000  0.61140000  0.43070000  1
