# generated using pymatgen
data_Cu2H16C24S(N3O2)2
_symmetry_space_group_name_H-M   'P 1'
_cell_length_a   12.35880000
_cell_length_b   15.50110000
_cell_length_c   19.81071089
_cell_angle_alpha   113.03107280
_cell_angle_beta   108.17510784
_cell_angle_gamma   90.00000000
_symmetry_Int_Tables_number   1
_chemical_formula_structural   Cu2H16C24S(N3O2)2
_chemical_formula_sum   'Cu8 H64 C96 S4 N24 O16'
_cell_volume   3285.99009625
_cell_formula_units_Z   4
loop_
 _symmetry_equiv_pos_site_id
 _symmetry_equiv_pos_as_xyz
  1  'x, y, z'
loop_
 _atom_site_type_symbol
 _atom_site_label
 _atom_site_symmetry_multiplicity
 _atom_site_fract_x
 _atom_site_fract_y
 _atom_site_fract_z
 _atom_site_occupancy
  C  C0  1  0.90820000  0.26110000  0.75860000  1
  C  C1  1  0.64960000  0.23890000  0.24140000  1
  C  C2  1  0.64210000  0.73770000  0.22500000  1
  C  C3  1  0.91710000  0.76230000  0.77500000  1
  C  C4  1  0.63940000  0.65250000  0.16300000  1
  C  C5  1  0.97640000  0.84750000  0.83700000  1
  C  C6  1  0.97640000  0.25310000  0.82600000  1
  C  C7  1  0.65040000  0.24690000  0.17400000  1
  C  C8  1  0.94060000  0.23460000  0.69360000  1
  C  C9  1  0.74700000  0.26540000  0.30640000  1
  C  C10  1  0.74440000  0.78090000  0.28740000  1
  C  C11  1  0.95700000  0.71910000  0.71260000  1
  C  C12  1  0.74140000  0.61220000  0.16040000  1
  C  C13  1  0.08100000  0.88780000  0.83960000  1
  C  C14  1  0.47980000  0.49880000  0.63440000  1
  C  C15  1  0.34540000  0.00120000  0.36560000  1
  C  C16  1  0.08170000  0.21970000  0.82820000  1
  C  C17  1  0.75350000  0.28030000  0.17180000  1
  C  C18  1  0.48100000  0.34940000  0.61320000  1
  C  C19  1  0.36780000  0.15060000  0.38680000  1
  C  C20  1  0.38020000  0.63160000  0.39540000  1
  C  C21  1  0.48480000  0.86840000  0.60460000  1
  C  C22  1  0.98030000  0.96263333  0.59200000  1
  C  C23  1  0.88830000  0.53740000  0.40800000  1
  C  C24  1  0.51791667  0.60161667  0.66663333  1
  C  C25  1  0.35128333  0.89838333  0.33336667  1
  C  C26  1  0.39040000  0.49870000  0.40880000  1
  C  C27  1  0.48160000  0.00130000  0.59120000  1
  C  C28  1  0.98690000  0.87400000  0.59760000  1
  C  C29  1  0.88930000  0.62600000  0.40240000  1
  C  C30  1  0.14300000  0.97860000  0.90160000  1
  C  C31  1  0.74140000  0.52140000  0.09840000  1
  C  C32  1  0.04630000  0.20250000  0.69760000  1
  C  C33  1  0.84870000  0.29750000  0.30240000  1
  C  C34  1  0.15030000  0.20190000  0.89660000  1
  C  C35  1  0.75370000  0.29810000  0.10340000  1
  C  C36  1  0.84400000  0.73980000  0.28340000  1
  C  C37  1  0.06060000  0.76020000  0.71660000  1
  C  C38  1  0.52090000  0.79450000  0.63280000  1
  C  C39  1  0.38810000  0.70550000  0.36720000  1
  C  C40  1  0.40460000  0.24030000  0.38780000  1
  C  C41  1  0.51680000  0.25970000  0.61220000  1
  C  C42  1  0.41690000  0.40340000  0.39920000  1
  C  C43  1  0.51770000  0.09660000  0.60080000  1
  C  C44  1  0.84140000  0.65730000  0.22160000  1
  C  C45  1  0.11980000  0.84270000  0.77840000  1
  C  C46  1  0.11650000  0.19390000  0.76320000  1
  C  C47  1  0.85330000  0.30610000  0.23680000  1
  C  C48  1  0.38350000  0.43070000  0.23680000  1
  C  C49  1  0.64670000  0.06930000  0.76320000  1
  C  C50  1  0.65860000  0.43570000  0.77840000  1
  C  C51  1  0.38020000  0.06430000  0.22160000  1
  C  C52  1  0.08310000  0.00420000  0.60080000  1
  C  C53  1  0.98230000  0.49580000  0.39920000  1
  C  C54  1  0.09540000  0.85250000  0.61220000  1
  C  C55  1  0.98320000  0.64750000  0.38780000  1
  C  C56  1  0.97910000  0.16170000  0.36720000  1
  C  C57  1  0.11190000  0.33830000  0.63280000  1
  C  C58  1  0.65600000  0.45640000  0.71660000  1
  C  C59  1  0.43940000  0.04360000  0.28340000  1
  C  C60  1  0.34970000  0.30530000  0.10340000  1
  C  C61  1  0.74630000  0.19470000  0.89660000  1
  C  C62  1  0.45370000  0.50490000  0.30240000  1
  C  C63  1  0.65130000  0.99510000  0.69760000  1
  C  C64  1  0.35700000  0.07700000  0.09840000  1
  C  C65  1  0.75860000  0.42300000  0.90160000  1
  C  C66  1  0.51310000  0.27640000  0.40240000  1
  C  C67  1  0.61070000  0.22360000  0.59760000  1
  C  C68  1  0.10960000  0.08990000  0.59120000  1
  C  C69  1  0.01840000  0.41010000  0.40880000  1
  C  C70  1  0.98208333  0.93498333  0.33336667  1
  C  C71  1  0.14871667  0.56501667  0.66663333  1
  C  C72  1  0.51970000  0.37063333  0.40800000  1
  C  C73  1  0.61170000  0.12940000  0.59200000  1
  C  C74  1  0.11980000  0.23620000  0.60460000  1
  C  C75  1  0.01520000  0.26380000  0.39540000  1
  C  C76  1  0.01900000  0.73620000  0.38680000  1
  C  C77  1  0.13220000  0.76380000  0.61320000  1
  C  C78  1  0.41830000  0.39150000  0.17180000  1
  C  C79  1  0.74650000  0.10850000  0.82820000  1
  C  C80  1  0.02020000  0.86440000  0.36560000  1
  C  C81  1  0.15460000  0.63560000  0.63440000  1
  C  C82  1  0.75860000  0.45180000  0.83960000  1
  C  C83  1  0.41900000  0.04820000  0.16040000  1
  C  C84  1  0.75560000  0.49350000  0.71260000  1
  C  C85  1  0.54300000  0.00650000  0.28740000  1
  C  C86  1  0.55940000  0.54100000  0.30640000  1
  C  C87  1  0.75300000  0.95900000  0.69360000  1
  C  C88  1  0.52360000  0.42710000  0.17400000  1
  C  C89  1  0.84960000  0.07290000  0.82600000  1
  C  C90  1  0.86060000  0.48950000  0.83700000  1
  C  C91  1  0.52360000  0.01050000  0.16300000  1
  C  C92  1  0.85790000  0.51270000  0.77500000  1
  C  C93  1  0.58290000  0.98730000  0.22500000  1
  C  C94  1  0.59180000  0.50250000  0.24140000  1
  C  C95  1  0.85040000  0.99750000  0.75860000  1
  Cu  Cu96  1  0.26001000  0.51001000  0.52002000  1
  Cu  Cu97  1  0.23999000  0.98999000  0.47998000  1
  Cu  Cu98  1  0.25537000  0.75000000  0.50000000  1
  Cu  Cu99  1  0.16379000  0.15599000  0.02740000  1
  Cu  Cu100  1  0.63639000  0.34401000  0.97260000  1
  Cu  Cu101  1  0.33621000  0.12859000  0.97260000  1
  Cu  Cu102  1  0.86361000  0.37141000  0.02740000  1
  Cu  Cu103  1  0.24463000  0.25000000  0.50000000  1
  H  H104  1  0.56860000  0.62160000  0.12260000  1
  H  H105  1  0.94600000  0.87840000  0.87740000  1
  H  H106  1  0.95150000  0.27000000  0.86960000  1
  H  H107  1  0.58190000  0.23000000  0.13040000  1
  H  H108  1  0.65070000  0.95850000  0.22480000  1
  H  H109  1  0.92590000  0.54150000  0.77520000  1
  H  H110  1  0.92000000  0.97190000  0.75760000  1
  H  H111  1  0.66240000  0.52810000  0.24240000  1
  H  H112  1  0.89190000  0.23800000  0.64720000  1
  H  H113  1  0.74470000  0.26200000  0.35280000  1
  H  H114  1  0.74620000  0.83660000  0.33120000  1
  H  H115  1  0.91500000  0.66340000  0.66880000  1
  H  H116  1  0.91120000  0.98980000  0.58320000  1
  H  H117  1  0.82800000  0.51020000  0.41680000  1
  H  H118  1  0.45100000  0.63430000  0.65620000  1
  H  H119  1  0.29480000  0.86570000  0.34380000  1
  H  H120  1  0.92270000  0.83450000  0.59160000  1
  H  H121  1  0.83110000  0.66550000  0.40840000  1
  H  H122  1  0.46210000  0.73860000  0.60340000  1
  H  H123  1  0.35870000  0.76140000  0.39660000  1
  H  H124  1  0.53060000  0.81850000  0.68840000  1
  H  H125  1  0.34220000  0.68150000  0.31160000  1
  H  H126  1  0.31220000  0.40660000  0.23600000  1
  H  H127  1  0.57620000  0.09340000  0.76400000  1
  H  H128  1  0.55750000  0.62560000  0.72320000  1
  H  H129  1  0.33430000  0.87440000  0.27680000  1
  H  H130  1  0.58940000  0.40950000  0.77880000  1
  H  H131  1  0.31060000  0.09050000  0.22120000  1
  H  H132  1  0.90600000  0.15200000  0.37460000  1
  H  H133  1  0.03140000  0.34800000  0.62540000  1
  H  H134  1  0.57080000  0.61320000  0.64220000  1
  H  H135  1  0.42860000  0.88680000  0.35780000  1
  H  H136  1  0.92920000  0.97100000  0.35780000  1
  H  H137  1  0.07140000  0.52900000  0.64220000  1
  H  H138  1  0.59400000  0.77740000  0.62540000  1
  H  H139  1  0.46860000  0.72260000  0.37460000  1
  H  H140  1  0.91060000  0.63070000  0.22120000  1
  H  H141  1  0.18940000  0.86930000  0.77880000  1
  H  H142  1  0.94250000  0.90240000  0.27680000  1
  H  H143  1  0.16570000  0.59760000  0.72320000  1
  H  H144  1  0.18780000  0.17060000  0.76400000  1
  H  H145  1  0.92380000  0.32940000  0.23600000  1
  H  H146  1  0.96940000  0.13010000  0.31160000  1
  H  H147  1  0.15780000  0.36990000  0.68840000  1
  H  H148  1  0.03790000  0.13520000  0.39660000  1
  H  H149  1  0.14130000  0.36480000  0.60340000  1
  H  H150  1  0.57730000  0.24290000  0.40840000  1
  H  H151  1  0.66890000  0.25710000  0.59160000  1
  H  H152  1  0.04900000  0.97810000  0.34380000  1
  H  H153  1  0.20520000  0.52190000  0.65620000  1
  H  H154  1  0.58880000  0.40660000  0.41680000  1
  H  H155  1  0.67200000  0.09340000  0.58320000  1
  H  H156  1  0.75380000  0.50540000  0.66880000  1
  H  H157  1  0.58500000  0.99460000  0.33120000  1
  H  H158  1  0.60810000  0.59080000  0.35280000  1
  H  H159  1  0.75530000  0.90920000  0.64720000  1
  H  H160  1  0.58000000  0.21430000  0.24240000  1
  H  H161  1  0.83760000  0.28570000  0.75760000  1
  H  H162  1  0.84930000  0.73370000  0.77520000  1
  H  H163  1  0.57410000  0.76630000  0.22480000  1
  H  H164  1  0.54850000  0.40040000  0.13040000  1
  H  H165  1  0.91810000  0.09960000  0.86960000  1
  H  H166  1  0.93140000  0.49900000  0.87740000  1
  H  H167  1  0.55400000  0.00100000  0.12260000  1
  N  N168  1  0.37890000  0.45410000  0.58460000  1
  N  N169  1  0.29430000  0.04590000  0.41540000  1
  N  N170  1  0.37780000  0.35870000  0.57180000  1
  N  N171  1  0.30600000  0.14130000  0.42820000  1
  N  N172  1  0.33310000  0.63720000  0.44880000  1
  N  N173  1  0.38430000  0.86280000  0.55120000  1
  N  N174  1  0.33830000  0.55120000  0.45640000  1
  N  N175  1  0.38190000  0.94880000  0.54360000  1
  N  N176  1  0.54740000  0.43580000  0.65400000  1
  N  N177  1  0.39340000  0.06420000  0.34600000  1
  N  N178  1  0.41604000  0.54604000  0.36888000  1
  N  N179  1  0.54716000  0.95396000  0.63112000  1
  N  N180  1  0.08396000  0.17716000  0.63112000  1
  N  N181  1  0.95284000  0.32284000  0.36888000  1
  N  N182  1  0.95260000  0.78180000  0.34600000  1
  N  N183  1  0.10660000  0.71820000  0.65400000  1
  N  N184  1  0.16170000  0.09480000  0.54360000  1
  N  N185  1  0.11810000  0.40520000  0.45640000  1
  N  N186  1  0.16690000  0.18840000  0.55120000  1
  N  N187  1  0.11570000  0.31160000  0.44880000  1
  N  N188  1  0.12220000  0.78690000  0.42820000  1
  N  N189  1  0.19400000  0.71310000  0.57180000  1
  N  N190  1  0.12110000  0.86950000  0.41540000  1
  N  N191  1  0.20570000  0.63050000  0.58460000  1
  O  O192  1  0.09293000  0.02953000  0.94826000  1
  O  O193  1  0.64467000  0.47047000  0.05174000  1
  O  O194  1  0.10694000  0.20644000  0.94728000  1
  O  O195  1  0.65966000  0.29356000  0.05272000  1
  O  O196  1  0.24980000  0.28120000  0.10200000  1
  O  O197  1  0.64780000  0.21880000  0.89800000  1
  O  O198  1  0.25760000  0.10090000  0.09580000  1
  O  O199  1  0.66180000  0.39910000  0.90420000  1
  O  O200  1  0.24240000  0.00510000  0.90420000  1
  O  O201  1  0.83820000  0.49490000  0.09580000  1
  O  O202  1  0.25020000  0.17920000  0.89800000  1
  O  O203  1  0.85220000  0.32080000  0.10200000  1
  O  O204  1  0.39306000  0.25916000  0.05272000  1
  O  O205  1  0.84034000  0.24084000  0.94728000  1
  O  O206  1  0.40707000  0.08127000  0.05174000  1
  O  O207  1  0.85533000  0.41873000  0.94826000  1
  S  S208  1  0.31018000  0.31930000  0.38134000  1
  S  S209  1  0.42884000  0.18070000  0.61866000  1
  S  S210  1  0.18982000  0.93796000  0.61866000  1
  S  S211  1  0.07116000  0.56204000  0.38134000  1
