# generated using pymatgen
data_AgH4C6NO2
_symmetry_space_group_name_H-M   'P 1'
_cell_length_a   7.23500000
_cell_length_b   19.66365712
_cell_length_c   19.66365712
_cell_angle_alpha   74.15781025
_cell_angle_beta   79.39898110
_cell_angle_gamma   79.39898110
_symmetry_Int_Tables_number   1
_chemical_formula_structural   AgH4C6NO2
_chemical_formula_sum   'Ag16 H64 C96 N16 O32'
_cell_volume   2618.69678253
_cell_formula_units_Z   16
loop_
 _symmetry_equiv_pos_site_id
 _symmetry_equiv_pos_as_xyz
  1  'x, y, z'
loop_
 _atom_site_type_symbol
 _atom_site_label
 _atom_site_symmetry_multiplicity
 _atom_site_fract_x
 _atom_site_fract_y
 _atom_site_fract_z
 _atom_site_occupancy
  Ag  Ag0  1  0.50753000  0.57391000  0.45823000  1
  Ag  Ag1  1  0.00753000  0.45823000  0.57391000  1
  Ag  Ag2  1  0.53967000  0.04177000  0.92609000  1
  Ag  Ag3  1  0.03967000  0.92609000  0.04177000  1
  Ag  Ag4  1  0.98577000  0.43934000  0.97946000  1
  Ag  Ag5  1  0.48577000  0.97946000  0.43934000  1
  Ag  Ag6  1  0.40457000  0.52054000  0.06066000  1
  Ag  Ag7  1  0.90457000  0.06066000  0.52054000  1
  Ag  Ag8  1  0.51423000  0.02054000  0.56066000  1
  Ag  Ag9  1  0.01423000  0.56066000  0.02054000  1
  Ag  Ag10  1  0.09543000  0.93934000  0.47946000  1
  Ag  Ag11  1  0.59543000  0.47946000  0.93934000  1
  Ag  Ag12  1  0.99247000  0.54177000  0.42609000  1
  Ag  Ag13  1  0.49247000  0.42609000  0.54177000  1
  Ag  Ag14  1  0.96033000  0.07391000  0.95823000  1
  Ag  Ag15  1  0.46033000  0.95823000  0.07391000  1
  C  C16  1  0.85905000  0.28601000  0.00249000  1
  C  C17  1  0.35905000  0.00249000  0.28601000  1
  C  C18  1  0.14755000  0.49751000  0.21399000  1
  C  C19  1  0.64755000  0.21399000  0.49751000  1
  C  C20  1  0.15051000  0.96378000  0.74940000  1
  C  C21  1  0.65051000  0.74940000  0.96378000  1
  C  C22  1  0.86369000  0.75060000  0.53622000  1
  C  C23  1  0.36369000  0.53622000  0.75060000  1
  C  C24  1  0.21243000  0.92680000  0.69734000  1
  C  C25  1  0.71243000  0.69734000  0.92680000  1
  C  C26  1  0.83657000  0.80266000  0.57320000  1
  C  C27  1  0.33657000  0.57320000  0.80266000  1
  C  C28  1  0.43180000  0.71930000  0.49570000  1
  C  C29  1  0.93180000  0.49570000  0.71930000  1
  C  C30  1  0.64680000  0.00430000  0.78070000  1
  C  C31  1  0.14680000  0.78070000  0.00430000  1
  C  C32  1  0.77845000  0.45405000  0.12665000  1
  C  C33  1  0.27845000  0.12665000  0.45405000  1
  C  C34  1  0.35915000  0.37335000  0.04595000  1
  C  C35  1  0.85915000  0.04595000  0.37335000  1
  C  C36  1  0.14740000  0.97950000  0.87150000  1
  C  C37  1  0.64740000  0.87150000  0.97950000  1
  C  C38  1  0.99840000  0.62850000  0.52050000  1
  C  C39  1  0.49840000  0.52050000  0.62850000  1
  C  C40  1  0.21906000  0.94095000  0.81433000  1
  C  C41  1  0.71906000  0.81433000  0.94095000  1
  C  C42  1  0.97434000  0.68567000  0.55905000  1
  C  C43  1  0.47434000  0.55905000  0.68567000  1
  C  C44  1  0.06104000  0.23866000  0.89546000  1
  C  C45  1  0.56104000  0.89546000  0.23866000  1
  C  C46  1  0.19516000  0.60454000  0.26134000  1
  C  C47  1  0.69516000  0.26134000  0.60454000  1
  C  C48  1  0.34325000  0.86625000  0.71065000  1
  C  C49  1  0.84325000  0.71065000  0.86625000  1
  C  C50  1  0.92015000  0.78935000  0.63375000  1
  C  C51  1  0.42015000  0.63375000  0.78935000  1
  C  C52  1  0.06816000  0.30514000  0.90134000  1
  C  C53  1  0.56816000  0.90134000  0.30514000  1
  C  C54  1  0.27464000  0.59866000  0.19486000  1
  C  C55  1  0.77464000  0.19486000  0.59866000  1
  C  C56  1  0.35258000  0.88062000  0.82562000  1
  C  C57  1  0.85258000  0.82562000  0.88062000  1
  C  C58  1  0.05882000  0.67438000  0.61938000  1
  C  C59  1  0.55882000  0.61938000  0.67438000  1
  C  C60  1  0.41353000  0.84337000  0.77497000  1
  C  C61  1  0.91353000  0.77497000  0.84337000  1
  C  C62  1  0.03187000  0.72503000  0.65663000  1
  C  C63  1  0.53187000  0.65663000  0.72503000  1
  C  C64  1  0.08647000  0.22503000  0.15663000  1
  C  C65  1  0.58647000  0.15663000  0.22503000  1
  C  C66  1  0.46813000  0.34337000  0.27497000  1
  C  C67  1  0.96813000  0.27497000  0.34337000  1
  C  C68  1  0.14742000  0.17438000  0.11938000  1
  C  C69  1  0.64742000  0.11938000  0.17438000  1
  C  C70  1  0.44118000  0.38062000  0.32562000  1
  C  C71  1  0.94118000  0.32562000  0.38062000  1
  C  C72  1  0.43184000  0.09866000  0.69486000  1
  C  C73  1  0.93184000  0.69486000  0.09866000  1
  C  C74  1  0.22536000  0.80514000  0.40134000  1
  C  C75  1  0.72536000  0.40134000  0.80514000  1
  C  C76  1  0.15675000  0.28935000  0.13375000  1
  C  C77  1  0.65675000  0.13375000  0.28935000  1
  C  C78  1  0.57985000  0.36625000  0.21065000  1
  C  C79  1  0.07985000  0.21065000  0.36625000  1
  C  C80  1  0.43896000  0.10454000  0.76134000  1
  C  C81  1  0.93896000  0.76134000  0.10454000  1
  C  C82  1  0.30484000  0.73866000  0.39546000  1
  C  C83  1  0.80484000  0.39546000  0.73866000  1
  C  C84  1  0.28094000  0.18567000  0.05905000  1
  C  C85  1  0.78094000  0.05905000  0.18567000  1
  C  C86  1  0.52566000  0.44095000  0.31433000  1
  C  C87  1  0.02566000  0.31433000  0.44095000  1
  C  C88  1  0.35260000  0.12850000  0.02050000  1
  C  C89  1  0.85260000  0.02050000  0.12850000  1
  C  C90  1  0.50160000  0.47950000  0.37150000  1
  C  C91  1  0.00160000  0.37150000  0.47950000  1
  C  C92  1  0.72155000  0.87335000  0.54595000  1
  C  C93  1  0.22155000  0.54595000  0.87335000  1
  C  C94  1  0.14085000  0.95405000  0.62665000  1
  C  C95  1  0.64085000  0.62665000  0.95405000  1
  C  C96  1  0.06820000  0.50430000  0.28070000  1
  C  C97  1  0.56820000  0.28070000  0.50430000  1
  C  C98  1  0.85320000  0.21930000  0.99570000  1
  C  C99  1  0.35320000  0.99570000  0.21930000  1
  C  C100  1  0.28757000  0.30266000  0.07320000  1
  C  C101  1  0.78757000  0.07320000  0.30266000  1
  C  C102  1  0.66343000  0.42680000  0.19734000  1
  C  C103  1  0.16343000  0.19734000  0.42680000  1
  C  C104  1  0.34949000  0.25060000  0.03622000  1
  C  C105  1  0.84949000  0.03622000  0.25060000  1
  C  C106  1  0.63631000  0.46378000  0.24940000  1
  C  C107  1  0.13631000  0.24940000  0.46378000  1
  C  C108  1  0.64095000  0.99751000  0.71399000  1
  C  C109  1  0.14095000  0.71399000  0.99751000  1
  C  C110  1  0.35245000  0.78601000  0.50249000  1
  C  C111  1  0.85245000  0.50249000  0.78601000  1
  H  H112  1  0.37240000  0.80140000  0.54140000  1
  H  H113  1  0.87240000  0.54140000  0.80140000  1
  H  H114  1  0.71520000  0.95860000  0.69860000  1
  H  H115  1  0.21520000  0.69860000  0.95860000  1
  H  H116  1  0.69360000  0.50510000  0.24070000  1
  H  H117  1  0.19360000  0.24070000  0.50510000  1
  H  H118  1  0.43940000  0.25930000  0.99490000  1
  H  H119  1  0.93940000  0.99490000  0.25930000  1
  H  H120  1  0.50590000  0.69010000  0.53010000  1
  H  H121  1  0.00590000  0.53010000  0.69010000  1
  H  H122  1  0.72610000  0.96990000  0.80990000  1
  H  H123  1  0.22610000  0.80990000  0.96990000  1
  H  H124  1  0.38510000  0.84020000  0.67580000  1
  H  H125  1  0.88510000  0.67580000  0.84020000  1
  H  H126  1  0.90110000  0.82420000  0.65980000  1
  H  H127  1  0.40110000  0.65980000  0.82420000  1
  H  H128  1  0.13460000  0.22320000  0.85640000  1
  H  H129  1  0.63460000  0.85640000  0.22320000  1
  H  H130  1  0.21420000  0.64360000  0.27680000  1
  H  H131  1  0.71420000  0.27680000  0.64360000  1
  H  H132  1  0.99650000  0.21630000  0.19790000  1
  H  H133  1  0.49650000  0.19790000  0.21630000  1
  H  H134  1  0.41070000  0.30210000  0.28370000  1
  H  H135  1  0.91070000  0.28370000  0.30210000  1
  H  H136  1  0.86380000  0.36920000  0.36500000  1
  H  H137  1  0.36380000  0.36500000  0.36920000  1
  H  H138  1  0.59800000  0.13500000  0.13080000  1
  H  H139  1  0.09800000  0.13080000  0.13500000  1
  H  H140  1  0.14590000  0.33460000  0.86640000  1
  H  H141  1  0.64590000  0.86640000  0.33460000  1
  H  H142  1  0.34690000  0.63360000  0.16540000  1
  H  H143  1  0.84690000  0.16540000  0.63360000  1
  H  H144  1  0.35410000  0.13360000  0.66540000  1
  H  H145  1  0.85410000  0.66540000  0.13360000  1
  H  H146  1  0.15310000  0.83460000  0.36640000  1
  H  H147  1  0.65310000  0.36640000  0.83460000  1
  H  H148  1  0.63620000  0.63500000  0.63080000  1
  H  H149  1  0.13620000  0.63080000  0.63500000  1
  H  H150  1  0.90200000  0.86920000  0.86500000  1
  H  H151  1  0.40200000  0.86500000  0.86920000  1
  H  H152  1  0.50350000  0.80210000  0.78370000  1
  H  H153  1  0.00350000  0.78370000  0.80210000  1
  H  H154  1  0.08930000  0.71630000  0.69790000  1
  H  H155  1  0.58930000  0.69790000  0.71630000  1
  H  H156  1  0.36540000  0.14360000  0.77680000  1
  H  H157  1  0.86540000  0.77680000  0.14360000  1
  H  H158  1  0.28580000  0.72320000  0.35640000  1
  H  H159  1  0.78580000  0.35640000  0.72320000  1
  H  H160  1  0.11490000  0.32420000  0.15980000  1
  H  H161  1  0.61490000  0.15980000  0.32420000  1
  H  H162  1  0.59890000  0.34020000  0.17580000  1
  H  H163  1  0.09890000  0.17580000  0.34020000  1
  H  H164  1  0.99410000  0.46990000  0.30990000  1
  H  H165  1  0.49410000  0.30990000  0.46990000  1
  H  H166  1  0.77390000  0.19010000  0.03010000  1
  H  H167  1  0.27390000  0.03010000  0.19010000  1
  H  H168  1  0.80640000  0.75930000  0.49490000  1
  H  H169  1  0.30640000  0.49490000  0.75930000  1
  H  H170  1  0.06060000  0.00510000  0.74070000  1
  H  H171  1  0.56060000  0.74070000  0.00510000  1
  H  H172  1  0.12760000  0.45860000  0.19860000  1
  H  H173  1  0.62760000  0.19860000  0.45860000  1
  H  H174  1  0.78480000  0.30140000  0.04140000  1
  H  H175  1  0.28480000  0.04140000  0.30140000  1
  N  N176  1  0.95400000  0.19460000  0.94280000  1
  N  N177  1  0.45400000  0.94280000  0.19460000  1
  N  N178  1  0.09140000  0.55720000  0.30540000  1
  N  N179  1  0.59140000  0.30540000  0.55720000  1
  N  N180  1  0.96761000  0.32954000  0.95524000  1
  N  N181  1  0.46761000  0.95524000  0.32954000  1
  N  N182  1  0.25239000  0.54476000  0.17046000  1
  N  N183  1  0.75239000  0.17046000  0.54476000  1
  N  N184  1  0.53239000  0.04476000  0.67046000  1
  N  N185  1  0.03239000  0.67046000  0.04476000  1
  N  N186  1  0.24761000  0.82954000  0.45524000  1
  N  N187  1  0.74761000  0.45524000  0.82954000  1
  N  N188  1  0.54600000  0.05720000  0.80540000  1
  N  N189  1  0.04600000  0.80540000  0.05720000  1
  N  N190  1  0.40860000  0.69460000  0.44280000  1
  N  N191  1  0.90860000  0.44280000  0.69460000  1
  O  O192  1  0.57909000  0.53409000  0.35853000  1
  O  O193  1  0.07909000  0.35853000  0.53409000  1
  O  O194  1  0.47171000  0.14147000  0.96591000  1
  O  O195  1  0.97171000  0.96591000  0.14147000  1
  O  O196  1  0.79931000  0.41780000  0.08198000  1
  O  O197  1  0.29931000  0.08198000  0.41780000  1
  O  O198  1  0.29909000  0.41802000  0.08220000  1
  O  O199  1  0.79909000  0.08220000  0.41802000  1
  O  O200  1  0.20977000  0.95424000  0.92962000  1
  O  O201  1  0.70977000  0.92962000  0.95424000  1
  O  O202  1  0.09363000  0.57038000  0.54576000  1
  O  O203  1  0.59363000  0.54576000  0.57038000  1
  O  O204  1  0.84517000  0.50974000  0.11812000  1
  O  O205  1  0.34517000  0.11812000  0.50974000  1
  O  O206  1  0.47303000  0.38188000  0.99026000  1
  O  O207  1  0.97303000  0.99026000  0.38188000  1
  O  O208  1  0.65483000  0.88188000  0.49026000  1
  O  O209  1  0.15483000  0.49026000  0.88188000  1
  O  O210  1  0.02697000  0.00974000  0.61812000  1
  O  O211  1  0.52697000  0.61812000  0.00974000  1
  O  O212  1  0.29023000  0.07038000  0.04576000  1
  O  O213  1  0.79023000  0.04576000  0.07038000  1
  O  O214  1  0.40637000  0.45424000  0.42962000  1
  O  O215  1  0.90637000  0.42962000  0.45424000  1
  O  O216  1  0.70069000  0.91802000  0.58220000  1
  O  O217  1  0.20069000  0.58220000  0.91802000  1
  O  O218  1  0.20091000  0.91780000  0.58198000  1
  O  O219  1  0.70091000  0.58198000  0.91780000  1
  O  O220  1  0.92091000  0.64147000  0.46591000  1
  O  O221  1  0.42091000  0.46591000  0.64147000  1
  O  O222  1  0.02829000  0.03409000  0.85853000  1
  O  O223  1  0.52829000  0.85853000  0.03409000  1
