# generated using pymatgen
data_KNaMn3H21(C11O7)3
_symmetry_space_group_name_H-M   'P 1'
_cell_length_a   10.40750000
_cell_length_b   20.47510000
_cell_length_c   20.47510000
_cell_angle_alpha   120.00000000
_cell_angle_beta   90.00000000
_cell_angle_gamma   90.00000000
_symmetry_Int_Tables_number   1
_chemical_formula_structural   KNaMn3H21(C11O7)3
_chemical_formula_sum   'K2 Na2 Mn6 H42 C66 O42'
_cell_volume   3778.58428743
_cell_formula_units_Z   2
loop_
 _symmetry_equiv_pos_site_id
 _symmetry_equiv_pos_as_xyz
  1  'x, y, z'
loop_
 _atom_site_type_symbol
 _atom_site_label
 _atom_site_symmetry_multiplicity
 _atom_site_fract_x
 _atom_site_fract_y
 _atom_site_fract_z
 _atom_site_occupancy
  K  K0  1  0.06380000  0.66666667  0.33333333  1
  K  K1  1  0.56380000  0.33333333  0.66666667  1
  Na  Na2  1  0.47174000  0.66666667  0.33333333  1
  Na  Na3  1  0.97174000  0.33333333  0.66666667  1
  Mn  Mn4  1  0.28718000  0.83466000  0.37972000  1
  Mn  Mn5  1  0.28718000  0.62028000  0.45494000  1
  Mn  Mn6  1  0.28718000  0.54506000  0.16534000  1
  Mn  Mn7  1  0.78718000  0.45494000  0.83466000  1
  Mn  Mn8  1  0.78718000  0.37972000  0.54506000  1
  Mn  Mn9  1  0.78718000  0.16534000  0.62028000  1
  H  H10  1  0.59600000  0.99430000  0.44300000  1
  H  H11  1  0.47900000  0.98310000  0.56100000  1
  H  H12  1  0.31050000  0.94120000  0.65660000  1
  H  H13  1  0.21230000  0.87490000  0.63200000  1
  H  H14  1  0.41370000  0.87380000  0.54760000  1
  H  H15  1  0.35790000  0.86230000  0.64200000  1
  H  H16  1  0.82250000  0.81170000  0.36200000  1
  H  H17  1  0.35790000  0.77970000  0.13770000  1
  H  H18  1  0.21230000  0.75710000  0.12510000  1
  H  H19  1  0.31050000  0.71540000  0.05880000  1
  H  H20  1  0.41370000  0.67380000  0.12620000  1
  H  H21  1  0.81050000  0.65660000  0.71540000  1
  H  H22  1  0.85790000  0.64200000  0.77970000  1
  H  H23  1  0.82250000  0.63800000  0.44970000  1
  H  H24  1  0.71230000  0.63200000  0.75710000  1
  H  H25  1  0.47900000  0.57790000  0.01690000  1
  H  H26  1  0.97900000  0.56100000  0.57790000  1
  H  H27  1  0.59600000  0.55700000  0.55130000  1
  H  H28  1  0.09600000  0.55130000  0.99430000  1
  H  H29  1  0.82250000  0.55030000  0.18830000  1
  H  H30  1  0.91370000  0.54760000  0.67380000  1
  H  H31  1  0.41370000  0.45240000  0.32620000  1
  H  H32  1  0.32250000  0.44970000  0.81170000  1
  H  H33  1  0.59600000  0.44870000  0.00570000  1
  H  H34  1  0.09600000  0.44300000  0.44870000  1
  H  H35  1  0.47900000  0.43900000  0.42210000  1
  H  H36  1  0.97900000  0.42210000  0.98310000  1
  H  H37  1  0.21230000  0.36800000  0.24290000  1
  H  H38  1  0.32250000  0.36200000  0.55030000  1
  H  H39  1  0.35790000  0.35800000  0.22030000  1
  H  H40  1  0.31050000  0.34340000  0.28460000  1
  H  H41  1  0.91370000  0.32620000  0.87380000  1
  H  H42  1  0.81050000  0.28460000  0.94120000  1
  H  H43  1  0.71230000  0.24290000  0.87490000  1
  H  H44  1  0.85790000  0.22030000  0.86230000  1
  H  H45  1  0.32250000  0.18830000  0.63800000  1
  H  H46  1  0.85790000  0.13770000  0.35800000  1
  H  H47  1  0.91370000  0.12620000  0.45240000  1
  H  H48  1  0.71230000  0.12510000  0.36800000  1
  H  H49  1  0.81050000  0.05880000  0.34340000  1
  H  H50  1  0.97900000  0.01690000  0.43900000  1
  H  H51  1  0.09600000  0.00570000  0.55700000  1
  C  C52  1  0.90710000  0.98638000  0.42930000  1
  C  C53  1  0.28420000  0.98215000  0.55295000  1
  C  C54  1  0.67750000  0.97275000  0.43173000  1
  C  C55  1  0.92030000  0.90879000  0.39690000  1
  C  C56  1  0.69100000  0.89457000  0.39924000  1
  C  C57  1  0.29870000  0.88760000  0.62620000  1
  C  C58  1  0.05220000  0.87545000  0.38225000  1
  C  C59  1  0.32160000  0.86457000  0.54854000  1
  C  C60  1  0.81250000  0.86349000  0.38279000  1
  C  C61  1  0.57240000  0.84629000  0.38461000  1
  C  C62  1  0.30900000  0.78096000  0.49204000  1
  C  C63  1  0.29870000  0.73860000  0.11240000  1
  C  C64  1  0.30900000  0.71108000  0.21904000  1
  C  C65  1  0.32160000  0.68397000  0.13543000  1
  C  C66  1  0.79870000  0.62620000  0.73860000  1
  C  C67  1  0.05220000  0.61775000  0.49320000  1
  C  C68  1  0.81250000  0.61721000  0.48070000  1
  C  C69  1  0.57240000  0.61539000  0.46168000  1
  C  C70  1  0.92030000  0.60310000  0.51189000  1
  C  C71  1  0.69100000  0.60076000  0.49533000  1
  C  C72  1  0.28420000  0.57080000  0.01785000  1
  C  C73  1  0.90710000  0.57070000  0.55708000  1
  C  C74  1  0.67750000  0.56827000  0.54102000  1
  C  C75  1  0.40710000  0.55708000  0.98638000  1
  C  C76  1  0.78420000  0.55295000  0.57080000  1
  C  C77  1  0.82160000  0.54854000  0.68397000  1
  C  C78  1  0.17750000  0.54102000  0.97275000  1
  C  C79  1  0.57240000  0.53832000  0.15371000  1
  C  C80  1  0.81250000  0.51930000  0.13651000  1
  C  C81  1  0.42030000  0.51189000  0.90879000  1
  C  C82  1  0.30900000  0.50796000  0.28892000  1
  C  C83  1  0.05220000  0.50680000  0.12455000  1
  C  C84  1  0.69100000  0.50467000  0.10543000  1
  C  C85  1  0.19100000  0.49533000  0.89457000  1
  C  C86  1  0.55220000  0.49320000  0.87545000  1
  C  C87  1  0.80900000  0.49204000  0.71108000  1
  C  C88  1  0.92030000  0.48811000  0.09121000  1
  C  C89  1  0.31250000  0.48070000  0.86349000  1
  C  C90  1  0.07240000  0.46168000  0.84629000  1
  C  C91  1  0.67750000  0.45898000  0.02725000  1
  C  C92  1  0.32160000  0.45146000  0.31603000  1
  C  C93  1  0.28420000  0.44705000  0.42920000  1
  C  C94  1  0.90710000  0.44292000  0.01362000  1
  C  C95  1  0.17750000  0.43173000  0.45898000  1
  C  C96  1  0.40710000  0.42930000  0.44292000  1
  C  C97  1  0.78420000  0.42920000  0.98215000  1
  C  C98  1  0.19100000  0.39924000  0.50467000  1
  C  C99  1  0.42030000  0.39690000  0.48811000  1
  C  C100  1  0.07240000  0.38461000  0.53832000  1
  C  C101  1  0.31250000  0.38279000  0.51930000  1
  C  C102  1  0.55220000  0.38225000  0.50680000  1
  C  C103  1  0.29870000  0.37380000  0.26140000  1
  C  C104  1  0.82160000  0.31603000  0.86457000  1
  C  C105  1  0.80900000  0.28892000  0.78096000  1
  C  C106  1  0.79870000  0.26140000  0.88760000  1
  C  C107  1  0.80900000  0.21904000  0.50796000  1
  C  C108  1  0.07240000  0.15371000  0.61539000  1
  C  C109  1  0.31250000  0.13651000  0.61721000  1
  C  C110  1  0.82160000  0.13543000  0.45146000  1
  C  C111  1  0.55220000  0.12455000  0.61775000  1
  C  C112  1  0.79870000  0.11240000  0.37380000  1
  C  C113  1  0.19100000  0.10543000  0.60076000  1
  C  C114  1  0.42030000  0.09121000  0.60310000  1
  C  C115  1  0.17750000  0.02725000  0.56827000  1
  C  C116  1  0.78420000  0.01785000  0.44705000  1
  C  C117  1  0.40710000  0.01362000  0.57070000  1
  O  O118  1  0.14731000  0.91719000  0.38883000  1
  O  O119  1  0.26578000  0.90452000  0.51498000  1
  O  O120  1  0.46723000  0.88223000  0.40029000  1
  O  O121  1  0.06805000  0.80844000  0.36662000  1
  O  O122  1  0.31370000  0.78079000  0.26154000  1
  O  O123  1  0.58420000  0.77812000  0.35943000  1
  O  O124  1  0.30041000  0.75904000  0.42351000  1
  O  O125  1  0.31370000  0.73846000  0.51925000  1
  O  O126  1  0.30041000  0.66447000  0.24096000  1
  O  O127  1  0.58420000  0.64057000  0.41869000  1
  O  O128  1  0.06805000  0.63338000  0.44182000  1
  O  O129  1  0.14731000  0.61117000  0.52836000  1
  O  O130  1  0.26578000  0.61046000  0.09548000  1
  O  O131  1  0.46723000  0.59971000  0.48194000  1
  O  O132  1  0.58420000  0.58131000  0.22188000  1
  O  O133  1  0.30041000  0.57649000  0.33553000  1
  O  O134  1  0.06805000  0.55818000  0.19156000  1
  O  O135  1  0.64731000  0.52836000  0.91719000  1
  O  O136  1  0.81370000  0.51925000  0.78079000  1
  O  O137  1  0.46723000  0.51806000  0.11777000  1
  O  O138  1  0.76578000  0.51498000  0.61046000  1
  O  O139  1  0.26578000  0.48502000  0.38954000  1
  O  O140  1  0.96723000  0.48194000  0.88223000  1
  O  O141  1  0.31370000  0.48075000  0.21921000  1
  O  O142  1  0.14731000  0.47164000  0.08281000  1
  O  O143  1  0.56805000  0.44182000  0.80844000  1
  O  O144  1  0.80041000  0.42351000  0.66447000  1
  O  O145  1  0.08420000  0.41869000  0.77812000  1
  O  O146  1  0.96723000  0.40029000  0.51806000  1
  O  O147  1  0.76578000  0.38954000  0.90452000  1
  O  O148  1  0.64731000  0.38883000  0.47164000  1
  O  O149  1  0.56805000  0.36662000  0.55818000  1
  O  O150  1  0.08420000  0.35943000  0.58131000  1
  O  O151  1  0.80041000  0.33553000  0.75904000  1
  O  O152  1  0.81370000  0.26154000  0.48075000  1
  O  O153  1  0.80041000  0.24096000  0.57649000  1
  O  O154  1  0.08420000  0.22188000  0.64057000  1
  O  O155  1  0.81370000  0.21921000  0.73846000  1
  O  O156  1  0.56805000  0.19156000  0.63338000  1
  O  O157  1  0.96723000  0.11777000  0.59971000  1
  O  O158  1  0.76578000  0.09548000  0.48502000  1
  O  O159  1  0.64731000  0.08281000  0.61117000  1
