# generated using pymatgen
data_EuZnH7C12(NO2)4
_symmetry_space_group_name_H-M   'P 1'
_cell_length_a   9.14720000
_cell_length_b   12.93122261
_cell_length_c   18.39053767
_cell_angle_alpha   72.11447509
_cell_angle_beta   75.59980938
_cell_angle_gamma   69.28703016
_symmetry_Int_Tables_number   1
_chemical_formula_structural   EuZnH7C12(NO2)4
_chemical_formula_sum   'Eu4 Zn4 H28 C48 N16 O32'
_cell_volume   1912.25509485
_cell_formula_units_Z   4
loop_
 _symmetry_equiv_pos_site_id
 _symmetry_equiv_pos_as_xyz
  1  'x, y, z'
loop_
 _atom_site_type_symbol
 _atom_site_label
 _atom_site_symmetry_multiplicity
 _atom_site_fract_x
 _atom_site_fract_y
 _atom_site_fract_z
 _atom_site_occupancy
  C  C0  1  0.88120000  0.34840000  0.51960000  1
  C  C1  1  0.25080000  0.84840000  0.01960000  1
  C  C2  1  0.93170000  0.22110000  0.54370000  1
  C  C3  1  0.30350000  0.72110000  0.04370000  1
  C  C4  1  0.00040000  0.94250000  0.81410000  1
  C  C5  1  0.24300000  0.44250000  0.31410000  1
  C  C6  1  0.06300000  0.64050000  0.07750000  1
  C  C7  1  0.21900000  0.14050000  0.57750000  1
  C  C8  1  0.06170000  0.13960000  0.57020000  1
  C  C9  1  0.22850000  0.63960000  0.07020000  1
  C  C10  1  0.90780000  0.34490000  0.32790000  1
  C  C11  1  0.41940000  0.84490000  0.82790000  1
  C  C12  1  0.77350000  0.76240000  0.90880000  1
  C  C13  1  0.55530000  0.26240000  0.40880000  1
  C  C14  1  0.98060000  0.84230000  0.79950000  1
  C  C15  1  0.37760000  0.34230000  0.29950000  1
  C  C16  1  0.88970000  0.05320000  0.58200000  1
  C  C17  1  0.47510000  0.55320000  0.08200000  1
  C  C18  1  0.89340000  0.76840000  0.83840000  1
  C  C19  1  0.49980000  0.26840000  0.33840000  1
  C  C20  1  0.80760000  0.96570000  0.59890000  1
  C  C21  1  0.62780000  0.46570000  0.09890000  1
  C  C22  1  0.97190000  0.28190000  0.26590000  1
  C  C23  1  0.48030000  0.78190000  0.76590000  1
  C  C24  1  0.02810000  0.71810000  0.73410000  1
  C  C25  1  0.51970000  0.21810000  0.23410000  1
  C  C26  1  0.19240000  0.03430000  0.40110000  1
  C  C27  1  0.37220000  0.53430000  0.90110000  1
  C  C28  1  0.10660000  0.23160000  0.16160000  1
  C  C29  1  0.50020000  0.73160000  0.66160000  1
  C  C30  1  0.11030000  0.94680000  0.41800000  1
  C  C31  1  0.52490000  0.44680000  0.91800000  1
  C  C32  1  0.01940000  0.15770000  0.20050000  1
  C  C33  1  0.62240000  0.65770000  0.70050000  1
  C  C34  1  0.22650000  0.23760000  0.09120000  1
  C  C35  1  0.44470000  0.73760000  0.59120000  1
  C  C36  1  0.09220000  0.65510000  0.67210000  1
  C  C37  1  0.58060000  0.15510000  0.17210000  1
  C  C38  1  0.93830000  0.86040000  0.42980000  1
  C  C39  1  0.77150000  0.36040000  0.92980000  1
  C  C40  1  0.93700000  0.35950000  0.92250000  1
  C  C41  1  0.78100000  0.85950000  0.42250000  1
  C  C42  1  0.99960000  0.05750000  0.18590000  1
  C  C43  1  0.75700000  0.55750000  0.68590000  1
  C  C44  1  0.06830000  0.77890000  0.45630000  1
  C  C45  1  0.69650000  0.27890000  0.95630000  1
  C  C46  1  0.11880000  0.65160000  0.48040000  1
  C  C47  1  0.74920000  0.15160000  0.98040000  1
  Eu  Eu48  1  0.84734000  0.91106000  0.00570000  1
  Eu  Eu49  1  0.23590000  0.41106000  0.50570000  1
  Eu  Eu50  1  0.15266000  0.08894000  0.99430000  1
  Eu  Eu51  1  0.76410000  0.58894000  0.49430000  1
  H  H52  1  0.72790000  0.19580000  0.53880000  1
  H  H53  1  0.53750000  0.69580000  0.03880000  1
  H  H54  1  0.81560000  0.40720000  0.31440000  1
  H  H55  1  0.46280000  0.90720000  0.81440000  1
  H  H56  1  0.98660000  0.37406667  0.33333333  1
  H  H57  1  0.30600000  0.87400000  0.83340000  1
  H  H58  1  0.87990000  0.29440000  0.37580000  1
  H  H59  1  0.44990000  0.79440000  0.87580000  1
  H  H60  1  0.77150000  0.94530000  0.65350000  1
  H  H61  1  0.62970000  0.44530000  0.15350000  1
  H  H62  1  0.71860000  0.99600000  0.57180000  1
  H  H63  1  0.71360000  0.49600000  0.07180000  1
  H  H64  1  0.12040000  0.10060000  0.41760000  1
  H  H65  1  0.36140000  0.60060000  0.91760000  1
  H  H66  1  0.87960000  0.89940000  0.58240000  1
  H  H67  1  0.63860000  0.39940000  0.08240000  1
  H  H68  1  0.28140000  0.00400000  0.42820000  1
  H  H69  1  0.28640000  0.50400000  0.92820000  1
  H  H70  1  0.22850000  0.05470000  0.34650000  1
  H  H71  1  0.37030000  0.55470000  0.84650000  1
  H  H72  1  0.12010000  0.70560000  0.62420000  1
  H  H73  1  0.55010000  0.20560000  0.12420000  1
  H  H74  1  0.01340000  0.62600000  0.66660000  1
  H  H75  1  0.69400000  0.12600000  0.16660000  1
  H  H76  1  0.18440000  0.59280000  0.68560000  1
  H  H77  1  0.53720000  0.09280000  0.18560000  1
  H  H78  1  0.27210000  0.80420000  0.46120000  1
  H  H79  1  0.46250000  0.30420000  0.96120000  1
  N  N80  1  0.82340000  0.16450000  0.55150000  1
  N  N81  1  0.46060000  0.66450000  0.05150000  1
  N  N82  1  0.03347000  0.03526000  0.59560000  1
  N  N83  1  0.33567000  0.53526000  0.09560000  1
  N  N84  1  0.06442000  0.81026000  0.73310000  1
  N  N85  1  0.39222000  0.31026000  0.23310000  1
  N  N86  1  0.07554000  0.30992000  0.20360000  1
  N  N87  1  0.41094000  0.80992000  0.70360000  1
  N  N88  1  0.92446000  0.69008000  0.79640000  1
  N  N89  1  0.58906000  0.19008000  0.29640000  1
  N  N90  1  0.93558000  0.18974000  0.26690000  1
  N  N91  1  0.60778000  0.68974000  0.76690000  1
  N  N92  1  0.96653000  0.96474000  0.40440000  1
  N  N93  1  0.66433000  0.46474000  0.90440000  1
  N  N94  1  0.17660000  0.83550000  0.44850000  1
  N  N95  1  0.53940000  0.33550000  0.94850000  1
  O  O96  1  0.73817000  0.40046000  0.51760000  1
  O  O97  1  0.34377000  0.90046000  0.01760000  1
  O  O98  1  0.98140000  0.40176000  0.50384000  1
  O  O99  1  0.11300000  0.90176000  0.00384000  1
  O  O100  1  0.94277000  0.96846000  0.87880000  1
  O  O101  1  0.20997000  0.46846000  0.37880000  1
  O  O102  1  0.73041000  0.83848000  0.94630000  1
  O  O103  1  0.48481000  0.33848000  0.44630000  1
  O  O104  1  0.96675000  0.72680000  0.04210000  1
  O  O105  1  0.26435000  0.22680000  0.54210000  1
  O  O106  1  0.07799000  0.99802000  0.76120000  1
  O  O107  1  0.16279000  0.49802000  0.26120000  1
  O  O108  1  0.02938000  0.55294000  0.11770000  1
  O  O109  1  0.29998000  0.05294000  0.61770000  1
  O  O110  1  0.71336000  0.68225000  0.92683000  1
  O  O111  1  0.67756000  0.18225000  0.42683000  1
  O  O112  1  0.28664000  0.31775000  0.07317000  1
  O  O113  1  0.32244000  0.81775000  0.57317000  1
  O  O114  1  0.97062000  0.44706000  0.88230000  1
  O  O115  1  0.70002000  0.94706000  0.38230000  1
  O  O116  1  0.92201000  0.00198000  0.23880000  1
  O  O117  1  0.83721000  0.50198000  0.73880000  1
  O  O118  1  0.03325000  0.27320000  0.95790000  1
  O  O119  1  0.73565000  0.77320000  0.45790000  1
  O  O120  1  0.26959000  0.16152000  0.05370000  1
  O  O121  1  0.51519000  0.66152000  0.55370000  1
  O  O122  1  0.05723000  0.03154000  0.12120000  1
  O  O123  1  0.79003000  0.53154000  0.62120000  1
  O  O124  1  0.01860000  0.59824000  0.49616000  1
  O  O125  1  0.88700000  0.09824000  0.99616000  1
  O  O126  1  0.26183000  0.59954000  0.48240000  1
  O  O127  1  0.65623000  0.09954000  0.98240000  1
  Zn  Zn128  1  0.20241000  0.91180000  0.66376000  1
  Zn  Zn129  1  0.22203000  0.41180000  0.16376000  1
  Zn  Zn130  1  0.79759000  0.08820000  0.33624000  1
  Zn  Zn131  1  0.77797000  0.58820000  0.83624000  1
