# generated using pymatgen
data_CuH2C7O6
_symmetry_space_group_name_H-M   'P 1'
_cell_length_a   8.53000000
_cell_length_b   11.28000000
_cell_length_c   13.21473866
_cell_angle_alpha   90.00000000
_cell_angle_beta   103.78208078
_cell_angle_gamma   90.00000000
_symmetry_Int_Tables_number   1
_chemical_formula_structural   CuH2C7O6
_chemical_formula_sum   'Cu4 H8 C28 O24'
_cell_volume   1234.89301335
_cell_formula_units_Z   4
loop_
 _symmetry_equiv_pos_site_id
 _symmetry_equiv_pos_as_xyz
  1  'x, y, z'
loop_
 _atom_site_type_symbol
 _atom_site_label
 _atom_site_symmetry_multiplicity
 _atom_site_fract_x
 _atom_site_fract_y
 _atom_site_fract_z
 _atom_site_occupancy
  Cu  Cu0  1  0.08549000  0.41223000  0.46907000  1
  Cu  Cu1  1  0.58549000  0.08777000  0.96907000  1
  Cu  Cu2  1  0.41451000  0.91223000  0.03093000  1
  Cu  Cu3  1  0.91451000  0.58777000  0.53093000  1
  H  H4  1  0.45050000  0.40390000  0.45430000  1
  H  H5  1  0.95050000  0.09610000  0.95430000  1
  H  H6  1  0.75960000  0.37220000  0.76690000  1
  H  H7  1  0.25960000  0.12780000  0.26690000  1
  H  H8  1  0.74040000  0.87220000  0.73310000  1
  H  H9  1  0.24040000  0.62780000  0.23310000  1
  H  H10  1  0.04950000  0.90390000  0.04570000  1
  H  H11  1  0.54950000  0.59610000  0.54570000  1
  C  C12  1  0.66150000  0.81510000  0.70930000  1
  C  C13  1  0.16150000  0.68490000  0.20930000  1
  C  C14  1  0.04610000  0.84670000  0.09580000  1
  C  C15  1  0.54610000  0.65330000  0.59580000  1
  C  C16  1  0.31880000  0.26830000  0.36950000  1
  C  C17  1  0.81880000  0.23170000  0.86950000  1
  C  C18  1  0.53000000  0.81110000  0.74880000  1
  C  C19  1  0.03000000  0.68890000  0.24880000  1
  C  C20  1  0.91510000  0.83800000  0.13540000  1
  C  C21  1  0.41510000  0.66200000  0.63540000  1
  C  C22  1  0.51250000  0.88440000  0.84090000  1
  C  C23  1  0.01250000  0.61560000  0.34090000  1
  C  C24  1  0.76030000  0.90440000  0.09120000  1
  C  C25  1  0.26030000  0.59560000  0.59120000  1
  C  C26  1  0.73970000  0.40440000  0.40880000  1
  C  C27  1  0.23970000  0.09560000  0.90880000  1
  C  C28  1  0.98750000  0.38440000  0.65910000  1
  C  C29  1  0.48750000  0.11560000  0.15910000  1
  C  C30  1  0.58490000  0.33800000  0.36460000  1
  C  C31  1  0.08490000  0.16200000  0.86460000  1
  C  C32  1  0.97000000  0.31110000  0.75120000  1
  C  C33  1  0.47000000  0.18890000  0.25120000  1
  C  C34  1  0.18120000  0.76830000  0.13050000  1
  C  C35  1  0.68120000  0.73170000  0.63050000  1
  C  C36  1  0.45390000  0.34670000  0.40420000  1
  C  C37  1  0.95390000  0.15330000  0.90420000  1
  C  C38  1  0.83850000  0.31510000  0.79070000  1
  C  C39  1  0.33850000  0.18490000  0.29070000  1
  O  O40  1  0.19491000  0.27100000  0.40361000  1
  O  O41  1  0.69491000  0.22900000  0.90361000  1
  O  O42  1  0.58274000  0.98200000  0.85064000  1
  O  O43  1  0.08274000  0.51800000  0.35064000  1
  O  O44  1  0.77570000  0.99970000  0.04510000  1
  O  O45  1  0.27570000  0.50030000  0.54510000  1
  O  O46  1  0.90403000  0.76280000  0.21283000  1
  O  O47  1  0.40403000  0.73720000  0.71283000  1
  O  O48  1  0.43300000  0.83840000  0.89940000  1
  O  O49  1  0.93300000  0.66160000  0.39940000  1
  O  O50  1  0.63320000  0.85570000  0.10010000  1
  O  O51  1  0.13320000  0.64430000  0.60010000  1
  O  O52  1  0.86680000  0.35570000  0.39990000  1
  O  O53  1  0.36680000  0.14430000  0.89990000  1
  O  O54  1  0.06700000  0.33840000  0.60060000  1
  O  O55  1  0.56700000  0.16160000  0.10060000  1
  O  O56  1  0.59597000  0.26280000  0.28717000  1
  O  O57  1  0.09597000  0.23720000  0.78717000  1
  O  O58  1  0.72430000  0.49970000  0.45490000  1
  O  O59  1  0.22430000  0.00030000  0.95490000  1
  O  O60  1  0.91726000  0.48200000  0.64936000  1
  O  O61  1  0.41726000  0.01800000  0.14936000  1
  O  O62  1  0.30509000  0.77100000  0.09639000  1
  O  O63  1  0.80509000  0.72900000  0.59639000  1
