# generated using pymatgen
data_ZnH17C17N5O4
_symmetry_space_group_name_H-M   'P 1'
_cell_length_a   12.17482494
_cell_length_b   12.17482494
_cell_length_c   16.19212936
_cell_angle_alpha   101.94738413
_cell_angle_beta   108.29814308
_cell_angle_gamma   107.88574151
_symmetry_Int_Tables_number   1
_chemical_formula_structural   ZnH17C17N5O4
_chemical_formula_sum   'Zn4 H68 C68 N20 O16'
_cell_volume   2042.66584045
_cell_formula_units_Z   4
loop_
 _symmetry_equiv_pos_site_id
 _symmetry_equiv_pos_as_xyz
  1  'x, y, z'
loop_
 _atom_site_type_symbol
 _atom_site_label
 _atom_site_symmetry_multiplicity
 _atom_site_fract_x
 _atom_site_fract_y
 _atom_site_fract_z
 _atom_site_occupancy
  C  C0  1  0.28820000  0.91230000  0.41530000  1
  C  C1  1  0.00300000  0.12710000  0.91530000  1
  C  C2  1  0.11470000  0.53990000  0.62700000  1
  C  C3  1  0.58710000  0.51230000  0.12700000  1
  C  C4  1  0.57620000  0.97950000  0.65730000  1
  C  C5  1  0.17780000  0.08110000  0.15730000  1
  C  C6  1  0.51200000  0.53630000  0.04490000  1
  C  C7  1  0.00860000  0.53290000  0.54490000  1
  C  C8  1  0.97220000  0.67750000  0.37070000  1
  C  C9  1  0.19320000  0.39850000  0.87070000  1
  C  C10  1  0.67560000  0.00290000  0.75150000  1
  C  C11  1  0.24860000  0.07590000  0.25150000  1
  C  C12  1  0.25750000  0.95260000  0.48550000  1
  C  C13  1  0.03290000  0.22800000  0.98550000  1
  C  C14  1  0.78930000  0.61280000  0.37750000  1
  C  C15  1  0.26470000  0.58820000  0.87750000  1
  C  C16  1  0.86350000  0.09620000  0.97370000  1
  C  C17  1  0.37750000  0.11020000  0.47370000  1
  C  C18  1  0.92740000  0.76570000  0.37150000  1
  C  C19  1  0.10580000  0.44410000  0.87150000  1
  C  C20  1  0.83180000  0.96850000  0.28270000  1
  C  C21  1  0.81420000  0.45090000  0.78270000  1
  C  C22  1  0.92660000  0.09210000  0.29690000  1
  C  C23  1  0.70480000  0.37030000  0.79690000  1
  C  C24  1  0.04500000  0.14280000  0.36840000  1
  C  C25  1  0.72560000  0.32340000  0.86840000  1
  C  C26  1  0.22960000  0.87720000  0.83640000  1
  C  C27  1  0.45920000  0.60680000  0.33640000  1
  C  C28  1  0.49430000  0.79660000  0.18490000  1
  C  C29  1  0.88830000  0.69060000  0.68490000  1
  C  C30  1  0.62710000  0.24150000  0.87660000  1
  C  C31  1  0.13510000  0.24950000  0.37660000  1
  C  C32  1  0.90300000  0.16430000  0.23710000  1
  C  C33  1  0.57280000  0.33410000  0.73710000  1
  C  C34  1  0.09700000  0.83570000  0.76290000  1
  C  C35  1  0.42720000  0.66590000  0.26290000  1
  C  C36  1  0.37290000  0.75850000  0.12340000  1
  C  C37  1  0.86490000  0.75050000  0.62340000  1
  C  C38  1  0.50570000  0.20340000  0.81510000  1
  C  C39  1  0.11170000  0.30940000  0.31510000  1
  C  C40  1  0.77040000  0.12280000  0.16360000  1
  C  C41  1  0.54080000  0.39320000  0.66360000  1
  C  C42  1  0.95500000  0.85720000  0.63160000  1
  C  C43  1  0.27440000  0.67660000  0.13160000  1
  C  C44  1  0.07340000  0.90790000  0.70310000  1
  C  C45  1  0.29520000  0.62970000  0.20310000  1
  C  C46  1  0.16820000  0.03150000  0.71730000  1
  C  C47  1  0.18580000  0.54910000  0.21730000  1
  C  C48  1  0.07260000  0.23430000  0.62850000  1
  C  C49  1  0.89420000  0.55590000  0.12850000  1
  C  C50  1  0.13650000  0.90380000  0.02630000  1
  C  C51  1  0.62250000  0.88980000  0.52630000  1
  C  C52  1  0.21070000  0.38720000  0.62250000  1
  C  C53  1  0.73530000  0.41180000  0.12250000  1
  C  C54  1  0.74250000  0.04740000  0.51450000  1
  C  C55  1  0.96710000  0.77200000  0.01450000  1
  C  C56  1  0.32440000  0.99710000  0.24850000  1
  C  C57  1  0.75140000  0.92410000  0.74850000  1
  C  C58  1  0.02780000  0.32250000  0.62930000  1
  C  C59  1  0.80680000  0.60150000  0.12930000  1
  C  C60  1  0.48800000  0.46370000  0.95510000  1
  C  C61  1  0.99140000  0.46710000  0.45510000  1
  C  C62  1  0.42380000  0.02050000  0.34270000  1
  C  C63  1  0.82220000  0.91890000  0.84270000  1
  C  C64  1  0.88530000  0.46010000  0.37300000  1
  C  C65  1  0.41290000  0.48770000  0.87300000  1
  C  C66  1  0.71180000  0.08770000  0.58470000  1
  C  C67  1  0.99700000  0.87290000  0.08470000  1
  H  H68  1  0.04910000  0.68220000  0.36910000  1
  H  H69  1  0.18690000  0.32000000  0.86910000  1
  H  H70  1  0.50940000  0.89880000  0.63680000  1
  H  H71  1  0.23800000  0.12740000  0.13680000  1
  H  H72  1  0.19410000  0.59230000  0.62860000  1
  H  H73  1  0.53630000  0.43450000  0.12860000  1
  H  H74  1  0.95390000  0.88200000  0.12230000  1
  H  H75  1  0.74030000  0.16840000  0.62230000  1
  H  H76  1  0.55530000  0.62150000  0.05200000  1
  H  H77  1  0.93050000  0.49670000  0.55200000  1
  H  H78  1  0.18830000  0.04360000  0.27690000  1
  H  H79  1  0.73330000  0.08860000  0.77690000  1
  H  H80  1  0.02010000  0.61610000  0.54720000  1
  H  H81  1  0.43110000  0.52710000  0.04720000  1
  H  H82  1  0.63430000  0.98710000  0.79280000  1
  H  H83  1  0.30570000  0.15850000  0.29280000  1
  H  H84  1  0.10720000  0.57780000  0.68280000  1
  H  H85  1  0.60500000  0.57560000  0.18280000  1
  H  H86  1  0.53940000  0.03950000  0.66250000  1
  H  H87  1  0.12300000  0.12310000  0.16250000  1
  H  H88  1  0.20670000  0.90220000  0.50670000  1
  H  H89  1  0.10450000  0.30000000  0.00670000  1
  H  H90  1  0.31820000  0.66420000  0.88140000  1
  H  H91  1  0.71720000  0.56320000  0.38140000  1
  H  H92  1  0.96860000  0.84260000  0.36920000  1
  H  H93  1  0.02660000  0.40060000  0.86920000  1
  H  H94  1  0.79160000  0.05810000  0.98290000  1
  H  H95  1  0.42480000  0.19130000  0.48290000  1
  H  H96  1  0.06370000  0.10400000  0.41150000  1
  H  H97  1  0.80750000  0.34780000  0.91150000  1
  H  H98  1  0.56010000  0.85380000  0.17930000  1
  H  H99  1  0.82550000  0.61920000  0.67930000  1
  H  H100  1  0.64350000  0.21100000  0.92530000  1
  H  H101  1  0.21430000  0.28180000  0.42530000  1
  H  H102  1  0.35650000  0.78900000  0.07470000  1
  H  H103  1  0.78570000  0.71820000  0.57470000  1
  H  H104  1  0.43990000  0.14620000  0.82070000  1
  H  H105  1  0.17450000  0.38080000  0.32070000  1
  H  H106  1  0.93630000  0.89600000  0.58850000  1
  H  H107  1  0.19250000  0.65220000  0.08850000  1
  H  H108  1  0.20840000  0.94190000  0.01710000  1
  H  H109  1  0.57520000  0.80870000  0.51710000  1
  H  H110  1  0.03140000  0.15740000  0.63080000  1
  H  H111  1  0.97340000  0.59940000  0.13080000  1
  H  H112  1  0.68180000  0.33580000  0.11860000  1
  H  H113  1  0.28280000  0.43680000  0.61860000  1
  H  H114  1  0.79330000  0.09780000  0.49330000  1
  H  H115  1  0.89550000  0.70000000  0.99330000  1
  H  H116  1  0.46060000  0.96050000  0.33750000  1
  H  H117  1  0.87700000  0.87690000  0.83750000  1
  H  H118  1  0.89280000  0.42220000  0.31720000  1
  H  H119  1  0.39500000  0.42440000  0.81720000  1
  H  H120  1  0.36570000  0.01290000  0.20720000  1
  H  H121  1  0.69430000  0.84150000  0.70720000  1
  H  H122  1  0.97990000  0.38390000  0.45280000  1
  H  H123  1  0.56890000  0.47290000  0.95280000  1
  H  H124  1  0.81170000  0.95640000  0.72310000  1
  H  H125  1  0.26670000  0.91140000  0.22310000  1
  H  H126  1  0.44470000  0.37850000  0.94800000  1
  H  H127  1  0.06950000  0.50330000  0.44800000  1
  H  H128  1  0.04610000  0.11800000  0.87770000  1
  H  H129  1  0.25970000  0.83160000  0.37770000  1
  H  H130  1  0.80590000  0.40770000  0.37140000  1
  H  H131  1  0.46370000  0.56550000  0.87140000  1
  H  H132  1  0.49060000  0.10120000  0.36320000  1
  H  H133  1  0.76200000  0.87260000  0.86320000  1
  H  H134  1  0.95090000  0.31780000  0.63090000  1
  H  H135  1  0.81310000  0.68000000  0.13090000  1
  N  N136  1  0.36890000  0.01320000  0.41090000  1
  N  N137  1  0.89770000  0.04200000  0.91090000  1
  N  N138  1  0.88190000  0.57970000  0.37280000  1
  N  N139  1  0.29310000  0.49090000  0.87280000  1
  N  N140  1  0.31060000  0.07590000  0.52070000  1
  N  N141  1  0.94480000  0.21010000  0.02070000  1
  N  N142  1  0.81330000  0.72600000  0.37610000  1
  N  N143  1  0.15010000  0.56280000  0.87610000  1
  N  N144  1  0.51810000  0.74860000  0.25610000  1
  N  N145  1  0.00750000  0.73800000  0.75610000  1
  N  N146  1  0.48190000  0.25140000  0.74390000  1
  N  N147  1  0.99250000  0.26200000  0.24390000  1
  N  N148  1  0.18670000  0.27400000  0.62390000  1
  N  N149  1  0.84990000  0.43720000  0.12390000  1
  N  N150  1  0.68940000  0.92410000  0.47930000  1
  N  N151  1  0.05520000  0.78990000  0.97930000  1
  N  N152  1  0.11810000  0.42030000  0.62720000  1
  N  N153  1  0.70690000  0.50910000  0.12720000  1
  N  N154  1  0.63110000  0.98680000  0.58910000  1
  N  N155  1  0.10230000  0.95800000  0.08910000  1
  O  O156  1  0.80630000  0.87910000  0.21420000  1
  O  O157  1  0.83510000  0.40790000  0.71420000  1
  O  O158  1  0.31880000  0.95530000  0.83570000  1
  O  O159  1  0.38040000  0.51690000  0.33570000  1
  O  O160  1  0.23270000  0.81890000  0.89260000  1
  O  O161  1  0.57370000  0.65990000  0.39260000  1
  O  O162  1  0.20970000  0.03730000  0.65500000  1
  O  O163  1  0.11770000  0.44530000  0.15500000  1
  O  O164  1  0.79030000  0.96270000  0.34500000  1
  O  O165  1  0.88230000  0.55470000  0.84500000  1
  O  O166  1  0.76730000  0.18110000  0.10740000  1
  O  O167  1  0.42630000  0.34010000  0.60740000  1
  O  O168  1  0.68120000  0.04470000  0.16430000  1
  O  O169  1  0.61960000  0.48310000  0.66430000  1
  O  O170  1  0.19370000  0.12090000  0.78580000  1
  O  O171  1  0.16490000  0.59210000  0.28580000  1
  Zn  Zn172  1  0.69246000  0.81083000  0.36807000  1
  Zn  Zn173  1  0.05724000  0.67561000  0.86807000  1
  Zn  Zn174  1  0.30754000  0.18917000  0.63193000  1
  Zn  Zn175  1  0.94276000  0.32439000  0.13193000  1
