# generated using pymatgen
data_Zn3P2H6(C8O7)2
_symmetry_space_group_name_H-M   'P 1'
_cell_length_a   17.45774471
_cell_length_b   17.45774471
_cell_length_c   17.45774471
_cell_angle_alpha   96.71354877
_cell_angle_beta   116.20264065
_cell_angle_gamma   116.20264065
_symmetry_Int_Tables_number   1
_chemical_formula_structural   Zn3P2H6(C8O7)2
_chemical_formula_sum   'Zn12 P8 H24 C64 O56'
_cell_volume   3948.83920125
_cell_formula_units_Z   4
loop_
 _symmetry_equiv_pos_site_id
 _symmetry_equiv_pos_as_xyz
  1  'x, y, z'
loop_
 _atom_site_type_symbol
 _atom_site_label
 _atom_site_symmetry_multiplicity
 _atom_site_fract_x
 _atom_site_fract_y
 _atom_site_fract_z
 _atom_site_occupancy
  C  C0  1  0.23400000  0.59940000  0.82760000  1
  C  C1  1  0.27180000  0.15640000  0.42240000  1
  C  C2  1  0.24240000  0.70840000  0.93280000  1
  C  C3  1  0.27560000  0.05960000  0.31720000  1
  C  C4  1  0.28030000  0.69250000  0.88220000  1
  C  C5  1  0.31030000  0.14810000  0.36780000  1
  C  C6  1  0.79480000  0.11340000  0.77660000  1
  C  C7  1  0.83680000  0.76820000  0.47340000  1
  C  C8  1  0.79670000  0.22240000  0.87590000  1
  C  C9  1  0.84650000  0.67080000  0.37410000  1
  C  C10  1  0.83350000  0.09620000  0.71930000  1
  C  C11  1  0.87690000  0.86420000  0.53070000  1
  C  C12  1  0.83010000  0.20380000  0.82310000  1
  C  C13  1  0.88070000  0.75700000  0.42690000  1
  C  C14  1  0.83640000  0.31960000  0.92920000  1
  C  C15  1  0.89040000  0.65720000  0.32080000  1
  C  C16  1  0.33640000  0.67920000  0.56960000  1
  C  C17  1  0.60960000  0.51680000  0.68040000  1
  C  C18  1  0.33010000  0.57310000  0.45380000  1
  C  C19  1  0.61930000  0.62630000  0.79620000  1
  C  C20  1  0.29670000  0.62590000  0.47240000  1
  C  C21  1  0.65350000  0.57430000  0.77760000  1
  C  C22  1  0.33350000  0.46930000  0.34620000  1
  C  C23  1  0.62310000  0.73730000  0.90380000  1
  C  C24  1  0.29480000  0.52660000  0.36340000  1
  C  C25  1  0.66320000  0.68140000  0.88660000  1
  C  C26  1  0.73400000  0.57760000  0.84940000  1
  C  C27  1  0.22820000  0.63460000  0.40060000  1
  C  C28  1  0.74240000  0.68280000  0.95840000  1
  C  C29  1  0.22440000  0.53400000  0.29160000  1
  C  C30  1  0.78030000  0.63220000  0.94250000  1
  C  C31  1  0.18970000  0.58780000  0.30750000  1
  C  C32  1  0.81030000  0.11780000  0.39810000  1
  C  C33  1  0.21970000  0.16220000  0.85190000  1
  C  C34  1  0.77560000  0.06720000  0.30960000  1
  C  C35  1  0.25760000  0.21600000  0.94040000  1
  C  C36  1  0.77180000  0.17240000  0.40640000  1
  C  C37  1  0.26600000  0.11540000  0.84360000  1
  C  C38  1  0.33680000  0.22340000  0.01820000  1
  C  C39  1  0.70520000  0.06860000  0.23180000  1
  C  C40  1  0.37690000  0.28070000  0.11420000  1
  C  C41  1  0.66650000  0.01270000  0.13580000  1
  C  C42  1  0.34650000  0.12410000  0.92080000  1
  C  C43  1  0.70330000  0.17570000  0.32920000  1
  C  C44  1  0.38070000  0.17690000  0.00700000  1
  C  C45  1  0.66990000  0.12370000  0.24300000  1
  C  C46  1  0.39040000  0.07080000  0.90720000  1
  C  C47  1  0.66360000  0.23320000  0.34280000  1
  C  C48  1  0.10960000  0.43040000  0.76680000  1
  C  C49  1  0.16360000  0.09280000  0.48320000  1
  C  C50  1  0.11930000  0.54620000  0.87630000  1
  C  C51  1  0.16990000  0.99300000  0.37370000  1
  C  C52  1  0.12310000  0.65380000  0.98730000  1
  C  C53  1  0.16650000  0.88580000  0.26270000  1
  C  C54  1  0.15350000  0.52760000  0.82430000  1
  C  C55  1  0.20330000  0.07920000  0.42570000  1
  C  C56  1  0.16320000  0.63660000  0.93140000  1
  C  C57  1  0.20520000  0.98180000  0.31860000  1
  C  C58  1  0.68970000  0.05750000  0.83780000  1
  C  C59  1  0.71970000  0.60190000  0.41220000  1
  C  C60  1  0.72440000  0.04160000  0.78400000  1
  C  C61  1  0.75760000  0.69040000  0.46600000  1
  C  C62  1  0.72820000  0.15060000  0.88460000  1
  C  C63  1  0.76600000  0.59360000  0.36540000  1
  H  H64  1  0.25820000  0.58630000  0.79330000  1
  H  H65  1  0.29300000  0.21490000  0.45670000  1
  H  H66  1  0.27090000  0.76890000  0.96880000  1
  H  H67  1  0.30010000  0.05210000  0.28120000  1
  H  H68  1  0.87710000  0.25240000  0.81810000  1
  H  H69  1  0.93430000  0.80900000  0.43190000  1
  H  H70  1  0.37710000  0.56810000  0.50240000  1
  H  H71  1  0.56570000  0.62470000  0.74760000  1
  H  H72  1  0.75820000  0.54330000  0.83630000  1
  H  H73  1  0.20700000  0.67190000  0.41370000  1
  H  H74  1  0.77090000  0.71880000  0.01890000  1
  H  H75  1  0.19990000  0.50200000  0.23110000  1
  H  H76  1  0.80010000  0.03120000  0.30210000  1
  H  H77  1  0.22910000  0.24800000  0.94790000  1
  H  H78  1  0.79300000  0.20670000  0.46490000  1
  H  H79  1  0.24180000  0.07810000  0.78510000  1
  H  H80  1  0.43430000  0.18190000  0.05900000  1
  H  H81  1  0.62290000  0.12530000  0.19100000  1
  H  H82  1  0.06570000  0.49760000  0.87470000  1
  H  H83  1  0.12290000  0.94100000  0.37530000  1
  H  H84  1  0.69990000  0.98110000  0.75200000  1
  H  H85  1  0.72910000  0.69790000  0.49800000  1
  H  H86  1  0.70700000  0.16370000  0.92190000  1
  H  H87  1  0.74180000  0.53510000  0.32810000  1
  O  O88  1  0.80740000  0.01350000  0.68530000  1
  O  O89  1  0.82820000  0.87210000  0.56470000  1
  O  O90  1  0.81010000  0.33480000  0.97950000  1
  O  O91  1  0.85530000  0.58060000  0.27050000  1
  O  O92  1  0.33650000  0.27060000  0.28970000  1
  O  O93  1  0.48090000  0.79680000  0.96030000  1
  O  O94  1  0.36600000  0.75010000  0.78890000  1
  O  O95  1  0.46120000  0.32710000  0.46110000  1
  O  O96  1  0.89110000  0.16320000  0.71270000  1
  O  O97  1  0.95050000  0.92840000  0.53730000  1
  O  O98  1  0.37980000  0.86800000  0.90240000  1
  O  O99  1  0.46560000  0.22740000  0.34760000  1
  O  O100  1  0.83650000  0.03970000  0.52060000  1
  O  O101  1  0.01910000  0.06590000  0.72940000  1
  O  O102  1  0.90370000  0.38320000  0.92230000  1
  O  O103  1  0.96090000  0.73140000  0.32770000  1
  O  O104  1  0.86600000  0.53890000  0.00010000  1
  O  O105  1  0.03880000  0.61590000  0.24990000  1
  O  O106  1  0.87980000  0.65240000  0.11800000  1
  O  O107  1  0.03440000  0.51180000  0.13200000  1
  O  O108  1  0.39110000  0.46270000  0.41320000  1
  O  O109  1  0.54950000  0.72790000  0.83680000  1
  O  O110  1  0.40370000  0.67230000  0.63320000  1
  O  O111  1  0.53910000  0.52050000  0.61680000  1
  O  O112  1  0.31010000  0.72950000  0.58480000  1
  O  O113  1  0.64470000  0.47530000  0.66520000  1
  O  O114  1  0.30740000  0.43530000  0.26350000  1
  O  O115  1  0.67180000  0.79390000  0.98650000  1
  O  O116  1  0.32820000  0.31470000  0.12210000  1
  O  O117  1  0.69260000  0.95610000  0.12790000  1
  O  O118  1  0.35530000  0.02050000  0.83060000  1
  O  O119  1  0.68990000  0.27470000  0.41940000  1
  O  O120  1  0.46090000  0.07770000  0.98140000  1
  O  O121  1  0.59630000  0.22950000  0.26860000  1
  O  O122  1  0.45050000  0.28730000  0.17840000  1
  O  O123  1  0.60890000  0.02210000  0.07160000  1
  O  O124  1  0.96560000  0.09760000  0.47740000  1
  O  O125  1  0.12020000  0.23820000  0.77260000  1
  O  O126  1  0.96120000  0.21110000  0.57710000  1
  O  O127  1  0.13400000  0.13410000  0.67290000  1
  O  O128  1  0.03910000  0.36680000  0.77050000  1
  O  O129  1  0.09630000  0.01860000  0.47950000  1
  O  O130  1  0.98090000  0.71030000  0.04680000  1
  O  O131  1  0.16350000  0.68410000  0.20320000  1
  O  O132  1  0.53440000  0.88200000  0.76180000  1
  O  O133  1  0.62020000  0.52260000  0.48820000  1
  O  O134  1  0.04950000  0.58680000  0.97790000  1
  O  O135  1  0.10890000  0.82160000  0.27210000  1
  O  O136  1  0.53880000  0.99990000  0.86590000  1
  O  O137  1  0.63400000  0.42290000  0.38410000  1
  O  O138  1  0.51910000  0.47940000  0.31590000  1
  O  O139  1  0.66350000  0.95320000  0.93410000  1
  O  O140  1  0.14470000  0.41520000  0.72530000  1
  O  O141  1  0.18990000  0.16940000  0.52470000  1
  O  O142  1  0.17180000  0.73650000  0.04390000  1
  O  O143  1  0.19260000  0.87790000  0.20610000  1
  P  P144  1  0.38403000  0.78300000  0.88435000  1
  P  P145  1  0.39865000  0.24968000  0.36565000  1
  P  P146  1  0.88403000  0.63435000  0.03300000  1
  P  P147  1  0.10135000  0.60103000  0.21700000  1
  P  P148  1  0.89865000  0.11565000  0.49968000  1
  P  P149  1  0.11597000  0.14897000  0.75032000  1
  P  P150  1  0.60135000  0.96700000  0.85103000  1
  P  P151  1  0.61597000  0.50032000  0.39897000  1
  Zn  Zn152  1  0.87705000  0.00205000  0.62500000  1
  Zn  Zn153  1  0.95514000  0.50169000  0.00719000  1
  Zn  Zn154  1  0.99450000  0.69795000  0.24281000  1
  Zn  Zn155  1  0.45514000  0.75719000  0.75169000  1
  Zn  Zn156  1  0.50550000  0.45345000  0.49831000  1
  Zn  Zn157  1  0.37705000  0.37500000  0.25205000  1
  Zn  Zn158  1  0.62295000  0.87500000  0.99795000  1
  Zn  Zn159  1  0.49450000  0.99281000  0.94795000  1
  Zn  Zn160  1  0.54486000  0.29655000  0.30205000  1
  Zn  Zn161  1  0.00550000  0.24831000  0.70345000  1
  Zn  Zn162  1  0.04486000  0.05205000  0.54655000  1
  Zn  Zn163  1  0.12295000  0.74795000  0.12500000  1
