# generated using pymatgen
data_Co3H32C52(N5O8)2
_symmetry_space_group_name_H-M   'P 1'
_cell_length_a   10.04060000
_cell_length_b   11.21420000
_cell_length_c   14.31000000
_cell_angle_alpha   87.45400000
_cell_angle_beta   84.29600000
_cell_angle_gamma   68.86700000
_symmetry_Int_Tables_number   1
_chemical_formula_structural   Co3H32C52(N5O8)2
_chemical_formula_sum   'Co3 H32 C52 N10 O16'
_cell_volume   1495.39775141
_cell_formula_units_Z   1
loop_
 _symmetry_equiv_pos_site_id
 _symmetry_equiv_pos_as_xyz
  1  'x, y, z'
loop_
 _atom_site_type_symbol
 _atom_site_label
 _atom_site_symmetry_multiplicity
 _atom_site_fract_x
 _atom_site_fract_y
 _atom_site_fract_z
 _atom_site_occupancy
  Co  Co0  1  0.00000000  0.50000000  0.00000000  1
  Co  Co1  1  0.17127000  0.93609000  0.57983000  1
  Co  Co2  1  0.82873000  0.06391000  0.42017000  1
  H  H3  1  0.04860000  0.54370000  0.27530000  1
  H  H4  1  0.05210000  0.89840000  0.26510000  1
  H  H5  1  0.08200000  0.24190000  0.23610000  1
  H  H6  1  0.09550000  0.21290000  0.97790000  1
  H  H7  1  0.12900000  0.49470000  0.62220000  1
  H  H8  1  0.13800000  0.69400000  0.20820000  1
  H  H9  1  0.14660000  0.66240000  0.58380000  1
  H  H10  1  0.21030000  0.18960000  0.54880000  1
  H  H11  1  0.24340000  0.44880000  0.83710000  1
  H  H12  1  0.25890000  0.04130000  0.89630000  1
  H  H13  1  0.37870000  0.04700000  0.41050000  1
  H  H14  1  0.38570000  0.80530000  0.41860000  1
  H  H15  1  0.40820000  0.45090000  0.37430000  1
  H  H16  1  0.43210000  0.07440000  0.78890000  1
  H  H17  1  0.47150000  0.78490000  0.28410000  1
  H  H18  1  0.47280000  0.26940000  0.20750000  1
  H  H19  1  0.52720000  0.73060000  0.79250000  1
  H  H20  1  0.52850000  0.21510000  0.71590000  1
  H  H21  1  0.56790000  0.92560000  0.21110000  1
  H  H22  1  0.59180000  0.54910000  0.62570000  1
  H  H23  1  0.61430000  0.19470000  0.58140000  1
  H  H24  1  0.62130000  0.95300000  0.58950000  1
  H  H25  1  0.74110000  0.95870000  0.10370000  1
  H  H26  1  0.75660000  0.55120000  0.16290000  1
  H  H27  1  0.78970000  0.81040000  0.45120000  1
  H  H28  1  0.85340000  0.33760000  0.41620000  1
  H  H29  1  0.86200000  0.30600000  0.79180000  1
  H  H30  1  0.87100000  0.50530000  0.37780000  1
  H  H31  1  0.90450000  0.78710000  0.02210000  1
  H  H32  1  0.91800000  0.75810000  0.76390000  1
  H  H33  1  0.94790000  0.10160000  0.73490000  1
  H  H34  1  0.95140000  0.45630000  0.72470000  1
  C  C35  1  0.01420000  0.62690000  0.29790000  1
  C  C36  1  0.01530000  0.83860000  0.29250000  1
  C  C37  1  0.06720000  0.71610000  0.25810000  1
  C  C38  1  0.09100000  0.33760000  0.62830000  1
  C  C39  1  0.10930000  0.08320000  0.38140000  1
  C  C40  1  0.13840000  0.21410000  0.59800000  1
  C  C41  1  0.16080000  0.22710000  0.93210000  1
  C  C42  1  0.17330000  0.21980000  0.25600000  1
  C  C43  1  0.21350000  0.13490000  0.33100000  1
  C  C44  1  0.21490000  0.65350000  0.53310000  1
  C  C45  1  0.21710000  0.43100000  0.51130000  1
  C  C46  1  0.22300000  0.36700000  0.13090000  1
  C  C47  1  0.24850000  0.36540000  0.85040000  1
  C  C48  1  0.26020000  0.12310000  0.88460000  1
  C  C49  1  0.26800000  0.53820000  0.48500000  1
  C  C50  1  0.27070000  0.27240000  0.21020000  1
  C  C51  1  0.35150000  0.10270000  0.35990000  1
  C  C52  1  0.35460000  0.26590000  0.80120000  1
  C  C53  1  0.35570000  0.73730000  0.43570000  1
  C  C54  1  0.36110000  0.14290000  0.81960000  1
  C  C55  1  0.37040000  0.52640000  0.40830000  1
  C  C56  1  0.40650000  0.88070000  0.65110000  1
  C  C57  1  0.40740000  0.23680000  0.23880000  1
  C  C58  1  0.41400000  0.62700000  0.38380000  1
  C  C59  1  0.44770000  0.15270000  0.31420000  1
  C  C60  1  0.46880000  0.38750000  0.69380000  1
  C  C61  1  0.53120000  0.61250000  0.30620000  1
  C  C62  1  0.55230000  0.84730000  0.68580000  1
  C  C63  1  0.58600000  0.37300000  0.61620000  1
  C  C64  1  0.59260000  0.76320000  0.76120000  1
  C  C65  1  0.59350000  0.11930000  0.34890000  1
  C  C66  1  0.62960000  0.47360000  0.59170000  1
  C  C67  1  0.63890000  0.85710000  0.18040000  1
  C  C68  1  0.64430000  0.26270000  0.56430000  1
  C  C69  1  0.64540000  0.73410000  0.19880000  1
  C  C70  1  0.64850000  0.89730000  0.64010000  1
  C  C71  1  0.72930000  0.72760000  0.78980000  1
  C  C72  1  0.73200000  0.46180000  0.51500000  1
  C  C73  1  0.73980000  0.87690000  0.11540000  1
  C  C74  1  0.75150000  0.63460000  0.14960000  1
  C  C75  1  0.77700000  0.63300000  0.86910000  1
  C  C76  1  0.78290000  0.56900000  0.48870000  1
  C  C77  1  0.78510000  0.34650000  0.46690000  1
  C  C78  1  0.78650000  0.86510000  0.66900000  1
  C  C79  1  0.82670000  0.78020000  0.74400000  1
  C  C80  1  0.83920000  0.77290000  0.06790000  1
  C  C81  1  0.86160000  0.78590000  0.40200000  1
  C  C82  1  0.89070000  0.91680000  0.61860000  1
  C  C83  1  0.90900000  0.66240000  0.37170000  1
  C  C84  1  0.93280000  0.28390000  0.74190000  1
  C  C85  1  0.98470000  0.16140000  0.70750000  1
  C  C86  1  0.98580000  0.37310000  0.70210000  1
  N  N87  1  0.08570000  0.12580000  0.63630000  1
  N  N88  1  0.14670000  0.42880000  0.58790000  1
  N  N89  1  0.15450000  0.34610000  0.91540000  1
  N  N90  1  0.25710000  0.75220000  0.51020000  1
  N  N91  1  0.45950000  0.28430000  0.73350000  1
  N  N92  1  0.54050000  0.71570000  0.26650000  1
  N  N93  1  0.74290000  0.24780000  0.48980000  1
  N  N94  1  0.84550000  0.65390000  0.08460000  1
  N  N95  1  0.85330000  0.57120000  0.41210000  1
  N  N96  1  0.91430000  0.87420000  0.36370000  1
  O  O97  1  0.01450000  0.88170000  0.64710000  1
  O  O98  1  0.09290000  0.40430000  0.11700000  1
  O  O99  1  0.14730000  0.00720000  0.44810000  1
  O  O100  1  0.31000000  0.84960000  0.69770000  1
  O  O101  1  0.31550000  0.40060000  0.08350000  1
  O  O102  1  0.34340000  0.30970000  0.50740000  1
  O  O103  1  0.36540000  0.49220000  0.70450000  1
  O  O104  1  0.38110000  0.94010000  0.57460000  1
  O  O105  1  0.61890000  0.05990000  0.42540000  1
  O  O106  1  0.63460000  0.50780000  0.29550000  1
  O  O107  1  0.65660000  0.69030000  0.49260000  1
  O  O108  1  0.68450000  0.59940000  0.91650000  1
  O  O109  1  0.69000000  0.15040000  0.30230000  1
  O  O110  1  0.85270000  0.99280000  0.55190000  1
  O  O111  1  0.90710000  0.59570000  0.88300000  1
  O  O112  1  0.98550000  0.11830000  0.35290000  1
