# generated using pymatgen
data_ZnH14C23NO4
_symmetry_space_group_name_H-M   'P 1'
_cell_length_a   27.73640000
_cell_length_b   27.73640000
_cell_length_c   27.73640000
_cell_angle_alpha   90.00000000
_cell_angle_beta   90.00000000
_cell_angle_gamma   90.00000000
_symmetry_Int_Tables_number   1
_chemical_formula_structural   ZnH14C23NO4
_chemical_formula_sum   'Zn12 H168 C276 N12 O48'
_cell_volume   21337.83122040
_cell_formula_units_Z   12
loop_
 _symmetry_equiv_pos_site_id
 _symmetry_equiv_pos_as_xyz
  1  'x, y, z'
loop_
 _atom_site_type_symbol
 _atom_site_label
 _atom_site_symmetry_multiplicity
 _atom_site_fract_x
 _atom_site_fract_y
 _atom_site_fract_z
 _atom_site_occupancy
  Zn  Zn0  1  0.00000000  0.19874000  0.50000000  1
  Zn  Zn1  1  0.00000000  0.30126000  0.50000000  1
  Zn  Zn2  1  0.00000000  0.69874000  0.50000000  1
  Zn  Zn3  1  0.00000000  0.80126000  0.50000000  1
  Zn  Zn4  1  0.19874000  0.50000000  0.00000000  1
  Zn  Zn5  1  0.30126000  0.50000000  0.00000000  1
  Zn  Zn6  1  0.50000000  0.00000000  0.19874000  1
  Zn  Zn7  1  0.50000000  0.00000000  0.30126000  1
  Zn  Zn8  1  0.50000000  0.00000000  0.69874000  1
  Zn  Zn9  1  0.50000000  0.00000000  0.80126000  1
  Zn  Zn10  1  0.69874000  0.50000000  0.00000000  1
  Zn  Zn11  1  0.80126000  0.50000000  0.00000000  1
  H  H12  1  0.00000000  0.37588000  0.42456000  1
  H  H13  1  0.00000000  0.37588000  0.57544000  1
  H  H14  1  0.00000000  0.46834000  0.57958000  1
  H  H15  1  0.00000000  0.47026000  0.42148000  1
  H  H16  1  0.00000000  0.52974000  0.42148000  1
  H  H17  1  0.00000000  0.53166000  0.57958000  1
  H  H18  1  0.00000000  0.62412000  0.42456000  1
  H  H19  1  0.00000000  0.62412000  0.57544000  1
  H  H20  1  0.02974000  0.50000000  0.07852000  1
  H  H21  1  0.02974000  0.50000000  0.92148000  1
  H  H22  1  0.07544000  0.12412000  0.50000000  1
  H  H23  1  0.07544000  0.87588000  0.50000000  1
  H  H24  1  0.07852000  0.02974000  0.50000000  1
  H  H25  1  0.07852000  0.97026000  0.50000000  1
  H  H26  1  0.10838000  0.17131000  0.39129000  1
  H  H27  1  0.10838000  0.17131000  0.60871000  1
  H  H28  1  0.10838000  0.82869000  0.39129000  1
  H  H29  1  0.10838000  0.82869000  0.60871000  1
  H  H30  1  0.10871000  0.32869000  0.39162000  1
  H  H31  1  0.10871000  0.32869000  0.60838000  1
  H  H32  1  0.10871000  0.67131000  0.39162000  1
  H  H33  1  0.10871000  0.67131000  0.60838000  1
  H  H34  1  0.12412000  0.50000000  0.07544000  1
  H  H35  1  0.12412000  0.50000000  0.92456000  1
  H  H36  1  0.17125000  0.32731000  0.32573000  1
  H  H37  1  0.17125000  0.32731000  0.67427000  1
  H  H38  1  0.17125000  0.67269000  0.32573000  1
  H  H39  1  0.17125000  0.67269000  0.67427000  1
  H  H40  1  0.17131000  0.39129000  0.10838000  1
  H  H41  1  0.17131000  0.39129000  0.89162000  1
  H  H42  1  0.17131000  0.60871000  0.10838000  1
  H  H43  1  0.17131000  0.60871000  0.89162000  1
  H  H44  1  0.17269000  0.32875000  0.17427000  1
  H  H45  1  0.17269000  0.32875000  0.82573000  1
  H  H46  1  0.17269000  0.67125000  0.17427000  1
  H  H47  1  0.17269000  0.67125000  0.82573000  1
  H  H48  1  0.17427000  0.17269000  0.32875000  1
  H  H49  1  0.17427000  0.17269000  0.67125000  1
  H  H50  1  0.17427000  0.82731000  0.32875000  1
  H  H51  1  0.17427000  0.82731000  0.67125000  1
  H  H52  1  0.18642000  0.31436000  0.24922000  1
  H  H53  1  0.18642000  0.31436000  0.75078000  1
  H  H54  1  0.18642000  0.68564000  0.24922000  1
  H  H55  1  0.18642000  0.68564000  0.75078000  1
  H  H56  1  0.25078000  0.18564000  0.31358000  1
  H  H57  1  0.25078000  0.18564000  0.68642000  1
  H  H58  1  0.25078000  0.81436000  0.31358000  1
  H  H59  1  0.25078000  0.81436000  0.68642000  1
  H  H60  1  0.31358000  0.25078000  0.18564000  1
  H  H61  1  0.31358000  0.25078000  0.81436000  1
  H  H62  1  0.31358000  0.74922000  0.18564000  1
  H  H63  1  0.31358000  0.74922000  0.81436000  1
  H  H64  1  0.32573000  0.17125000  0.32731000  1
  H  H65  1  0.32573000  0.17125000  0.67269000  1
  H  H66  1  0.32573000  0.82875000  0.32731000  1
  H  H67  1  0.32573000  0.82875000  0.67269000  1
  H  H68  1  0.32731000  0.32573000  0.17125000  1
  H  H69  1  0.32731000  0.32573000  0.82875000  1
  H  H70  1  0.32731000  0.67427000  0.17125000  1
  H  H71  1  0.32731000  0.67427000  0.82875000  1
  H  H72  1  0.32869000  0.39162000  0.10871000  1
  H  H73  1  0.32869000  0.39162000  0.89129000  1
  H  H74  1  0.32869000  0.60838000  0.10871000  1
  H  H75  1  0.32869000  0.60838000  0.89129000  1
  H  H76  1  0.32875000  0.17427000  0.17269000  1
  H  H77  1  0.32875000  0.17427000  0.82731000  1
  H  H78  1  0.32875000  0.82573000  0.17269000  1
  H  H79  1  0.32875000  0.82573000  0.82731000  1
  H  H80  1  0.37588000  0.42456000  0.00000000  1
  H  H81  1  0.37588000  0.57544000  0.00000000  1
  H  H82  1  0.39129000  0.10838000  0.17131000  1
  H  H83  1  0.39129000  0.10838000  0.82869000  1
  H  H84  1  0.39129000  0.89162000  0.17131000  1
  H  H85  1  0.39129000  0.89162000  0.82869000  1
  H  H86  1  0.39162000  0.10871000  0.32869000  1
  H  H87  1  0.39162000  0.10871000  0.67131000  1
  H  H88  1  0.39162000  0.89129000  0.32869000  1
  H  H89  1  0.39162000  0.89129000  0.67131000  1
  H  H90  1  0.42148000  0.00000000  0.47026000  1
  H  H91  1  0.42148000  0.00000000  0.52974000  1
  H  H92  1  0.42456000  0.00000000  0.37588000  1
  H  H93  1  0.42456000  0.00000000  0.62412000  1
  H  H94  1  0.46834000  0.57958000  0.00000000  1
  H  H95  1  0.47026000  0.42148000  0.00000000  1
  H  H96  1  0.50000000  0.07544000  0.12412000  1
  H  H97  1  0.50000000  0.07544000  0.87588000  1
  H  H98  1  0.50000000  0.07852000  0.02974000  1
  H  H99  1  0.50000000  0.07852000  0.97026000  1
  H  H100  1  0.50000000  0.92148000  0.02974000  1
  H  H101  1  0.50000000  0.92148000  0.97026000  1
  H  H102  1  0.50000000  0.92456000  0.12412000  1
  H  H103  1  0.50000000  0.92456000  0.87588000  1
  H  H104  1  0.52974000  0.42148000  0.00000000  1
  H  H105  1  0.53166000  0.57958000  0.00000000  1
  H  H106  1  0.57544000  0.00000000  0.37588000  1
  H  H107  1  0.57544000  0.00000000  0.62412000  1
  H  H108  1  0.57852000  0.00000000  0.47026000  1
  H  H109  1  0.57958000  0.00000000  0.53166000  1
  H  H110  1  0.60838000  0.10871000  0.32869000  1
  H  H111  1  0.60838000  0.10871000  0.67131000  1
  H  H112  1  0.60838000  0.89129000  0.32869000  1
  H  H113  1  0.60838000  0.89129000  0.67131000  1
  H  H114  1  0.60871000  0.10838000  0.17131000  1
  H  H115  1  0.60871000  0.10838000  0.82869000  1
  H  H116  1  0.60871000  0.89162000  0.17131000  1
  H  H117  1  0.60871000  0.89162000  0.82869000  1
  H  H118  1  0.62412000  0.42456000  0.00000000  1
  H  H119  1  0.62412000  0.57544000  0.00000000  1
  H  H120  1  0.67125000  0.17427000  0.17269000  1
  H  H121  1  0.67125000  0.17427000  0.82731000  1
  H  H122  1  0.67125000  0.82573000  0.17269000  1
  H  H123  1  0.67125000  0.82573000  0.82731000  1
  H  H124  1  0.67131000  0.39162000  0.10871000  1
  H  H125  1  0.67131000  0.39162000  0.89129000  1
  H  H126  1  0.67131000  0.60838000  0.10871000  1
  H  H127  1  0.67131000  0.60838000  0.89129000  1
  H  H128  1  0.67269000  0.32573000  0.17125000  1
  H  H129  1  0.67269000  0.32573000  0.82875000  1
  H  H130  1  0.67269000  0.67427000  0.17125000  1
  H  H131  1  0.67269000  0.67427000  0.82875000  1
  H  H132  1  0.67427000  0.17125000  0.32731000  1
  H  H133  1  0.67427000  0.17125000  0.67269000  1
  H  H134  1  0.67427000  0.82875000  0.32731000  1
  H  H135  1  0.67427000  0.82875000  0.67269000  1
  H  H136  1  0.68642000  0.25078000  0.18564000  1
  H  H137  1  0.68642000  0.25078000  0.81436000  1
  H  H138  1  0.68642000  0.74922000  0.18564000  1
  H  H139  1  0.68642000  0.74922000  0.81436000  1
  H  H140  1  0.74922000  0.18564000  0.31358000  1
  H  H141  1  0.74922000  0.18564000  0.68642000  1
  H  H142  1  0.74922000  0.81436000  0.31358000  1
  H  H143  1  0.74922000  0.81436000  0.68642000  1
  H  H144  1  0.81358000  0.31436000  0.24922000  1
  H  H145  1  0.81358000  0.31436000  0.75078000  1
  H  H146  1  0.81358000  0.68564000  0.24922000  1
  H  H147  1  0.81358000  0.68564000  0.75078000  1
  H  H148  1  0.82573000  0.17269000  0.32875000  1
  H  H149  1  0.82573000  0.17269000  0.67125000  1
  H  H150  1  0.82573000  0.82731000  0.32875000  1
  H  H151  1  0.82573000  0.82731000  0.67125000  1
  H  H152  1  0.82731000  0.32875000  0.17427000  1
  H  H153  1  0.82731000  0.32875000  0.82573000  1
  H  H154  1  0.82731000  0.67125000  0.17427000  1
  H  H155  1  0.82731000  0.67125000  0.82573000  1
  H  H156  1  0.82869000  0.39129000  0.10838000  1
  H  H157  1  0.82869000  0.39129000  0.89162000  1
  H  H158  1  0.82869000  0.60871000  0.10838000  1
  H  H159  1  0.82869000  0.60871000  0.89162000  1
  H  H160  1  0.82875000  0.32731000  0.32573000  1
  H  H161  1  0.82875000  0.32731000  0.67427000  1
  H  H162  1  0.82875000  0.67269000  0.32573000  1
  H  H163  1  0.82875000  0.67269000  0.67427000  1
  H  H164  1  0.87588000  0.50000000  0.07544000  1
  H  H165  1  0.87588000  0.50000000  0.92456000  1
  H  H166  1  0.89129000  0.32869000  0.39162000  1
  H  H167  1  0.89129000  0.32869000  0.60838000  1
  H  H168  1  0.89129000  0.67131000  0.39162000  1
  H  H169  1  0.89129000  0.67131000  0.60838000  1
  H  H170  1  0.89162000  0.17131000  0.39129000  1
  H  H171  1  0.89162000  0.17131000  0.60871000  1
  H  H172  1  0.89162000  0.82869000  0.39129000  1
  H  H173  1  0.89162000  0.82869000  0.60871000  1
  H  H174  1  0.92148000  0.02974000  0.50000000  1
  H  H175  1  0.92148000  0.97026000  0.50000000  1
  H  H176  1  0.92456000  0.12412000  0.50000000  1
  H  H177  1  0.92456000  0.87588000  0.50000000  1
  H  H178  1  0.97026000  0.50000000  0.07852000  1
  H  H179  1  0.97026000  0.50000000  0.92148000  1
  C  C180  1  0.00000000  0.02621000  0.50000000  1
  C  C181  1  0.00000000  0.39800000  0.45920000  1
  C  C182  1  0.00000000  0.39800000  0.54080000  1
  C  C183  1  0.00000000  0.44940000  0.45690000  1
  C  C184  1  0.00000000  0.44940000  0.54310000  1
  C  C185  1  0.00000000  0.47379000  0.50000000  1
  C  C186  1  0.00000000  0.52621000  0.50000000  1
  C  C187  1  0.00000000  0.55060000  0.45690000  1
  C  C188  1  0.00000000  0.55060000  0.54310000  1
  C  C189  1  0.00000000  0.60200000  0.45920000  1
  C  C190  1  0.00000000  0.60200000  0.54080000  1
  C  C191  1  0.00000000  0.97379000  0.50000000  1
  C  C192  1  0.02621000  0.50000000  0.00000000  1
  C  C193  1  0.04080000  0.10200000  0.50000000  1
  C  C194  1  0.04080000  0.89800000  0.50000000  1
  C  C195  1  0.04310000  0.05060000  0.50000000  1
  C  C196  1  0.04310000  0.94940000  0.50000000  1
  C  C197  1  0.05060000  0.50000000  0.04310000  1
  C  C198  1  0.05060000  0.50000000  0.95690000  1
  C  C199  1  0.06663000  0.25000000  0.43337000  1
  C  C200  1  0.06663000  0.25000000  0.56663000  1
  C  C201  1  0.06663000  0.75000000  0.43337000  1
  C  C202  1  0.06663000  0.75000000  0.56663000  1
  C  C203  1  0.10200000  0.50000000  0.04080000  1
  C  C204  1  0.10200000  0.50000000  0.95920000  1
  C  C205  1  0.10427000  0.25000000  0.39573000  1
  C  C206  1  0.10427000  0.25000000  0.60427000  1
  C  C207  1  0.10427000  0.75000000  0.39573000  1
  C  C208  1  0.10427000  0.75000000  0.60427000  1
  C  C209  1  0.12257000  0.29279000  0.37718000  1
  C  C210  1  0.12257000  0.29279000  0.62282000  1
  C  C211  1  0.12257000  0.70721000  0.37718000  1
  C  C212  1  0.12257000  0.70721000  0.62282000  1
  C  C213  1  0.12282000  0.20721000  0.37743000  1
  C  C214  1  0.12282000  0.20721000  0.62257000  1
  C  C215  1  0.12282000  0.79279000  0.37743000  1
  C  C216  1  0.12282000  0.79279000  0.62257000  1
  C  C217  1  0.15727000  0.29204000  0.34154000  1
  C  C218  1  0.15727000  0.29204000  0.65846000  1
  C  C219  1  0.15727000  0.70796000  0.34154000  1
  C  C220  1  0.15727000  0.70796000  0.65846000  1
  C  C221  1  0.15846000  0.20796000  0.34273000  1
  C  C222  1  0.15846000  0.20796000  0.65727000  1
  C  C223  1  0.15846000  0.79204000  0.34273000  1
  C  C224  1  0.15846000  0.79204000  0.65727000  1
  C  C225  1  0.17615000  0.25000000  0.32385000  1
  C  C226  1  0.17615000  0.25000000  0.67615000  1
  C  C227  1  0.17615000  0.75000000  0.32385000  1
  C  C228  1  0.17615000  0.75000000  0.67615000  1
  C  C229  1  0.20721000  0.37743000  0.12282000  1
  C  C230  1  0.20721000  0.37743000  0.87718000  1
  C  C231  1  0.20721000  0.62257000  0.12282000  1
  C  C232  1  0.20721000  0.62257000  0.87718000  1
  C  C233  1  0.20796000  0.34273000  0.15846000  1
  C  C234  1  0.20796000  0.34273000  0.84154000  1
  C  C235  1  0.20796000  0.65727000  0.15846000  1
  C  C236  1  0.20796000  0.65727000  0.84154000  1
  C  C237  1  0.21414000  0.25000000  0.28586000  1
  C  C238  1  0.21414000  0.25000000  0.71414000  1
  C  C239  1  0.21414000  0.75000000  0.28586000  1
  C  C240  1  0.21414000  0.75000000  0.71414000  1
  C  C241  1  0.21509000  0.28491000  0.25000000  1
  C  C242  1  0.21509000  0.28491000  0.75000000  1
  C  C243  1  0.21509000  0.71509000  0.25000000  1
  C  C244  1  0.21509000  0.71509000  0.75000000  1
  C  C245  1  0.25000000  0.21509000  0.28491000  1
  C  C246  1  0.25000000  0.21509000  0.71509000  1
  C  C247  1  0.25000000  0.28586000  0.21414000  1
  C  C248  1  0.25000000  0.28586000  0.78586000  1
  C  C249  1  0.25000000  0.32385000  0.17615000  1
  C  C250  1  0.25000000  0.32385000  0.82385000  1
  C  C251  1  0.25000000  0.39573000  0.10427000  1
  C  C252  1  0.25000000  0.39573000  0.89573000  1
  C  C253  1  0.25000000  0.43337000  0.06663000  1
  C  C254  1  0.25000000  0.43337000  0.93337000  1
  C  C255  1  0.25000000  0.56663000  0.06663000  1
  C  C256  1  0.25000000  0.56663000  0.93337000  1
  C  C257  1  0.25000000  0.60427000  0.10427000  1
  C  C258  1  0.25000000  0.60427000  0.89573000  1
  C  C259  1  0.25000000  0.67615000  0.17615000  1
  C  C260  1  0.25000000  0.67615000  0.82385000  1
  C  C261  1  0.25000000  0.71414000  0.21414000  1
  C  C262  1  0.25000000  0.71414000  0.78586000  1
  C  C263  1  0.25000000  0.78491000  0.28491000  1
  C  C264  1  0.25000000  0.78491000  0.71509000  1
  C  C265  1  0.28491000  0.25000000  0.21509000  1
  C  C266  1  0.28491000  0.25000000  0.78491000  1
  C  C267  1  0.28491000  0.75000000  0.21509000  1
  C  C268  1  0.28491000  0.75000000  0.78491000  1
  C  C269  1  0.28586000  0.21414000  0.25000000  1
  C  C270  1  0.28586000  0.21414000  0.75000000  1
  C  C271  1  0.28586000  0.78586000  0.25000000  1
  C  C272  1  0.28586000  0.78586000  0.75000000  1
  C  C273  1  0.29204000  0.34154000  0.15727000  1
  C  C274  1  0.29204000  0.34154000  0.84273000  1
  C  C275  1  0.29204000  0.65846000  0.15727000  1
  C  C276  1  0.29204000  0.65846000  0.84273000  1
  C  C277  1  0.29279000  0.37718000  0.12257000  1
  C  C278  1  0.29279000  0.37718000  0.87743000  1
  C  C279  1  0.29279000  0.62282000  0.12257000  1
  C  C280  1  0.29279000  0.62282000  0.87743000  1
  C  C281  1  0.32385000  0.17615000  0.25000000  1
  C  C282  1  0.32385000  0.17615000  0.75000000  1
  C  C283  1  0.32385000  0.82385000  0.25000000  1
  C  C284  1  0.32385000  0.82385000  0.75000000  1
  C  C285  1  0.34154000  0.15727000  0.29204000  1
  C  C286  1  0.34154000  0.15727000  0.70796000  1
  C  C287  1  0.34154000  0.84273000  0.29204000  1
  C  C288  1  0.34154000  0.84273000  0.70796000  1
  C  C289  1  0.34273000  0.15846000  0.20796000  1
  C  C290  1  0.34273000  0.15846000  0.79204000  1
  C  C291  1  0.34273000  0.84154000  0.20796000  1
  C  C292  1  0.34273000  0.84154000  0.79204000  1
  C  C293  1  0.37718000  0.12257000  0.29279000  1
  C  C294  1  0.37718000  0.12257000  0.70721000  1
  C  C295  1  0.37718000  0.87743000  0.29279000  1
  C  C296  1  0.37718000  0.87743000  0.70721000  1
  C  C297  1  0.37743000  0.12282000  0.20721000  1
  C  C298  1  0.37743000  0.12282000  0.79279000  1
  C  C299  1  0.37743000  0.87718000  0.20721000  1
  C  C300  1  0.37743000  0.87718000  0.79279000  1
  C  C301  1  0.39573000  0.10427000  0.25000000  1
  C  C302  1  0.39573000  0.10427000  0.75000000  1
  C  C303  1  0.39573000  0.89573000  0.25000000  1
  C  C304  1  0.39573000  0.89573000  0.75000000  1
  C  C305  1  0.39800000  0.45920000  0.00000000  1
  C  C306  1  0.39800000  0.54080000  0.00000000  1
  C  C307  1  0.43337000  0.06663000  0.25000000  1
  C  C308  1  0.43337000  0.06663000  0.75000000  1
  C  C309  1  0.43337000  0.93337000  0.25000000  1
  C  C310  1  0.43337000  0.93337000  0.75000000  1
  C  C311  1  0.44940000  0.45690000  0.00000000  1
  C  C312  1  0.44940000  0.54310000  0.00000000  1
  C  C313  1  0.45690000  0.00000000  0.44940000  1
  C  C314  1  0.45690000  0.00000000  0.55060000  1
  C  C315  1  0.45920000  0.00000000  0.39800000  1
  C  C316  1  0.45920000  0.00000000  0.60200000  1
  C  C317  1  0.47379000  0.50000000  0.00000000  1
  C  C318  1  0.50000000  0.00000000  0.02621000  1
  C  C319  1  0.50000000  0.00000000  0.47379000  1
  C  C320  1  0.50000000  0.00000000  0.52621000  1
  C  C321  1  0.50000000  0.00000000  0.97379000  1
  C  C322  1  0.50000000  0.04080000  0.10200000  1
  C  C323  1  0.50000000  0.04080000  0.89800000  1
  C  C324  1  0.50000000  0.04310000  0.05060000  1
  C  C325  1  0.50000000  0.04310000  0.94940000  1
  C  C326  1  0.50000000  0.95690000  0.05060000  1
  C  C327  1  0.50000000  0.95690000  0.94940000  1
  C  C328  1  0.50000000  0.95920000  0.10200000  1
  C  C329  1  0.50000000  0.95920000  0.89800000  1
  C  C330  1  0.52621000  0.50000000  0.00000000  1
  C  C331  1  0.54080000  0.00000000  0.39800000  1
  C  C332  1  0.54080000  0.00000000  0.60200000  1
  C  C333  1  0.54310000  0.00000000  0.44940000  1
  C  C334  1  0.54310000  0.00000000  0.55060000  1
  C  C335  1  0.55060000  0.45690000  0.00000000  1
  C  C336  1  0.55060000  0.54310000  0.00000000  1
  C  C337  1  0.56663000  0.06663000  0.25000000  1
  C  C338  1  0.56663000  0.06663000  0.75000000  1
  C  C339  1  0.56663000  0.93337000  0.25000000  1
  C  C340  1  0.56663000  0.93337000  0.75000000  1
  C  C341  1  0.60200000  0.45920000  0.00000000  1
  C  C342  1  0.60200000  0.54080000  0.00000000  1
  C  C343  1  0.60427000  0.10427000  0.25000000  1
  C  C344  1  0.60427000  0.10427000  0.75000000  1
  C  C345  1  0.60427000  0.89573000  0.25000000  1
  C  C346  1  0.60427000  0.89573000  0.75000000  1
  C  C347  1  0.62257000  0.12282000  0.20721000  1
  C  C348  1  0.62257000  0.12282000  0.79279000  1
  C  C349  1  0.62257000  0.87718000  0.20721000  1
  C  C350  1  0.62257000  0.87718000  0.79279000  1
  C  C351  1  0.62282000  0.12257000  0.29279000  1
  C  C352  1  0.62282000  0.12257000  0.70721000  1
  C  C353  1  0.62282000  0.87743000  0.29279000  1
  C  C354  1  0.62282000  0.87743000  0.70721000  1
  C  C355  1  0.65727000  0.15846000  0.20796000  1
  C  C356  1  0.65727000  0.15846000  0.79204000  1
  C  C357  1  0.65727000  0.84154000  0.20796000  1
  C  C358  1  0.65727000  0.84154000  0.79204000  1
  C  C359  1  0.65846000  0.15727000  0.29204000  1
  C  C360  1  0.65846000  0.15727000  0.70796000  1
  C  C361  1  0.65846000  0.84273000  0.29204000  1
  C  C362  1  0.65846000  0.84273000  0.70796000  1
  C  C363  1  0.67615000  0.17615000  0.25000000  1
  C  C364  1  0.67615000  0.17615000  0.75000000  1
  C  C365  1  0.67615000  0.82385000  0.25000000  1
  C  C366  1  0.67615000  0.82385000  0.75000000  1
  C  C367  1  0.70721000  0.37718000  0.12257000  1
  C  C368  1  0.70721000  0.37718000  0.87743000  1
  C  C369  1  0.70721000  0.62282000  0.12257000  1
  C  C370  1  0.70721000  0.62282000  0.87743000  1
  C  C371  1  0.70796000  0.34154000  0.15727000  1
  C  C372  1  0.70796000  0.34154000  0.84273000  1
  C  C373  1  0.70796000  0.65846000  0.15727000  1
  C  C374  1  0.70796000  0.65846000  0.84273000  1
  C  C375  1  0.71414000  0.21414000  0.25000000  1
  C  C376  1  0.71414000  0.21414000  0.75000000  1
  C  C377  1  0.71414000  0.78586000  0.25000000  1
  C  C378  1  0.71414000  0.78586000  0.75000000  1
  C  C379  1  0.71509000  0.25000000  0.21509000  1
  C  C380  1  0.71509000  0.25000000  0.78491000  1
  C  C381  1  0.71509000  0.75000000  0.21509000  1
  C  C382  1  0.71509000  0.75000000  0.78491000  1
  C  C383  1  0.75000000  0.21509000  0.28491000  1
  C  C384  1  0.75000000  0.21509000  0.71509000  1
  C  C385  1  0.75000000  0.28586000  0.21414000  1
  C  C386  1  0.75000000  0.28586000  0.78586000  1
  C  C387  1  0.75000000  0.32385000  0.17615000  1
  C  C388  1  0.75000000  0.32385000  0.82385000  1
  C  C389  1  0.75000000  0.39573000  0.10427000  1
  C  C390  1  0.75000000  0.39573000  0.89573000  1
  C  C391  1  0.75000000  0.43337000  0.06663000  1
  C  C392  1  0.75000000  0.43337000  0.93337000  1
  C  C393  1  0.75000000  0.56663000  0.06663000  1
  C  C394  1  0.75000000  0.56663000  0.93337000  1
  C  C395  1  0.75000000  0.60427000  0.10427000  1
  C  C396  1  0.75000000  0.60427000  0.89573000  1
  C  C397  1  0.75000000  0.67615000  0.17615000  1
  C  C398  1  0.75000000  0.67615000  0.82385000  1
  C  C399  1  0.75000000  0.71414000  0.21414000  1
  C  C400  1  0.75000000  0.71414000  0.78586000  1
  C  C401  1  0.75000000  0.78491000  0.28491000  1
  C  C402  1  0.75000000  0.78491000  0.71509000  1
  C  C403  1  0.78491000  0.28491000  0.25000000  1
  C  C404  1  0.78491000  0.28491000  0.75000000  1
  C  C405  1  0.78491000  0.71509000  0.25000000  1
  C  C406  1  0.78491000  0.71509000  0.75000000  1
  C  C407  1  0.78586000  0.25000000  0.28586000  1
  C  C408  1  0.78586000  0.25000000  0.71414000  1
  C  C409  1  0.78586000  0.75000000  0.28586000  1
  C  C410  1  0.78586000  0.75000000  0.71414000  1
  C  C411  1  0.79204000  0.34273000  0.15846000  1
  C  C412  1  0.79204000  0.34273000  0.84154000  1
  C  C413  1  0.79204000  0.65727000  0.15846000  1
  C  C414  1  0.79204000  0.65727000  0.84154000  1
  C  C415  1  0.79279000  0.37743000  0.12282000  1
  C  C416  1  0.79279000  0.37743000  0.87718000  1
  C  C417  1  0.79279000  0.62257000  0.12282000  1
  C  C418  1  0.79279000  0.62257000  0.87718000  1
  C  C419  1  0.82385000  0.25000000  0.32385000  1
  C  C420  1  0.82385000  0.25000000  0.67615000  1
  C  C421  1  0.82385000  0.75000000  0.32385000  1
  C  C422  1  0.82385000  0.75000000  0.67615000  1
  C  C423  1  0.84154000  0.20796000  0.34273000  1
  C  C424  1  0.84154000  0.20796000  0.65727000  1
  C  C425  1  0.84154000  0.79204000  0.34273000  1
  C  C426  1  0.84154000  0.79204000  0.65727000  1
  C  C427  1  0.84273000  0.29204000  0.34154000  1
  C  C428  1  0.84273000  0.29204000  0.65846000  1
  C  C429  1  0.84273000  0.70796000  0.34154000  1
  C  C430  1  0.84273000  0.70796000  0.65846000  1
  C  C431  1  0.87718000  0.20721000  0.37743000  1
  C  C432  1  0.87718000  0.20721000  0.62257000  1
  C  C433  1  0.87718000  0.79279000  0.37743000  1
  C  C434  1  0.87718000  0.79279000  0.62257000  1
  C  C435  1  0.87743000  0.29279000  0.37718000  1
  C  C436  1  0.87743000  0.29279000  0.62282000  1
  C  C437  1  0.87743000  0.70721000  0.37718000  1
  C  C438  1  0.87743000  0.70721000  0.62282000  1
  C  C439  1  0.89573000  0.25000000  0.39573000  1
  C  C440  1  0.89573000  0.25000000  0.60427000  1
  C  C441  1  0.89573000  0.75000000  0.39573000  1
  C  C442  1  0.89573000  0.75000000  0.60427000  1
  C  C443  1  0.89800000  0.50000000  0.04080000  1
  C  C444  1  0.89800000  0.50000000  0.95920000  1
  C  C445  1  0.93337000  0.25000000  0.43337000  1
  C  C446  1  0.93337000  0.25000000  0.56663000  1
  C  C447  1  0.93337000  0.75000000  0.43337000  1
  C  C448  1  0.93337000  0.75000000  0.56663000  1
  C  C449  1  0.94940000  0.50000000  0.04310000  1
  C  C450  1  0.94940000  0.50000000  0.95690000  1
  C  C451  1  0.95690000  0.05060000  0.50000000  1
  C  C452  1  0.95690000  0.94940000  0.50000000  1
  C  C453  1  0.95920000  0.10200000  0.50000000  1
  C  C454  1  0.95920000  0.89800000  0.50000000  1
  C  C455  1  0.97379000  0.50000000  0.00000000  1
  N  N456  1  0.00000000  0.12589000  0.50000000  1
  N  N457  1  0.00000000  0.37411000  0.50000000  1
  N  N458  1  0.00000000  0.62589000  0.50000000  1
  N  N459  1  0.00000000  0.87411000  0.50000000  1
  N  N460  1  0.12589000  0.50000000  0.00000000  1
  N  N461  1  0.37411000  0.50000000  0.00000000  1
  N  N462  1  0.50000000  0.00000000  0.12589000  1
  N  N463  1  0.50000000  0.00000000  0.37411000  1
  N  N464  1  0.50000000  0.00000000  0.62589000  1
  N  N465  1  0.50000000  0.00000000  0.87411000  1
  N  N466  1  0.62589000  0.50000000  0.00000000  1
  N  N467  1  0.87411000  0.50000000  0.00000000  1
  O  O468  1  0.05142000  0.28961000  0.44838000  1
  O  O469  1  0.05142000  0.28961000  0.55162000  1
  O  O470  1  0.05142000  0.71039000  0.44838000  1
  O  O471  1  0.05142000  0.71039000  0.55162000  1
  O  O472  1  0.05162000  0.21039000  0.44858000  1
  O  O473  1  0.05162000  0.21039000  0.55142000  1
  O  O474  1  0.05162000  0.78961000  0.44858000  1
  O  O475  1  0.05162000  0.78961000  0.55142000  1
  O  O476  1  0.21039000  0.44858000  0.05162000  1
  O  O477  1  0.21039000  0.44858000  0.94838000  1
  O  O478  1  0.21039000  0.55142000  0.05162000  1
  O  O479  1  0.21039000  0.55142000  0.94838000  1
  O  O480  1  0.28961000  0.44838000  0.05142000  1
  O  O481  1  0.28961000  0.44838000  0.94858000  1
  O  O482  1  0.28961000  0.55162000  0.05142000  1
  O  O483  1  0.28961000  0.55162000  0.94858000  1
  O  O484  1  0.44838000  0.05142000  0.28961000  1
  O  O485  1  0.44838000  0.05142000  0.71039000  1
  O  O486  1  0.44838000  0.94858000  0.28961000  1
  O  O487  1  0.44838000  0.94858000  0.71039000  1
  O  O488  1  0.44858000  0.05162000  0.21039000  1
  O  O489  1  0.44858000  0.05162000  0.78961000  1
  O  O490  1  0.44858000  0.94838000  0.21039000  1
  O  O491  1  0.44858000  0.94838000  0.78961000  1
  O  O492  1  0.55142000  0.05162000  0.21039000  1
  O  O493  1  0.55142000  0.05162000  0.78961000  1
  O  O494  1  0.55142000  0.94838000  0.21039000  1
  O  O495  1  0.55142000  0.94838000  0.78961000  1
  O  O496  1  0.55162000  0.05142000  0.28961000  1
  O  O497  1  0.55162000  0.05142000  0.71039000  1
  O  O498  1  0.55162000  0.94858000  0.28961000  1
  O  O499  1  0.55162000  0.94858000  0.71039000  1
  O  O500  1  0.71039000  0.44838000  0.05142000  1
  O  O501  1  0.71039000  0.44838000  0.94858000  1
  O  O502  1  0.71039000  0.55162000  0.05142000  1
  O  O503  1  0.71039000  0.55162000  0.94858000  1
  O  O504  1  0.78961000  0.44858000  0.05162000  1
  O  O505  1  0.78961000  0.44858000  0.94838000  1
  O  O506  1  0.78961000  0.55142000  0.05162000  1
  O  O507  1  0.78961000  0.55142000  0.94838000  1
  O  O508  1  0.94838000  0.21039000  0.44858000  1
  O  O509  1  0.94838000  0.21039000  0.55142000  1
  O  O510  1  0.94838000  0.78961000  0.44858000  1
  O  O511  1  0.94838000  0.78961000  0.55142000  1
  O  O512  1  0.94858000  0.28961000  0.44838000  1
  O  O513  1  0.94858000  0.28961000  0.55162000  1
  O  O514  1  0.94858000  0.71039000  0.44838000  1
  O  O515  1  0.94858000  0.71039000  0.55162000  1
