# generated using pymatgen
data_ZnH16C16N3O5
_symmetry_space_group_name_H-M   'P 1'
_cell_length_a   10.51210000
_cell_length_b   14.76140000
_cell_length_c   14.77701306
_cell_angle_alpha   115.15057806
_cell_angle_beta   110.83579782
_cell_angle_gamma   90.00000000
_symmetry_Int_Tables_number   1
_chemical_formula_structural   ZnH16C16N3O5
_chemical_formula_sum   'Zn4 H64 C64 N12 O20'
_cell_volume   1908.65072271
_cell_formula_units_Z   4
loop_
 _symmetry_equiv_pos_site_id
 _symmetry_equiv_pos_as_xyz
  1  'x, y, z'
loop_
 _atom_site_type_symbol
 _atom_site_label
 _atom_site_symmetry_multiplicity
 _atom_site_fract_x
 _atom_site_fract_y
 _atom_site_fract_z
 _atom_site_occupancy
  C  C0  1  0.27940000  0.76390000  0.06240000  1
  C  C1  1  0.78300000  0.26390000  0.06240000  1
  C  C2  1  0.20240000  0.83390000  0.12440000  1
  C  C3  1  0.92200000  0.33390000  0.12440000  1
  C  C4  1  0.08690000  0.08740000  0.14220000  1
  C  C5  1  0.05530000  0.58740000  0.14220000  1
  C  C6  1  0.19230000  0.17250000  0.19780000  1
  C  C7  1  0.00550000  0.67250000  0.19780000  1
  C  C8  1  0.16730000  0.55510000  0.19940000  1
  C  C9  1  0.03210000  0.05510000  0.19940000  1
  C  C10  1  0.27600000  0.87690000  0.24700000  1
  C  C11  1  0.97100000  0.37690000  0.24700000  1
  C  C12  1  0.45470000  0.00970000  0.27220000  1
  C  C13  1  0.81750000  0.50970000  0.27220000  1
  C  C14  1  0.23849000  0.22850000  0.31058000  1
  C  C15  1  0.07209000  0.72850000  0.31058000  1
  C  C16  1  0.59460000  0.02770000  0.31060000  1
  C  C17  1  0.71600000  0.52770000  0.31060000  1
  C  C18  1  0.22675000  0.60840000  0.31230000  1
  C  C19  1  0.08555000  0.10840000  0.31230000  1
  C  C20  1  0.53580000  0.89740000  0.32820000  1
  C  C21  1  0.79240000  0.39740000  0.32820000  1
  C  C22  1  0.54090000  0.81100000  0.35640000  1
  C  C23  1  0.81550000  0.31100000  0.35640000  1
  C  C24  1  0.18595000  0.19520000  0.36770000  1
  C  C25  1  0.18175000  0.69520000  0.36770000  1
  C  C26  1  0.34622000  0.32470000  0.37264000  1
  C  C27  1  0.02642000  0.82470000  0.37264000  1
  C  C28  1  0.33770000  0.56920000  0.37780000  1
  C  C29  1  0.04010000  0.06920000  0.37780000  1
  C  C30  1  0.51600000  0.83990000  0.46060000  1
  C  C31  1  0.94460000  0.33990000  0.46060000  1
  C  C32  1  0.48400000  0.16010000  0.53940000  1
  C  C33  1  0.05540000  0.66010000  0.53940000  1
  C  C34  1  0.66230000  0.43080000  0.62220000  1
  C  C35  1  0.95990000  0.93080000  0.62220000  1
  C  C36  1  0.65378000  0.67530000  0.62736000  1
  C  C37  1  0.97358000  0.17530000  0.62736000  1
  C  C38  1  0.81405000  0.80480000  0.63230000  1
  C  C39  1  0.81825000  0.30480000  0.63230000  1
  C  C40  1  0.45910000  0.18900000  0.64360000  1
  C  C41  1  0.18450000  0.68900000  0.64360000  1
  C  C42  1  0.46420000  0.10260000  0.67180000  1
  C  C43  1  0.20760000  0.60260000  0.67180000  1
  C  C44  1  0.77325000  0.39160000  0.68770000  1
  C  C45  1  0.91445000  0.89160000  0.68770000  1
  C  C46  1  0.40540000  0.97230000  0.68940000  1
  C  C47  1  0.28400000  0.47230000  0.68940000  1
  C  C48  1  0.76151000  0.77150000  0.68942000  1
  C  C49  1  0.92791000  0.27150000  0.68942000  1
  C  C50  1  0.54530000  0.99030000  0.72780000  1
  C  C51  1  0.18250000  0.49030000  0.72780000  1
  C  C52  1  0.72400000  0.12310000  0.75300000  1
  C  C53  1  0.02900000  0.62310000  0.75300000  1
  C  C54  1  0.83270000  0.44490000  0.80060000  1
  C  C55  1  0.96790000  0.94490000  0.80060000  1
  C  C56  1  0.80770000  0.82750000  0.80220000  1
  C  C57  1  0.99450000  0.32750000  0.80220000  1
  C  C58  1  0.91310000  0.91260000  0.85780000  1
  C  C59  1  0.94470000  0.41260000  0.85780000  1
  C  C60  1  0.79760000  0.16610000  0.87560000  1
  C  C61  1  0.07800000  0.66610000  0.87560000  1
  C  C62  1  0.72060000  0.23610000  0.93760000  1
  C  C63  1  0.21700000  0.73610000  0.93760000  1
  H  H64  1  0.27700000  0.70180000  0.06980000  1
  H  H65  1  0.79280000  0.20180000  0.06980000  1
  H  H66  1  0.37550000  0.79640000  0.09440000  1
  H  H67  1  0.71890000  0.29640000  0.09440000  1
  H  H68  1  0.11140000  0.79670000  0.10140000  1
  H  H69  1  0.99000000  0.29670000  0.10140000  1
  H  H70  1  0.18960000  0.88980000  0.10580000  1
  H  H71  1  0.91620000  0.38980000  0.10580000  1
  H  H72  1  0.23140000  0.19170000  0.15980000  1
  H  H73  1  0.92840000  0.69170000  0.15980000  1
  H  H74  1  0.20130000  0.49900000  0.16260000  1
  H  H75  1  0.96130000  0.99900000  0.16260000  1
  H  H76  1  0.39490000  0.04620000  0.24400000  1
  H  H77  1  0.84910000  0.54620000  0.24400000  1
  H  H78  1  0.27690000  0.82250000  0.26740000  1
  H  H79  1  0.99050000  0.32250000  0.26740000  1
  H  H80  1  0.22640000  0.92610000  0.28220000  1
  H  H81  1  0.05580000  0.42610000  0.28220000  1
  H  H82  1  0.47120000  0.75340000  0.29680000  1
  H  H83  1  0.82560000  0.25340000  0.29680000  1
  H  H84  1  0.64830000  0.07950000  0.31320000  1
  H  H85  1  0.66490000  0.57950000  0.31320000  1
  H  H86  1  0.63060000  0.79070000  0.36580000  1
  H  H87  1  0.73520000  0.29070000  0.36580000  1
  H  H88  1  0.22470000  0.73120000  0.44300000  1
  H  H89  1  0.21830000  0.23120000  0.44300000  1
  H  H90  1  0.42580000  0.85760000  0.45040000  1
  H  H91  1  0.02460000  0.35760000  0.45040000  1
  H  H92  1  0.52180000  0.78330000  0.47680000  1
  H  H93  1  0.95500000  0.28330000  0.47680000  1
  H  H94  1  0.41510000  0.10300000  0.48020000  1
  H  H95  1  0.06510000  0.60300000  0.48020000  1
  H  H96  1  0.58490000  0.89700000  0.51980000  1
  H  H97  1  0.93490000  0.39700000  0.51980000  1
  H  H98  1  0.47820000  0.21670000  0.52320000  1
  H  H99  1  0.04500000  0.71670000  0.52320000  1
  H  H100  1  0.57420000  0.14240000  0.54960000  1
  H  H101  1  0.97540000  0.64240000  0.54960000  1
  H  H102  1  0.77530000  0.26880000  0.55700000  1
  H  H103  1  0.78170000  0.76880000  0.55700000  1
  H  H104  1  0.36940000  0.20930000  0.63420000  1
  H  H105  1  0.26480000  0.70930000  0.63420000  1
  H  H106  1  0.35170000  0.92050000  0.68680000  1
  H  H107  1  0.33510000  0.42050000  0.68680000  1
  H  H108  1  0.52880000  0.24660000  0.70320000  1
  H  H109  1  0.17440000  0.74660000  0.70320000  1
  H  H110  1  0.77360000  0.07390000  0.71780000  1
  H  H111  1  0.94420000  0.57390000  0.71780000  1
  H  H112  1  0.72310000  0.17750000  0.73260000  1
  H  H113  1  0.00950000  0.67750000  0.73260000  1
  H  H114  1  0.60510000  0.95380000  0.75600000  1
  H  H115  1  0.15090000  0.45380000  0.75600000  1
  H  H116  1  0.79870000  0.50100000  0.83740000  1
  H  H117  1  0.03870000  0.00100000  0.83740000  1
  H  H118  1  0.76860000  0.80830000  0.84020000  1
  H  H119  1  0.07160000  0.30830000  0.84020000  1
  H  H120  1  0.81040000  0.11020000  0.89420000  1
  H  H121  1  0.08380000  0.61020000  0.89420000  1
  H  H122  1  0.88860000  0.20330000  0.89860000  1
  H  H123  1  0.01000000  0.70330000  0.89860000  1
  H  H124  1  0.62450000  0.20360000  0.90560000  1
  H  H125  1  0.28110000  0.70360000  0.90560000  1
  H  H126  1  0.72300000  0.29820000  0.93020000  1
  H  H127  1  0.20720000  0.79820000  0.93020000  1
  N  N128  1  0.04720000  0.03640000  0.02800000  1
  N  N129  1  0.98080000  0.53640000  0.02800000  1
  N  N130  1  0.41890000  0.92620000  0.28360000  1
  N  N131  1  0.86470000  0.42620000  0.28360000  1
  N  N132  1  0.64485000  0.95680000  0.34550000  1
  N  N133  1  0.70065000  0.45680000  0.34550000  1
  N  N134  1  0.35515000  0.04320000  0.65450000  1
  N  N135  1  0.29935000  0.54320000  0.65450000  1
  N  N136  1  0.58110000  0.07380000  0.71640000  1
  N  N137  1  0.13530000  0.57380000  0.71640000  1
  N  N138  1  0.95280000  0.96360000  0.97200000  1
  N  N139  1  0.01920000  0.46360000  0.97200000  1
  O  O140  1  0.12540000  0.42130000  0.00380000  1
  O  O141  1  0.87840000  0.92130000  0.00380000  1
  O  O142  1  0.42941000  0.33200000  0.33182000  1
  O  O143  1  0.90241000  0.83200000  0.33182000  1
  O  O144  1  0.41961000  0.52500000  0.33822000  1
  O  O145  1  0.91861000  0.02500000  0.33822000  1
  O  O146  1  0.34290000  0.38840000  0.46060000  1
  O  O147  1  0.11770000  0.88840000  0.46060000  1
  O  O148  1  0.33521000  0.58470000  0.46722000  1
  O  O149  1  0.13201000  0.08470000  0.46722000  1
  O  O150  1  0.66479000  0.41530000  0.53278000  1
  O  O151  1  0.86799000  0.91530000  0.53278000  1
  O  O152  1  0.65710000  0.61160000  0.53940000  1
  O  O153  1  0.88230000  0.11160000  0.53940000  1
  O  O154  1  0.58039000  0.47500000  0.66178000  1
  O  O155  1  0.08139000  0.97500000  0.66178000  1
  O  O156  1  0.57059000  0.66800000  0.66818000  1
  O  O157  1  0.09759000  0.16800000  0.66818000  1
  O  O158  1  0.87460000  0.57870000  0.99620000  1
  O  O159  1  0.12160000  0.07870000  0.99620000  1
  Zn  Zn160  1  0.56908000  0.46452000  0.41816000  1
  Zn  Zn161  1  0.84908000  0.96452000  0.41816000  1
  Zn  Zn162  1  0.43092000  0.53548000  0.58184000  1
  Zn  Zn163  1  0.15092000  0.03548000  0.58184000  1
