# generated using pymatgen
data_Zn4C60O7
_symmetry_space_group_name_H-M   'P 1'
_cell_length_a   30.96473831
_cell_length_b   30.96473831
_cell_length_c   30.96473831
_cell_angle_alpha   109.47122063
_cell_angle_beta   109.47122063
_cell_angle_gamma   109.47122063
_symmetry_Int_Tables_number   1
_chemical_formula_structural   Zn4C60O7
_chemical_formula_sum   'Zn16 C240 O28'
_cell_volume   22854.95399694
_cell_formula_units_Z   4
loop_
 _symmetry_equiv_pos_site_id
 _symmetry_equiv_pos_as_xyz
  1  'x, y, z'
loop_
 _atom_site_type_symbol
 _atom_site_label
 _atom_site_symmetry_multiplicity
 _atom_site_fract_x
 _atom_site_fract_y
 _atom_site_fract_z
 _atom_site_occupancy
  C  C0  1  0.16010000  0.33090000  0.48100000  1
  C  C1  1  0.84990000  0.17910000  0.01900000  1
  C  C2  1  0.21050000  0.37830000  0.57620000  1
  C  C3  1  0.80210000  0.13430000  0.92380000  1
  C  C4  1  0.45510000  0.38620000  0.81150000  1
  C  C5  1  0.57470000  0.14360000  0.68850000  1
  C  C6  1  0.20860000  0.36350000  0.52770000  1
  C  C7  1  0.83580000  0.18090000  0.97230000  1
  C  C8  1  0.33600000  0.41403000  0.69663000  1
  C  C9  1  0.71740000  0.13937000  0.80337000  1
  C  C10  1  0.38650000  0.36940000  0.69970000  1
  C  C11  1  0.66970000  0.18680000  0.80030000  1
  C  C12  1  0.46120000  0.36261667  0.76521667  1
  C  C13  1  0.59740000  0.19598333  0.73478333  1
  C  C14  1  0.38452000  0.41592000  0.71260000  1
  C  C15  1  0.70332000  0.17192000  0.78740000  1
  C  C16  1  0.44700000  0.38050000  0.72210000  1
  C  C17  1  0.65840000  0.22490000  0.77790000  1
  C  C18  1  0.25071000  0.38801000  0.52070000  1
  C  C19  1  0.86731000  0.23001000  0.97930000  1
  C  C20  1  0.43110000  0.54490000  0.85640000  1
  C  C21  1  0.68850000  0.07470000  0.64360000  1
  C  C22  1  0.40141667  0.53880000  0.80401667  1
  C  C23  1  0.73478333  0.09740000  0.69598333  1
  C  C24  1  0.29880000  0.39907000  0.55847000  1
  C  C25  1  0.84060000  0.24033000  0.94153000  1
  C  C26  1  0.45360000  0.35770000  0.67010000  1
  C  C27  1  0.68760000  0.28350000  0.82990000  1
  C  C28  1  0.45060000  0.46700000  0.75300000  1
  C  C29  1  0.71400000  0.19760000  0.74700000  1
  C  C30  1  0.24796000  0.39860000  0.47996000  1
  C  C31  1  0.91864000  0.26800000  0.02004000  1
  C  C32  1  0.48190000  0.44610000  0.75740000  1
  C  C33  1  0.68870000  0.22450000  0.74260000  1
  C  C34  1  0.44260000  0.37630000  0.63370000  1
  C  C35  1  0.74260000  0.30890000  0.86630000  1
  C  C36  1  0.46420000  0.51810000  0.77550000  1
  C  C37  1  0.74260000  0.18870000  0.72450000  1
  C  C38  1  0.34409000  0.42070000  0.55539000  1
  C  C39  1  0.86531000  0.28870000  0.94461000  1
  C  C40  1  0.43350000  0.55300000  0.77510000  1
  C  C41  1  0.77790000  0.15840000  0.72490000  1
  C  C42  1  0.58597000  0.42197000  0.78260000  1
  C  C43  1  0.63937000  0.30337000  0.71740000  1
  C  C44  1  0.53300000  0.48360000  0.78600000  1
  C  C45  1  0.69760000  0.24700000  0.71400000  1
  C  C46  1  0.40410000  0.54640000  0.71650000  1
  C  C47  1  0.82990000  0.18760000  0.78350000  1
  C  C48  1  0.29330000  0.42010000  0.47680000  1
  C  C49  1  0.94330000  0.31650000  0.02320000  1
  C  C50  1  0.58408000  0.46860000  0.79668000  1
  C  C51  1  0.62170000  0.33220000  0.69790000  1
  C  C52  1  0.63430000  0.42380000  0.80210000  1
  C  C53  1  0.67192000  0.28740000  0.70332000  1
  C  C54  1  0.61380000  0.56890000  0.92530000  1
  C  C55  1  0.64360000  0.18850000  0.57470000  1
  C  C56  1  0.34132000  0.43121000  0.51449000  1
  C  C57  1  0.91672000  0.32683000  0.98551000  1
  C  C58  1  0.51640000  0.54940000  0.80240000  1
  C  C59  1  0.74700000  0.21400000  0.69760000  1
  C  C60  1  0.55390000  0.53580000  0.81130000  1
  C  C61  1  0.72450000  0.24260000  0.68870000  1
  C  C62  1  0.48290000  0.61350000  0.81320000  1
  C  C63  1  0.80030000  0.16970000  0.68680000  1
  C  C64  1  0.43370000  0.55740000  0.69110000  1
  C  C65  1  0.86630000  0.24260000  0.80890000  1
  C  C66  1  0.48100000  0.66010000  0.83090000  1
  C  C67  1  0.82920000  0.15010000  0.66910000  1
  C  C68  1  0.63060000  0.51710000  0.83030000  1
  C  C69  1  0.63650000  0.34510000  0.66420000  1
  C  C70  1  0.68090000  0.47230000  0.83580000  1
  C  C71  1  0.68680000  0.30030000  0.66970000  1
  C  C72  1  0.53140000  0.61548000  0.82808000  1
  C  C73  1  0.78740000  0.20332000  0.67192000  1
  C  C74  1  0.47996000  0.74796000  0.89860000  1
  C  C75  1  0.84936000  0.08136000  0.60140000  1
  C  C76  1  0.63738333  0.59858333  0.90260000  1
  C  C77  1  0.69598333  0.23478333  0.59740000  1
  C  C78  1  0.39150000  0.45600000  0.51110000  1
  C  C79  1  0.94490000  0.38040000  0.98890000  1
  C  C80  1  0.60093000  0.39973000  0.65940000  1
  C  C81  1  0.74033000  0.44153000  0.84060000  1
  C  C82  1  0.61199000  0.36270000  0.63269000  1
  C  C83  1  0.73001000  0.47930000  0.86731000  1
  C  C84  1  0.61950000  0.56650000  0.84160000  1
  C  C85  1  0.72490000  0.27790000  0.65840000  1
  C  C86  1  0.66910000  0.32920000  0.65010000  1
  C  C87  1  0.67910000  0.51900000  0.84990000  1
  C  C88  1  0.47680000  0.79330000  0.92010000  1
  C  C89  1  0.87320000  0.05670000  0.57990000  1
  C  C90  1  0.57930000  0.42339000  0.63469000  1
  C  C91  1  0.78870000  0.44461000  0.86531000  1
  C  C92  1  0.60140000  0.34936000  0.58136000  1
  C  C93  1  0.76800000  0.52004000  0.91864000  1
  C  C94  1  0.52770000  0.70860000  0.86350000  1
  C  C95  1  0.84510000  0.16420000  0.63650000  1
  C  C96  1  0.57803000  0.66400000  0.86063000  1
  C  C97  1  0.80337000  0.21740000  0.63937000  1
  C  C98  1  0.52070000  0.75071000  0.88801000  1
  C  C99  1  0.86270000  0.13269000  0.61199000  1
  C  C100  1  0.56879000  0.41011000  0.58328000  1
  C  C101  1  0.82683000  0.48551000  0.91672000  1
  C  C102  1  0.57990000  0.37320000  0.55670000  1
  C  C103  1  0.81650000  0.52320000  0.94330000  1
  C  C104  1  0.57620000  0.71050000  0.87830000  1
  C  C105  1  0.83220000  0.19790000  0.62170000  1
  C  C106  1  0.54400000  0.43550000  0.55510000  1
  C  C107  1  0.88040000  0.48890000  0.94490000  1
  C  C108  1  0.51449000  0.84132000  0.93121000  1
  C  C109  1  0.91011000  0.08328000  0.56879000  1
  C  C110  1  0.64230000  0.59590000  0.81240000  1
  C  C111  1  0.78350000  0.32990000  0.68760000  1
  C  C112  1  0.62370000  0.56630000  0.75740000  1
  C  C113  1  0.80890000  0.36630000  0.74260000  1
  C  C114  1  0.51110000  0.89150000  0.95600000  1
  C  C115  1  0.93550000  0.05510000  0.54400000  1
  C  C116  1  0.55847000  0.79880000  0.89907000  1
  C  C117  1  0.89973000  0.15940000  0.60093000  1
  C  C118  1  0.55539000  0.84409000  0.92070000  1
  C  C119  1  0.92339000  0.13469000  0.57930000  1
  C  C120  1  0.57661000  0.65591000  0.71130000  1
  C  C121  1  0.94461000  0.36531000  0.78870000  1
  C  C122  1  0.60027000  0.70120000  0.75967000  1
  C  C123  1  0.94153000  0.34060000  0.74033000  1
  C  C124  1  0.56450000  0.60850000  0.61960000  1
  C  C125  1  0.98890000  0.44490000  0.88040000  1
  C  C126  1  0.69110000  0.93370000  0.05740000  1
  C  C127  1  0.87630000  0.13370000  0.44260000  1
  C  C128  1  0.71650000  0.90410000  0.04640000  1
  C  C129  1  0.85770000  0.17010000  0.45360000  1
  C  C130  1  0.58989000  0.65868000  0.67317000  1
  C  C131  1  0.98551000  0.41672000  0.82683000  1
  C  C132  1  0.61960000  0.06450000  0.10850000  1
  C  C133  1  0.95600000  0.01110000  0.39150000  1
  C  C134  1  0.66780000  0.78950000  0.86570000  1
  C  C135  1  0.92380000  0.30210000  0.63430000  1
  C  C136  1  0.68350000  0.12680000  0.20670000  1
  C  C137  1  0.92010000  0.97680000  0.29330000  1
  C  C138  1  0.67317000  0.08989000  0.15868000  1
  C  C139  1  0.93121000  0.01449000  0.34132000  1
  C  C140  1  0.63730000  0.74929000  0.76999000  1
  C  C141  1  0.97930000  0.36731000  0.73001000  1
  C  C142  1  0.69663000  0.83600000  0.91403000  1
  C  C143  1  0.92197000  0.28260000  0.58597000  1
  C  C144  1  0.65490000  0.79140000  0.81910000  1
  C  C145  1  0.97230000  0.33580000  0.68090000  1
  C  C146  1  0.73200000  0.15064000  0.25204000  1
  C  C147  1  0.89860000  0.97996000  0.24796000  1
  C  C148  1  0.71130000  0.07661000  0.15591000  1
  C  C149  1  0.92070000  0.05539000  0.34409000  1
  C  C150  1  0.62680000  0.70670000  0.68350000  1
  C  C151  1  0.02320000  0.44330000  0.81650000  1
  C  C152  1  0.82090000  0.17080000  0.33990000  1
  C  C153  1  0.83090000  0.98100000  0.16010000  1
  C  C154  1  0.77510000  0.93350000  0.05300000  1
  C  C155  1  0.88050000  0.22210000  0.44700000  1
  C  C156  1  0.76999000  0.13730000  0.24929000  1
  C  C157  1  0.88801000  0.02070000  0.25071000  1
  C  C158  1  0.75967000  0.10027000  0.20120000  1
  C  C159  1  0.89907000  0.05847000  0.29880000  1
  C  C160  1  0.55510000  0.04400000  0.93550000  1
  C  C161  1  0.10850000  0.11960000  0.56450000  1
  C  C162  1  0.80401667  0.90141667  0.03880000  1
  C  C163  1  0.86261667  0.26521667  0.46120000  1
  C  C164  1  0.65064000  0.75204000  0.73200000  1
  C  C165  1  0.02004000  0.41864000  0.76800000  1
  C  C166  1  0.71260000  0.88452000  0.91592000  1
  C  C167  1  0.96860000  0.29668000  0.58408000  1
  C  C168  1  0.81320000  0.98290000  0.11350000  1
  C  C169  1  0.81910000  0.15490000  0.29140000  1
  C  C170  1  0.86350000  0.02770000  0.20860000  1
  C  C171  1  0.86940000  0.19970000  0.38650000  1
  C  C172  1  0.67080000  0.83990000  0.82090000  1
  C  C173  1  0.01900000  0.34990000  0.67910000  1
  C  C174  1  0.63370000  0.94260000  0.87630000  1
  C  C175  1  0.06630000  0.25740000  0.62370000  1
  C  C176  1  0.69970000  0.88650000  0.86940000  1
  C  C177  1  0.01710000  0.33030000  0.63060000  1
  C  C178  1  0.77550000  0.96420000  0.01810000  1
  C  C179  1  0.94610000  0.25740000  0.48190000  1
  C  C180  1  0.75300000  0.95060000  0.96700000  1
  C  C181  1  0.98360000  0.28600000  0.53300000  1
  C  C182  1  0.58328000  0.06879000  0.91011000  1
  C  C183  1  0.15868000  0.17317000  0.58989000  1
  C  C184  1  0.85640000  0.93110000  0.04490000  1
  C  C185  1  0.88620000  0.31150000  0.45510000  1
  C  C186  1  0.82808000  0.03140000  0.11548000  1
  C  C187  1  0.86570000  0.16780000  0.28950000  1
  C  C188  1  0.87830000  0.07620000  0.21050000  1
  C  C189  1  0.91592000  0.21260000  0.38452000  1
  C  C190  1  0.55670000  0.07990000  0.87320000  1
  C  C191  1  0.20670000  0.18350000  0.62680000  1
  C  C192  1  0.67010000  0.95360000  0.85770000  1
  C  C193  1  0.09590000  0.31240000  0.64230000  1
  C  C194  1  0.80240000  0.01640000  0.04940000  1
  C  C195  1  0.96700000  0.25300000  0.45060000  1
  C  C196  1  0.86063000  0.07803000  0.16400000  1
  C  C197  1  0.91403000  0.19663000  0.33600000  1
  C  C198  1  0.72210000  0.94700000  0.88050000  1
  C  C199  1  0.06650000  0.34160000  0.61950000  1
  C  C200  1  0.63469000  0.07930000  0.92339000  1
  C  C201  1  0.15591000  0.21130000  0.57661000  1
  C  C202  1  0.75740000  0.98190000  0.94610000  1
  C  C203  1  0.03580000  0.31130000  0.55390000  1
  C  C204  1  0.75740000  0.12370000  0.06630000  1
  C  C205  1  0.05740000  0.19110000  0.43370000  1
  C  C206  1  0.81130000  0.05390000  0.03580000  1
  C  C207  1  0.01810000  0.27550000  0.46420000  1
  C  C208  1  0.58136000  0.10140000  0.84936000  1
  C  C209  1  0.25204000  0.23200000  0.65064000  1
  C  C210  1  0.78600000  0.03300000  0.98360000  1
  C  C211  1  0.04940000  0.30240000  0.51640000  1
  C  C212  1  0.81240000  0.14230000  0.09590000  1
  C  C213  1  0.04640000  0.21650000  0.40410000  1
  C  C214  1  0.65940000  0.10093000  0.89973000  1
  C  C215  1  0.20120000  0.25967000  0.60027000  1
  C  C216  1  0.76521667  0.96120000  0.86261667  1
  C  C217  1  0.09858333  0.40260000  0.63738333  1
  C  C218  1  0.81150000  0.95510000  0.88620000  1
  C  C219  1  0.06890000  0.42530000  0.61380000  1
  C  C220  1  0.63269000  0.11199000  0.86270000  1
  C  C221  1  0.24929000  0.26999000  0.63730000  1
  C  C222  1  0.84160000  0.11950000  0.06650000  1
  C  C223  1  0.05300000  0.27510000  0.43350000  1
  C  C224  1  0.79668000  0.08408000  0.96860000  1
  C  C225  1  0.11548000  0.32808000  0.53140000  1
  C  C226  1  0.90260000  0.13738333  0.09858333  1
  C  C227  1  0.03880000  0.30401667  0.40141667  1
  C  C228  1  0.83030000  0.13060000  0.01710000  1
  C  C229  1  0.11350000  0.31320000  0.48290000  1
  C  C230  1  0.78260000  0.08597000  0.92197000  1
  C  C231  1  0.16400000  0.36063000  0.57803000  1
  C  C232  1  0.66420000  0.13650000  0.84510000  1
  C  C233  1  0.29140000  0.31910000  0.65490000  1
  C  C234  1  0.92530000  0.11380000  0.06890000  1
  C  C235  1  0.04490000  0.35640000  0.43110000  1
  C  C236  1  0.69790000  0.12170000  0.83220000  1
  C  C237  1  0.28950000  0.36570000  0.66780000  1
  C  C238  1  0.65010000  0.16910000  0.82920000  1
  C  C239  1  0.33990000  0.32090000  0.67080000  1
  O  O240  1  0.43014000  0.46594000  0.54800000  1
  O  O241  1  0.91794000  0.38214000  0.95200000  1
  O  O242  1  0.38420000  0.46530000  0.47430000  1
  O  O243  1  0.99100000  0.40990000  0.02570000  1
  O  O244  1  0.47430000  0.88420000  0.96530000  1
  O  O245  1  0.91890000  0.00900000  0.53470000  1
  O  O246  1  0.53406000  0.46420000  0.58206000  1
  O  O247  1  0.88214000  0.45200000  0.91794000  1
  O  O248  1  0.53470000  0.41890000  0.50900000  1
  O  O249  1  0.90990000  0.52570000  0.99100000  1
  O  O250  1  0.53580000  0.56986000  0.61786000  1
  O  O251  1  0.95200000  0.41794000  0.88214000  1
  O  O252  1  0.49402000  1.00000000  0.00000000  1
  O  O253  1  0.00000000  0.99402000  0.50000000  1
  O  O254  1  0.50000000  0.50000000  0.49402000  1
  O  O255  1  0.00598000  0.50598000  0.00598000  1
  O  O256  1  0.54800000  0.93014000  0.96594000  1
  O  O257  1  0.96420000  0.08206000  0.53406000  1
  O  O258  1  0.59010000  0.08110000  0.11580000  1
  O  O259  1  0.96530000  0.97430000  0.38420000  1
  O  O260  1  0.61786000  0.03580000  0.06986000  1
  O  O261  1  0.96594000  0.04800000  0.43014000  1
  O  O262  1  0.58110000  0.61580000  0.59010000  1
  O  O263  1  0.02570000  0.49100000  0.90990000  1
  O  O264  1  0.50900000  0.03470000  0.91890000  1
  O  O265  1  0.11580000  0.09010000  0.58110000  1
  O  O266  1  0.58206000  0.03406000  0.96420000  1
  O  O267  1  0.06986000  0.11786000  0.53580000  1
  Zn  Zn268  1  0.44785000  0.93210000  0.98779000  1
  Zn  Zn269  1  0.94431000  0.96006000  0.51221000  1
  Zn  Zn270  1  0.50000000  0.50000000  0.55702000  1
  Zn  Zn271  1  0.94298000  0.44298000  0.94298000  1
  Zn  Zn272  1  0.43210000  0.48779000  0.44785000  1
  Zn  Zn273  1  0.03994000  0.48425000  0.05215000  1
  Zn  Zn274  1  0.51221000  0.44431000  0.46006000  1
  Zn  Zn275  1  0.98425000  0.55215000  0.03994000  1
  Zn  Zn276  1  0.51575000  0.05569000  0.06790000  1
  Zn  Zn277  1  0.98779000  0.94785000  0.43210000  1
  Zn  Zn278  1  0.46006000  0.01221000  0.94431000  1
  Zn  Zn279  1  0.06790000  0.01575000  0.55569000  1
  Zn  Zn280  1  0.55702000  1.00000000  0.00000000  1
  Zn  Zn281  1  0.00000000  0.05702000  0.50000000  1
  Zn  Zn282  1  0.55569000  0.56790000  0.51575000  1
  Zn  Zn283  1  0.05215000  0.53994000  0.98425000  1
