# generated using pymatgen
data_Co2H36C53(NO)8
_symmetry_space_group_name_H-M   'P 1'
_cell_length_a   14.37470000
_cell_length_b   20.15600000
_cell_length_c   21.52302619
_cell_angle_alpha   106.98882908
_cell_angle_beta   109.50795337
_cell_angle_gamma   90.00000000
_symmetry_Int_Tables_number   1
_chemical_formula_structural   Co2H36C53(NO)8
_chemical_formula_sum   'Co8 H144 C212 N32 O32'
_cell_volume   5588.49551219
_cell_formula_units_Z   4
loop_
 _symmetry_equiv_pos_site_id
 _symmetry_equiv_pos_as_xyz
  1  'x, y, z'
loop_
 _atom_site_type_symbol
 _atom_site_label
 _atom_site_symmetry_multiplicity
 _atom_site_fract_x
 _atom_site_fract_y
 _atom_site_fract_z
 _atom_site_occupancy
  C  C0  1  0.24684000  0.86977000  0.01788000  1
  C  C1  1  0.77104000  0.36977000  0.01788000  1
  C  C2  1  0.34578667  0.87708000  0.02494000  1
  C  C3  1  0.67915333  0.37708000  0.02494000  1
  C  C4  1  0.21876000  0.84815000  0.06452000  1
  C  C5  1  0.84576000  0.34815000  0.06452000  1
  C  C6  1  0.14232000  0.63552000  0.06504000  1
  C  C7  1  0.92272000  0.13552000  0.06504000  1
  C  C8  1  0.25710000  0.56491000  0.06900000  1
  C  C9  1  0.81190000  0.06491000  0.06900000  1
  C  C10  1  0.41686000  0.86419000  0.08052000  1
  C  C11  1  0.66366000  0.36419000  0.08052000  1
  C  C12  1  0.50515000  0.19278000  0.10030000  1
  C  C13  1  0.59515000  0.69278000  0.10030000  1
  C  C14  1  0.21271000  0.56130000  0.11342000  1
  C  C15  1  0.90071000  0.06130000  0.11342000  1
  C  C16  1  0.52881000  0.74080000  0.11382000  1
  C  C17  1  0.58501000  0.24080000  0.11382000  1
  C  C18  1  0.28472000  0.05616000  0.11564000  1
  C  C19  1  0.83092000  0.55616000  0.11564000  1
  C  C20  1  0.37465000  0.07793000  0.11670000  1
  C  C21  1  0.74205000  0.57793000  0.11670000  1
  C  C22  1  0.29080000  0.83458000  0.12000000  1
  C  C23  1  0.82920000  0.33458000  0.12000000  1
  C  C24  1  0.39051000  0.84269000  0.12902000  1
  C  C25  1  0.73851000  0.34269000  0.12902000  1
  C  C26  1  0.29867000  0.16747000  0.14954000  1
  C  C27  1  0.85087000  0.66747000  0.14954000  1
  C  C28  1  0.46401000  0.19766000  0.15022000  1
  C  C29  1  0.68621000  0.69766000  0.15022000  1
  C  C30  1  0.55227000  0.79238000  0.17642000  1
  C  C31  1  0.62415000  0.29238000  0.17642000  1
  C  C32  1  0.47512000  0.83989000  0.19472000  1
  C  C33  1  0.71960000  0.33989000  0.19472000  1
  C  C34  1  0.13234000  0.00356000  0.19948000  1
  C  C35  1  0.06714000  0.50356000  0.19948000  1
  C  C36  1  0.11639000  0.25868000  0.20018000  1
  C  C37  1  0.08379000  0.75868000  0.20018000  1
  C  C38  1  0.11115000  0.88244000  0.20370000  1
  C  C39  1  0.09255000  0.38244000  0.20370000  1
  C  C40  1  0.50202000  0.24854000  0.21364000  1
  C  C41  1  0.71162000  0.74854000  0.21364000  1
  C  C42  1  0.38538000  0.74295000  0.21436000  1
  C  C43  1  0.82898000  0.24295000  0.21436000  1
  C  C44  1  0.58246000  0.29527000  0.22692000  1
  C  C45  1  0.64446000  0.79527000  0.22692000  1
  C  C46  1  0.51555000  0.91763000  0.23130000  1
  C  C47  1  0.71575000  0.41763000  0.23130000  1
  C  C48  1  0.60385000  0.94700000  0.23390000  1
  C  C49  1  0.63005000  0.44700000  0.23390000  1
  C  C50  1  0.15307000  0.95094000  0.23806000  1
  C  C51  1  0.08499000  0.45094000  0.23806000  1
  C  C52  1  0.12948000  0.83287000  0.23856000  1
  C  C53  1  0.10908000  0.33287000  0.23856000  1
  C  C54  1  0.44069000  0.80813000  0.24178000  1
  C  C55  1  0.80109000  0.30813000  0.24178000  1
  C  C56  1  0.36060000  0.71086000  0.25600000  1
  C  C57  1  0.89540000  0.21086000  0.25600000  1
  C  C58  1  0.45602000  0.96287000  0.25844000  1
  C  C59  1  0.80242000  0.46287000  0.25844000  1
  C  C60  1  0.63077000  0.51849000  0.26334000  1
  C  C61  1  0.63257000  0.01849000  0.26334000  1
  C  C62  1  0.48349000  0.03342000  0.28838000  1
  C  C63  1  0.80489000  0.53342000  0.28838000  1
  C  C64  1  0.57369000  0.06084000  0.29138000  1
  C  C65  1  0.71769000  0.56084000  0.29138000  1
  C  C66  1  0.21339000  0.96963000  0.30678000  1
  C  C67  1  0.09339000  0.46963000  0.30678000  1
  C  C68  1  0.19008000  0.85192000  0.30716000  1
  C  C69  1  0.11708000  0.35192000  0.30716000  1
  C  C70  1  0.47170000  0.83934000  0.31300000  1
  C  C71  1  0.84130000  0.33934000  0.31300000  1
  C  C72  1  0.39025000  0.74395000  0.32614000  1
  C  C73  1  0.93589000  0.24395000  0.32614000  1
  C  C74  1  0.64291000  0.66832000  0.33862000  1
  C  C75  1  0.69571000  0.16832000  0.33862000  1
  C  C76  1  0.23302000  0.92045000  0.34144000  1
  C  C77  1  0.10842000  0.42045000  0.34144000  1
  C  C78  1  0.55219000  0.18182000  0.35238000  1
  C  C79  1  0.80019000  0.68182000  0.35238000  1
  C  C80  1  0.27615000  0.67279000  0.35510000  1
  C  C81  1  0.07895000  0.17279000  0.35510000  1
  C  C82  1  0.44607000  0.80816000  0.35514000  1
  C  C83  1  0.90907000  0.30816000  0.35514000  1
  C  C84  1  0.68004000  0.73535000  0.37408000  1
  C  C85  1  0.69404000  0.23535000  0.37408000  1
  C  C86  1  0.28499000  0.65293000  0.41098000  1
  C  C87  1  0.12599000  0.15293000  0.41098000  1
  C  C88  1  0.42283000  0.71262000  0.43366000  1
  C  C89  1  0.01083000  0.21262000  0.43366000  1
  C  C90  1  0.68688000  0.43741000  0.45256000  1
  C  C91  1  0.76568000  0.93741000  0.45256000  1
  C  C92  1  0.36755000  0.31490000  0.45350000  1
  C  C93  1  0.08595000  0.81490000  0.45350000  1
  C  C94  1  0.65794000  0.03530000  0.46368000  1
  C  C95  1  0.80574000  0.53530000  0.46368000  1
  C  C96  1  0.71936000  0.51303000  0.46952000  1
  C  C97  1  0.75016000  0.01303000  0.46952000  1
  C  C98  1  0.64846000  0.10770000  0.48212000  1
  C  C99  1  0.83366000  0.60770000  0.48212000  1
  C  C100  1  0.30746000  0.36663000  0.48332000  1
  C  C101  1  0.17586000  0.86663000  0.48332000  1
  C  C102  1  0.26972000  0.84624000  0.49284000  1
  C  C103  1  0.22312000  0.34624000  0.49284000  1
  C  C104  1  0.66308000  0.56257000  0.49636000  1
  C  C105  1  0.83328000  0.06257000  0.49636000  1
  C  C106  1  0.33692000  0.43743000  0.50364000  1
  C  C107  1  0.16672000  0.93743000  0.50364000  1
  C  C108  1  0.73028000  0.15376000  0.50716000  1
  C  C109  1  0.77688000  0.65376000  0.50716000  1
  C  C110  1  0.69254000  0.63337000  0.51668000  1
  C  C111  1  0.82414000  0.13337000  0.51668000  1
  C  C112  1  0.35154000  0.89230000  0.51788000  1
  C  C113  1  0.16634000  0.39230000  0.51788000  1
  C  C114  1  0.28064000  0.48697000  0.53048000  1
  C  C115  1  0.24984000  0.98697000  0.53048000  1
  C  C116  1  0.34206000  0.96470000  0.53632000  1
  C  C117  1  0.19426000  0.46470000  0.53632000  1
  C  C118  1  0.63245000  0.68510000  0.54650000  1
  C  C119  1  0.91405000  0.18510000  0.54650000  1
  C  C120  1  0.31312000  0.56259000  0.54744000  1
  C  C121  1  0.23432000  0.06259000  0.54744000  1
  C  C122  1  0.57717000  0.28738000  0.56634000  1
  C  C123  1  0.98917000  0.78738000  0.56634000  1
  C  C124  1  0.71501000  0.34707000  0.58902000  1
  C  C125  1  0.87401000  0.84707000  0.58902000  1
  C  C126  1  0.31996000  0.26465000  0.62592000  1
  C  C127  1  0.30596000  0.76465000  0.62592000  1
  C  C128  1  0.55393000  0.19184000  0.64486000  1
  C  C129  1  0.09093000  0.69184000  0.64486000  1
  C  C130  1  0.72385000  0.32721000  0.64490000  1
  C  C131  1  0.92105000  0.82721000  0.64490000  1
  C  C132  1  0.44781000  0.81818000  0.64762000  1
  C  C133  1  0.19981000  0.31818000  0.64762000  1
  C  C134  1  0.76698000  0.07955000  0.65856000  1
  C  C135  1  0.89158000  0.57955000  0.65856000  1
  C  C136  1  0.35709000  0.33168000  0.66138000  1
  C  C137  1  0.30429000  0.83168000  0.66138000  1
  C  C138  1  0.60975000  0.25605000  0.67386000  1
  C  C139  1  0.06411000  0.75605000  0.67386000  1
  C  C140  1  0.52830000  0.16066000  0.68700000  1
  C  C141  1  0.15870000  0.66066000  0.68700000  1
  C  C142  1  0.80992000  0.14808000  0.69284000  1
  C  C143  1  0.88292000  0.64808000  0.69284000  1
  C  C144  1  0.78661000  0.03037000  0.69322000  1
  C  C145  1  0.90661000  0.53037000  0.69322000  1
  C  C146  1  0.42631000  0.93916000  0.70862000  1
  C  C147  1  0.28231000  0.43916000  0.70862000  1
  C  C148  1  0.51651000  0.96658000  0.71162000  1
  C  C149  1  0.19511000  0.46658000  0.71162000  1
  C  C150  1  0.36923000  0.48151000  0.73666000  1
  C  C151  1  0.36743000  0.98151000  0.73666000  1
  C  C152  1  0.54398000  0.03713000  0.74156000  1
  C  C153  1  0.19758000  0.53713000  0.74156000  1
  C  C154  1  0.63940000  0.28914000  0.74400000  1
  C  C155  1  0.10460000  0.78914000  0.74400000  1
  C  C156  1  0.55931000  0.19187000  0.75822000  1
  C  C157  1  0.19891000  0.69187000  0.75822000  1
  C  C158  1  0.87052000  0.16713000  0.76144000  1
  C  C159  1  0.89092000  0.66713000  0.76144000  1
  C  C160  1  0.84693000  0.04906000  0.76194000  1
  C  C161  1  0.91501000  0.54906000  0.76194000  1
  C  C162  1  0.39615000  0.05300000  0.76610000  1
  C  C163  1  0.36995000  0.55300000  0.76610000  1
  C  C164  1  0.48445000  0.08237000  0.76870000  1
  C  C165  1  0.28425000  0.58237000  0.76870000  1
  C  C166  1  0.41754000  0.70473000  0.77308000  1
  C  C167  1  0.35554000  0.20473000  0.77308000  1
  C  C168  1  0.61462000  0.25705000  0.78564000  1
  C  C169  1  0.17102000  0.75705000  0.78564000  1
  C  C170  1  0.49798000  0.75146000  0.78636000  1
  C  C171  1  0.28838000  0.25146000  0.78636000  1
  C  C172  1  0.88885000  0.11756000  0.79630000  1
  C  C173  1  0.90745000  0.61756000  0.79630000  1
  C  C174  1  0.88361000  0.74132000  0.79982000  1
  C  C175  1  0.91621000  0.24132000  0.79982000  1
  C  C176  1  0.86766000  0.99644000  0.80052000  1
  C  C177  1  0.93286000  0.49644000  0.80052000  1
  C  C178  1  0.52488000  0.16011000  0.80528000  1
  C  C179  1  0.28040000  0.66011000  0.80528000  1
  C  C180  1  0.44773000  0.20762000  0.82358000  1
  C  C181  1  0.37585000  0.70762000  0.82358000  1
  C  C182  1  0.53599000  0.80234000  0.84978000  1
  C  C183  1  0.31379000  0.30234000  0.84978000  1
  C  C184  1  0.70133000  0.83253000  0.85046000  1
  C  C185  1  0.14913000  0.33253000  0.85046000  1
  C  C186  1  0.60949000  0.15731000  0.87098000  1
  C  C187  1  0.26149000  0.65731000  0.87098000  1
  C  C188  1  0.70920000  0.16542000  0.88000000  1
  C  C189  1  0.17080000  0.66542000  0.88000000  1
  C  C190  1  0.62535000  0.92207000  0.88330000  1
  C  C191  1  0.25795000  0.42207000  0.88330000  1
  C  C192  1  0.71528000  0.94384000  0.88436000  1
  C  C193  1  0.16908000  0.44384000  0.88436000  1
  C  C194  1  0.47119000  0.25920000  0.88618000  1
  C  C195  1  0.41499000  0.75920000  0.88618000  1
  C  C196  1  0.78729000  0.43870000  0.88658000  1
  C  C197  1  0.09929000  0.93870000  0.88658000  1
  C  C198  1  0.49485000  0.80722000  0.89970000  1
  C  C199  1  0.40485000  0.30722000  0.89970000  1
  C  C200  1  0.58314000  0.13581000  0.91948000  1
  C  C201  1  0.33634000  0.63581000  0.91948000  1
  C  C202  1  0.74290000  0.43509000  0.93100000  1
  C  C203  1  0.18810000  0.93509000  0.93100000  1
  C  C204  1  0.85768000  0.36448000  0.93496000  1
  C  C205  1  0.07728000  0.86448000  0.93496000  1
  C  C206  1  0.78124000  0.15185000  0.93548000  1
  C  C207  1  0.15424000  0.65185000  0.93548000  1
  C  C208  1  0.65421333  0.12292000  0.97506000  1
  C  C209  1  0.32084667  0.62292000  0.97506000  1
  C  C210  1  0.75316000  0.13023000  0.98212000  1
  C  C211  1  0.22896000  0.63023000  0.98212000  1
  Co  Co212  1  0.11821000  0.12090000  0.16704000  1
  Co  Co213  1  0.04883000  0.62090000  0.16704000  1
  Co  Co214  1  0.56677000  0.32855000  0.44230000  1
  Co  Co215  1  0.87553000  0.82855000  0.44230000  1
  Co  Co216  1  0.43323000  0.67145000  0.55770000  1
  Co  Co217  1  0.12447000  0.17145000  0.55770000  1
  Co  Co218  1  0.88179000  0.87910000  0.83296000  1
  Co  Co219  1  0.95117000  0.37910000  0.83296000  1
  H  H220  1  0.37170000  0.60940000  0.00740000  1
  H  H221  1  0.63570000  0.10940000  0.00740000  1
  H  H222  1  0.10180000  0.66930000  0.05360000  1
  H  H223  1  0.95180000  0.16930000  0.05360000  1
  H  H224  1  0.48010000  0.15790000  0.05780000  1
  H  H225  1  0.57770000  0.65790000  0.05780000  1
  H  H226  1  0.15190000  0.84260000  0.05900000  1
  H  H227  1  0.90710000  0.34260000  0.05900000  1
  H  H228  1  0.30890000  0.54040000  0.06100000  1
  H  H229  1  0.75210000  0.04040000  0.06100000  1
  H  H230  1  0.46730000  0.73780000  0.07960000  1
  H  H231  1  0.61230000  0.23780000  0.07960000  1
  H  H232  1  0.48360000  0.86990000  0.08580000  1
  H  H233  1  0.60220000  0.36990000  0.08580000  1
  H  H234  1  0.25940000  0.00980000  0.10280000  1
  H  H235  1  0.84340000  0.50980000  0.10280000  1
  H  H236  1  0.42210000  0.05030000  0.10560000  1
  H  H237  1  0.68350000  0.55030000  0.10560000  1
  H  H238  1  0.22910000  0.53330000  0.14220000  1
  H  H239  1  0.91310000  0.03330000  0.14220000  1
  H  H240  1  0.27160000  0.81980000  0.15140000  1
  H  H241  1  0.87980000  0.31980000  0.15140000  1
  H  H242  1  0.08650000  0.36960000  0.15720000  1
  H  H243  1  0.07070000  0.86960000  0.15720000  1
  H  H244  1  0.28580000  0.21340000  0.16540000  1
  H  H245  1  0.87960000  0.71340000  0.16540000  1
  H  H246  1  0.36470000  0.72060000  0.16680000  1
  H  H247  1  0.80210000  0.22060000  0.16680000  1
  H  H248  1  0.57030000  0.41840000  0.21560000  1
  H  H249  1  0.64530000  0.91840000  0.21560000  1
  H  H250  1  0.32410000  0.66720000  0.23680000  1
  H  H251  1  0.91270000  0.16720000  0.23680000  1
  H  H252  1  0.47390000  0.25160000  0.24740000  1
  H  H253  1  0.77350000  0.75160000  0.24740000  1
  H  H254  1  0.39520000  0.94470000  0.25640000  1
  H  H255  1  0.86120000  0.44470000  0.25640000  1
  H  H256  1  0.57180000  0.53730000  0.26380000  1
  H  H257  1  0.69200000  0.03730000  0.26380000  1
  H  H258  1  0.60900000  0.32900000  0.27020000  1
  H  H259  1  0.66120000  0.82900000  0.27020000  1
  H  H260  1  0.44210000  0.06230000  0.30640000  1
  H  H261  1  0.86430000  0.56230000  0.30640000  1
  H  H262  1  0.22120000  0.66280000  0.31440000  1
  H  H263  1  0.09320000  0.16280000  0.31440000  1
  H  H264  1  0.57800000  0.64900000  0.32600000  1
  H  H265  1  0.74800000  0.14900000  0.32600000  1
  H  H266  1  0.24110000  0.01570000  0.33000000  1
  H  H267  1  0.08890000  0.51570000  0.33000000  1
  H  H268  1  0.20230000  0.81890000  0.33060000  1
  H  H269  1  0.12830000  0.31890000  0.33060000  1
  H  H270  1  0.51050000  0.88220000  0.33280000  1
  H  H271  1  0.82230000  0.38220000  0.33280000  1
  H  H272  1  0.48790000  0.17220000  0.35060000  1
  H  H273  1  0.86270000  0.67220000  0.35060000  1
  H  H274  1  0.27490000  0.93310000  0.38760000  1
  H  H275  1  0.11270000  0.43310000  0.38760000  1
  H  H276  1  0.64430000  0.77050000  0.39040000  1
  H  H277  1  0.74610000  0.27050000  0.39040000  1
  H  H278  1  0.46620000  0.83030000  0.40260000  1
  H  H279  1  0.93640000  0.33030000  0.40260000  1
  H  H280  1  0.23610000  0.62640000  0.41560000  1
  H  H281  1  0.17950000  0.12640000  0.41560000  1
  H  H282  1  0.60240000  0.00310000  0.44780000  1
  H  H283  1  0.84540000  0.50310000  0.44780000  1
  H  H284  1  0.48690000  0.73550000  0.45600000  1
  H  H285  1  0.96910000  0.23550000  0.45600000  1
  H  H286  1  0.58640000  0.12340000  0.47700000  1
  H  H287  1  0.89060000  0.62340000  0.47700000  1
  H  H288  1  0.27700000  0.79880000  0.48160000  1
  H  H289  1  0.20460000  0.29880000  0.48160000  1
  H  H290  1  0.39510000  0.45230000  0.49940000  1
  H  H291  1  0.10430000  0.95230000  0.49940000  1
  H  H292  1  0.60490000  0.54770000  0.50060000  1
  H  H293  1  0.89570000  0.04770000  0.50060000  1
  H  H294  1  0.72300000  0.20120000  0.51840000  1
  H  H295  1  0.79540000  0.70120000  0.51840000  1
  H  H296  1  0.41360000  0.87660000  0.52300000  1
  H  H297  1  0.10940000  0.37660000  0.52300000  1
  H  H298  1  0.51310000  0.26450000  0.54400000  1
  H  H299  1  0.03090000  0.76450000  0.54400000  1
  H  H300  1  0.39760000  0.99690000  0.55220000  1
  H  H301  1  0.15460000  0.49690000  0.55220000  1
  H  H302  1  0.76390000  0.37360000  0.58440000  1
  H  H303  1  0.82050000  0.87360000  0.58440000  1
  H  H304  1  0.53380000  0.16970000  0.59740000  1
  H  H305  1  0.06360000  0.66970000  0.59740000  1
  H  H306  1  0.35570000  0.22950000  0.60960000  1
  H  H307  1  0.25390000  0.72950000  0.60960000  1
  H  H308  1  0.72510000  0.06690000  0.61240000  1
  H  H309  1  0.88730000  0.56690000  0.61240000  1
  H  H310  1  0.51210000  0.82780000  0.64940000  1
  H  H311  1  0.13730000  0.32780000  0.64940000  1
  H  H312  1  0.48950000  0.11780000  0.66720000  1
  H  H313  1  0.17770000  0.61780000  0.66720000  1
  H  H314  1  0.79770000  0.18110000  0.66940000  1
  H  H315  1  0.87170000  0.68110000  0.66940000  1
  H  H316  1  0.75890000  0.98430000  0.67000000  1
  H  H317  1  0.91110000  0.48430000  0.67000000  1
  H  H318  1  0.42200000  0.35100000  0.67400000  1
  H  H319  1  0.25200000  0.85100000  0.67400000  1
  H  H320  1  0.77880000  0.33720000  0.68560000  1
  H  H321  1  0.90680000  0.83720000  0.68560000  1
  H  H322  1  0.55790000  0.93770000  0.69360000  1
  H  H323  1  0.13570000  0.43770000  0.69360000  1
  H  H324  1  0.39100000  0.67100000  0.72980000  1
  H  H325  1  0.33880000  0.17100000  0.72980000  1
  H  H326  1  0.42820000  0.46270000  0.73620000  1
  H  H327  1  0.30800000  0.96270000  0.73620000  1
  H  H328  1  0.60480000  0.05530000  0.74360000  1
  H  H329  1  0.13880000  0.55530000  0.74360000  1
  H  H330  1  0.52610000  0.74840000  0.75260000  1
  H  H331  1  0.22650000  0.24840000  0.75260000  1
  H  H332  1  0.67590000  0.33280000  0.76320000  1
  H  H333  1  0.08730000  0.83280000  0.76320000  1
  H  H334  1  0.42970000  0.58160000  0.78440000  1
  H  H335  1  0.35470000  0.08160000  0.78440000  1
  H  H336  1  0.63530000  0.27940000  0.83320000  1
  H  H337  1  0.19790000  0.77940000  0.83320000  1
  H  H338  1  0.71420000  0.78660000  0.83460000  1
  H  H339  1  0.12040000  0.28660000  0.83460000  1
  H  H340  1  0.91350000  0.63040000  0.84280000  1
  H  H341  1  0.92930000  0.13040000  0.84280000  1
  H  H342  1  0.72840000  0.18020000  0.84860000  1
  H  H343  1  0.12020000  0.68020000  0.84860000  1
  H  H344  1  0.77090000  0.46670000  0.85780000  1
  H  H345  1  0.08690000  0.96670000  0.85780000  1
  H  H346  1  0.57790000  0.94970000  0.89440000  1
  H  H347  1  0.31650000  0.44970000  0.89440000  1
  H  H348  1  0.74060000  0.99020000  0.89720000  1
  H  H349  1  0.15660000  0.49020000  0.89720000  1
  H  H350  1  0.51640000  0.13010000  0.91420000  1
  H  H351  1  0.39780000  0.63010000  0.91420000  1
  H  H352  1  0.53270000  0.26220000  0.92040000  1
  H  H353  1  0.38770000  0.76220000  0.92040000  1
  H  H354  1  0.69110000  0.45960000  0.93900000  1
  H  H355  1  0.24790000  0.95960000  0.93900000  1
  H  H356  1  0.84810000  0.15740000  0.94100000  1
  H  H357  1  0.09290000  0.65740000  0.94100000  1
  H  H358  1  0.51990000  0.84210000  0.94220000  1
  H  H359  1  0.42230000  0.34210000  0.94220000  1
  H  H360  1  0.89820000  0.33070000  0.94640000  1
  H  H361  1  0.04820000  0.83070000  0.94640000  1
  H  H362  1  0.62830000  0.39060000  0.99260000  1
  H  H363  1  0.36430000  0.89060000  0.99260000  1
  N  N364  1  0.21066000  0.61229000  0.03712000  1
  N  N365  1  0.82646000  0.11229000  0.03712000  1
  N  N366  1  0.13893000  0.60509000  0.11050000  1
  N  N367  1  0.97157000  0.10509000  0.11050000  1
  N  N368  1  0.23693000  0.11268000  0.13652000  1
  N  N369  1  0.89959000  0.61268000  0.13652000  1
  N  N370  1  0.38068000  0.14961000  0.13750000  1
  N  N371  1  0.75682000  0.64961000  0.13750000  1
  N  N372  1  0.60465000  0.13429000  0.32482000  1
  N  N373  1  0.72017000  0.63429000  0.32482000  1
  N  N374  1  0.36474000  0.71086000  0.37000000  1
  N  N375  1  0.00526000  0.21086000  0.37000000  1
  N  N376  1  0.60381000  0.24384000  0.38242000  1
  N  N377  1  0.77861000  0.74384000  0.38242000  1
  N  N378  1  0.37801000  0.67788000  0.46088000  1
  N  N379  1  0.08287000  0.17788000  0.46088000  1
  N  N380  1  0.62199000  0.32212000  0.53912000  1
  N  N381  1  0.91713000  0.82212000  0.53912000  1
  N  N382  1  0.39619000  0.75616000  0.61758000  1
  N  N383  1  0.22139000  0.25616000  0.61758000  1
  N  N384  1  0.63526000  0.28914000  0.63000000  1
  N  N385  1  0.99474000  0.78914000  0.63000000  1
  N  N386  1  0.39535000  0.86571000  0.67518000  1
  N  N387  1  0.27983000  0.36571000  0.67518000  1
  N  N388  1  0.61932000  0.85039000  0.86250000  1
  N  N389  1  0.24318000  0.35039000  0.86250000  1
  N  N390  1  0.76307000  0.88732000  0.86348000  1
  N  N391  1  0.10041000  0.38732000  0.86348000  1
  N  N392  1  0.86107000  0.39491000  0.88950000  1
  N  N393  1  0.02843000  0.89491000  0.88950000  1
  N  N394  1  0.78934000  0.38771000  0.96288000  1
  N  N395  1  0.17354000  0.88771000  0.96288000  1
  O  O396  1  0.09943000  0.98492000  0.13550000  1
  O  O397  1  0.03607000  0.48492000  0.13550000  1
  O  O398  1  0.10555000  0.24114000  0.13818000  1
  O  O399  1  0.03263000  0.74114000  0.13818000  1
  O  O400  1  0.13395000  0.21551000  0.23490000  1
  O  O401  1  0.10095000  0.71551000  0.23490000  1
  O  O402  1  0.14994000  0.06824000  0.23574000  1
  O  O403  1  0.08580000  0.56824000  0.23574000  1
  O  O404  1  0.42629000  0.33700000  0.42872000  1
  O  O405  1  0.00243000  0.83700000  0.42872000  1
  O  O406  1  0.59529000  0.42160000  0.43958000  1
  O  O407  1  0.84429000  0.92160000  0.43958000  1
  O  O408  1  0.35655000  0.25371000  0.45170000  1
  O  O409  1  0.09515000  0.75371000  0.45170000  1
  O  O410  1  0.70828000  0.89463000  0.45536000  1
  O  O411  1  0.74708000  0.39463000  0.45536000  1
  O  O412  1  0.29172000  0.10537000  0.54464000  1
  O  O413  1  0.25292000  0.60537000  0.54464000  1
  O  O414  1  0.64345000  0.74629000  0.54830000  1
  O  O415  1  0.90485000  0.24629000  0.54830000  1
  O  O416  1  0.40471000  0.57840000  0.56042000  1
  O  O417  1  0.15571000  0.07840000  0.56042000  1
  O  O418  1  0.57371000  0.66300000  0.57128000  1
  O  O419  1  0.99757000  0.16300000  0.57128000  1
  O  O420  1  0.85006000  0.93176000  0.76426000  1
  O  O421  1  0.91420000  0.43176000  0.76426000  1
  O  O422  1  0.86605000  0.78449000  0.76510000  1
  O  O423  1  0.89905000  0.28449000  0.76510000  1
  O  O424  1  0.89445000  0.75886000  0.86182000  1
  O  O425  1  0.96737000  0.25886000  0.86182000  1
  O  O426  1  0.90057000  0.01508000  0.86450000  1
  O  O427  1  0.96393000  0.51508000  0.86450000  1
