# generated using pymatgen
data_ZnH20C26(NO)6
_symmetry_space_group_name_H-M   'P 1'
_cell_length_a   11.60250000
_cell_length_b   16.39800000
_cell_length_c   16.79600000
_cell_angle_alpha   90.00000000
_cell_angle_beta   109.30000000
_cell_angle_gamma   90.00000000
_symmetry_Int_Tables_number   1
_chemical_formula_structural   ZnH20C26(NO)6
_chemical_formula_sum   'Zn4 H80 C104 N24 O24'
_cell_volume   3015.98193590
_cell_formula_units_Z   4
loop_
 _symmetry_equiv_pos_site_id
 _symmetry_equiv_pos_as_xyz
  1  'x, y, z'
loop_
 _atom_site_type_symbol
 _atom_site_label
 _atom_site_symmetry_multiplicity
 _atom_site_fract_x
 _atom_site_fract_y
 _atom_site_fract_z
 _atom_site_occupancy
  Zn  Zn0  1  0.33270000  0.00914000  0.72535000  1
  Zn  Zn1  1  0.33270000  0.49086000  0.22535000  1
  Zn  Zn2  1  0.66730000  0.50914000  0.77465000  1
  Zn  Zn3  1  0.66730000  0.99086000  0.27465000  1
  H  H4  1  0.00230000  0.16710000  0.22460000  1
  H  H5  1  0.00230000  0.33290000  0.72460000  1
  H  H6  1  0.02780000  0.13830000  0.92520000  1
  H  H7  1  0.02780000  0.36170000  0.42520000  1
  H  H8  1  0.06050000  0.65840000  0.89690000  1
  H  H9  1  0.06050000  0.84160000  0.39690000  1
  H  H10  1  0.07720000  0.07600000  0.42750000  1
  H  H11  1  0.07720000  0.42400000  0.92750000  1
  H  H12  1  0.10190000  0.09960000  0.70410000  1
  H  H13  1  0.10190000  0.40040000  0.20410000  1
  H  H14  1  0.10740000  0.64090000  0.11350000  1
  H  H15  1  0.10740000  0.85910000  0.61350000  1
  H  H16  1  0.11210000  0.55700000  0.54460000  1
  H  H17  1  0.11210000  0.94300000  0.04460000  1
  H  H18  1  0.11280000  0.19900000  0.13720000  1
  H  H19  1  0.11280000  0.30100000  0.63720000  1
  H  H20  1  0.11900000  0.20830000  0.86640000  1
  H  H21  1  0.11900000  0.29170000  0.36640000  1
  H  H22  1  0.21530000  0.24450000  0.77320000  1
  H  H23  1  0.21530000  0.25550000  0.27320000  1
  H  H24  1  0.21690000  0.52010000  0.45470000  1
  H  H25  1  0.21690000  0.97990000  0.95470000  1
  H  H26  1  0.23840000  0.02310000  0.53380000  1
  H  H27  1  0.23840000  0.47690000  0.03380000  1
  H  H28  1  0.26730000  0.69210000  0.18030000  1
  H  H29  1  0.26730000  0.80790000  0.68030000  1
  H  H30  1  0.34300000  0.17350000  0.51270000  1
  H  H31  1  0.34300000  0.32650000  0.01270000  1
  H  H32  1  0.35300000  0.17410000  0.23760000  1
  H  H33  1  0.35300000  0.32590000  0.73760000  1
  H  H34  1  0.36700000  0.67740000  0.54800000  1
  H  H35  1  0.36700000  0.82260000  0.04800000  1
  H  H36  1  0.42180000  0.74730000  0.28730000  1
  H  H37  1  0.42180000  0.75270000  0.78730000  1
  H  H38  1  0.42530000  0.15840000  0.66510000  1
  H  H39  1  0.42530000  0.34160000  0.16510000  1
  H  H40  1  0.47690000  0.08310000  0.89640000  1
  H  H41  1  0.47690000  0.41690000  0.39640000  1
  H  H42  1  0.47940000  0.08960000  0.47450000  1
  H  H43  1  0.47940000  0.41040000  0.97450000  1
  H  H44  1  0.52060000  0.58960000  0.02550000  1
  H  H45  1  0.52060000  0.91040000  0.52550000  1
  H  H46  1  0.52310000  0.58310000  0.60360000  1
  H  H47  1  0.52310000  0.91690000  0.10360000  1
  H  H48  1  0.57470000  0.65840000  0.83490000  1
  H  H49  1  0.57470000  0.84160000  0.33490000  1
  H  H50  1  0.57820000  0.24730000  0.21270000  1
  H  H51  1  0.57820000  0.25270000  0.71270000  1
  H  H52  1  0.63300000  0.17740000  0.95200000  1
  H  H53  1  0.63300000  0.32260000  0.45200000  1
  H  H54  1  0.64700000  0.67410000  0.26240000  1
  H  H55  1  0.64700000  0.82590000  0.76240000  1
  H  H56  1  0.65700000  0.67350000  0.98730000  1
  H  H57  1  0.65700000  0.82650000  0.48730000  1
  H  H58  1  0.73270000  0.19210000  0.31970000  1
  H  H59  1  0.73270000  0.30790000  0.81970000  1
  H  H60  1  0.76160000  0.52310000  0.96620000  1
  H  H61  1  0.76160000  0.97690000  0.46620000  1
  H  H62  1  0.78310000  0.02010000  0.04530000  1
  H  H63  1  0.78310000  0.47990000  0.54530000  1
  H  H64  1  0.78470000  0.74450000  0.72680000  1
  H  H65  1  0.78470000  0.75550000  0.22680000  1
  H  H66  1  0.88100000  0.70830000  0.63360000  1
  H  H67  1  0.88100000  0.79170000  0.13360000  1
  H  H68  1  0.88720000  0.69900000  0.36280000  1
  H  H69  1  0.88720000  0.80100000  0.86280000  1
  H  H70  1  0.88790000  0.05700000  0.95540000  1
  H  H71  1  0.88790000  0.44300000  0.45540000  1
  H  H72  1  0.89260000  0.14090000  0.38650000  1
  H  H73  1  0.89260000  0.35910000  0.88650000  1
  H  H74  1  0.89810000  0.59960000  0.79590000  1
  H  H75  1  0.89810000  0.90040000  0.29590000  1
  H  H76  1  0.92280000  0.57600000  0.07250000  1
  H  H77  1  0.92280000  0.92400000  0.57250000  1
  H  H78  1  0.93950000  0.15840000  0.60310000  1
  H  H79  1  0.93950000  0.34160000  0.10310000  1
  H  H80  1  0.97220000  0.63830000  0.57480000  1
  H  H81  1  0.97220000  0.86170000  0.07480000  1
  H  H82  1  0.99770000  0.66710000  0.27540000  1
  H  H83  1  0.99770000  0.83290000  0.77540000  1
  C  C84  1  0.00100000  0.63040000  0.91290000  1
  C  C85  1  0.00100000  0.86960000  0.41290000  1
  C  C86  1  0.00870000  0.13430000  0.03550000  1
  C  C87  1  0.00870000  0.36570000  0.53550000  1
  C  C88  1  0.01150000  0.62410000  0.99690000  1
  C  C89  1  0.01150000  0.87590000  0.49690000  1
  C  C90  1  0.02060000  0.64450000  0.32990000  1
  C  C91  1  0.02060000  0.85550000  0.82990000  1
  C  C92  1  0.04430000  0.16470000  0.11770000  1
  C  C93  1  0.04430000  0.33530000  0.61770000  1
  C  C94  1  0.08080000  0.08220000  0.48390000  1
  C  C95  1  0.08080000  0.41780000  0.98390000  1
  C  C96  1  0.08900000  0.57940000  0.49000000  1
  C  C97  1  0.08900000  0.92060000  0.99000000  1
  C  C98  1  0.09710000  0.09540000  0.64720000  1
  C  C99  1  0.09710000  0.40460000  0.14720000  1
  C  C100  1  0.12000000  0.59110000  0.35630000  1
  C  C101  1  0.12000000  0.90890000  0.85630000  1
  C  C102  1  0.15210000  0.55760000  0.43670000  1
  C  C103  1  0.15210000  0.94240000  0.93670000  1
  C  C104  1  0.16310000  0.20660000  0.98720000  1
  C  C105  1  0.16310000  0.29340000  0.48720000  1
  C  C106  1  0.17650000  0.05020000  0.54790000  1
  C  C107  1  0.17650000  0.44980000  0.04790000  1
  C  C108  1  0.18960000  0.57150000  0.29730000  1
  C  C109  1  0.18960000  0.92850000  0.79730000  1
  C  C110  1  0.20150000  0.70430000  0.06020000  1
  C  C111  1  0.20150000  0.79570000  0.56020000  1
  C  C112  1  0.26420000  0.22290000  0.39610000  1
  C  C113  1  0.26420000  0.27710000  0.89610000  1
  C  C114  1  0.26900000  0.22210000  0.31450000  1
  C  C115  1  0.26900000  0.27790000  0.81450000  1
  C  C116  1  0.34400000  0.17350000  0.45700000  1
  C  C117  1  0.34400000  0.32650000  0.95700000  1
  C  C118  1  0.35100000  0.17340000  0.29310000  1
  C  C119  1  0.35100000  0.32660000  0.79310000  1
  C  C120  1  0.37170000  0.72270000  0.66500000  1
  C  C121  1  0.37170000  0.77730000  0.16500000  1
  C  C122  1  0.40560000  0.67250000  0.60660000  1
  C  C123  1  0.40560000  0.82750000  0.10660000  1
  C  C124  1  0.42600000  0.12360000  0.43370000  1
  C  C125  1  0.42600000  0.37640000  0.93370000  1
  C  C126  1  0.43040000  0.12340000  0.35290000  1
  C  C127  1  0.43040000  0.37660000  0.85290000  1
  C  C128  1  0.43840000  0.71700000  0.74860000  1
  C  C129  1  0.43840000  0.78300000  0.24860000  1
  C  C130  1  0.47050000  0.15980000  0.72300000  1
  C  C131  1  0.47050000  0.34020000  0.22300000  1
  C  C132  1  0.47810000  0.56990000  0.16870000  1
  C  C133  1  0.47810000  0.93010000  0.66870000  1
  C  C134  1  0.49840000  0.61630000  0.64060000  1
  C  C135  1  0.49840000  0.88370000  0.14060000  1
  C  C136  1  0.50160000  0.11630000  0.85940000  1
  C  C137  1  0.50160000  0.38370000  0.35940000  1
  C  C138  1  0.52190000  0.06990000  0.33130000  1
  C  C139  1  0.52190000  0.43010000  0.83130000  1
  C  C140  1  0.52950000  0.65980000  0.77700000  1
  C  C141  1  0.52950000  0.84020000  0.27700000  1
  C  C142  1  0.56160000  0.21700000  0.75140000  1
  C  C143  1  0.56160000  0.28300000  0.25140000  1
  C  C144  1  0.56960000  0.62340000  0.14710000  1
  C  C145  1  0.56960000  0.87660000  0.64710000  1
  C  C146  1  0.57400000  0.62360000  0.06630000  1
  C  C147  1  0.57400000  0.87640000  0.56630000  1
  C  C148  1  0.59440000  0.17250000  0.89340000  1
  C  C149  1  0.59440000  0.32750000  0.39340000  1
  C  C150  1  0.62830000  0.22270000  0.83500000  1
  C  C151  1  0.62830000  0.27730000  0.33500000  1
  C  C152  1  0.64900000  0.67340000  0.20690000  1
  C  C153  1  0.64900000  0.82660000  0.70690000  1
  C  C154  1  0.65600000  0.67350000  0.04300000  1
  C  C155  1  0.65600000  0.82650000  0.54300000  1
  C  C156  1  0.73100000  0.72210000  0.18550000  1
  C  C157  1  0.73100000  0.77790000  0.68550000  1
  C  C158  1  0.73580000  0.72290000  0.10390000  1
  C  C159  1  0.73580000  0.77710000  0.60390000  1
  C  C160  1  0.79850000  0.20430000  0.43980000  1
  C  C161  1  0.79850000  0.29570000  0.93980000  1
  C  C162  1  0.81040000  0.07150000  0.20270000  1
  C  C163  1  0.81040000  0.42850000  0.70270000  1
  C  C164  1  0.82350000  0.55020000  0.95210000  1
  C  C165  1  0.82350000  0.94980000  0.45210000  1
  C  C166  1  0.83690000  0.70660000  0.51280000  1
  C  C167  1  0.83690000  0.79340000  0.01280000  1
  C  C168  1  0.84790000  0.05760000  0.06330000  1
  C  C169  1  0.84790000  0.44240000  0.56330000  1
  C  C170  1  0.88000000  0.09110000  0.14370000  1
  C  C171  1  0.88000000  0.40890000  0.64370000  1
  C  C172  1  0.90290000  0.59540000  0.85280000  1
  C  C173  1  0.90290000  0.90460000  0.35280000  1
  C  C174  1  0.91100000  0.07940000  0.01000000  1
  C  C175  1  0.91100000  0.42060000  0.51000000  1
  C  C176  1  0.91920000  0.58220000  0.01610000  1
  C  C177  1  0.91920000  0.91780000  0.51610000  1
  C  C178  1  0.95570000  0.66470000  0.38230000  1
  C  C179  1  0.95570000  0.83530000  0.88230000  1
  C  C180  1  0.97940000  0.14450000  0.17010000  1
  C  C181  1  0.97940000  0.35550000  0.67010000  1
  C  C182  1  0.98850000  0.12410000  0.50310000  1
  C  C183  1  0.98850000  0.37590000  0.00310000  1
  C  C184  1  0.99130000  0.63430000  0.46450000  1
  C  C185  1  0.99130000  0.86570000  0.96450000  1
  C  C186  1  0.99900000  0.13040000  0.58710000  1
  C  C187  1  0.99900000  0.36960000  0.08710000  1
  N  N188  1  0.06220000  0.15730000  0.97590000  1
  N  N189  1  0.06220000  0.34270000  0.47590000  1
  N  N190  1  0.10680000  0.65460000  0.06340000  1
  N  N191  1  0.10680000  0.84540000  0.56340000  1
  N  N192  1  0.17430000  0.22780000  0.91090000  1
  N  N193  1  0.17430000  0.27220000  0.41090000  1
  N  N194  1  0.18670000  0.05530000  0.62930000  1
  N  N195  1  0.18670000  0.44470000  0.12930000  1
  N  N196  1  0.27860000  0.72100000  0.14010000  1
  N  N197  1  0.27860000  0.77900000  0.64010000  1
  N  N198  1  0.44350000  0.10670000  0.77310000  1
  N  N199  1  0.44350000  0.39330000  0.27310000  1
  N  N200  1  0.55650000  0.60670000  0.72690000  1
  N  N201  1  0.55650000  0.89330000  0.22690000  1
  N  N202  1  0.72140000  0.22100000  0.35990000  1
  N  N203  1  0.72140000  0.27900000  0.85990000  1
  N  N204  1  0.81330000  0.55530000  0.87070000  1
  N  N205  1  0.81330000  0.94470000  0.37070000  1
  N  N206  1  0.82570000  0.72780000  0.58910000  1
  N  N207  1  0.82570000  0.77220000  0.08910000  1
  N  N208  1  0.89320000  0.15460000  0.43660000  1
  N  N209  1  0.89320000  0.34540000  0.93660000  1
  N  N210  1  0.93780000  0.65730000  0.52410000  1
  N  N211  1  0.93780000  0.84270000  0.02410000  1
  O  O212  1  0.17400000  0.61398000  0.23312000  1
  O  O213  1  0.17400000  0.88602000  0.73312000  1
  O  O214  1  0.21460000  0.72820000  0.99450000  1
  O  O215  1  0.21460000  0.77180000  0.49450000  1
  O  O216  1  0.23270000  0.22810000  0.05592000  1
  O  O217  1  0.23270000  0.27190000  0.55592000  1
  O  O218  1  0.26220000  0.51101000  0.31660000  1
  O  O219  1  0.26220000  0.98899000  0.81660000  1
  O  O220  1  0.42620000  0.51450000  0.11780000  1
  O  O221  1  0.42620000  0.98550000  0.61780000  1
  O  O222  1  0.45790000  0.58070000  0.23680000  1
  O  O223  1  0.45790000  0.91930000  0.73680000  1
  O  O224  1  0.54210000  0.08070000  0.26320000  1
  O  O225  1  0.54210000  0.41930000  0.76320000  1
  O  O226  1  0.57380000  0.01450000  0.38220000  1
  O  O227  1  0.57380000  0.48550000  0.88220000  1
  O  O228  1  0.73780000  0.01101000  0.18340000  1
  O  O229  1  0.73780000  0.48899000  0.68340000  1
  O  O230  1  0.76730000  0.72810000  0.44408000  1
  O  O231  1  0.76730000  0.77190000  0.94408000  1
  O  O232  1  0.78540000  0.22820000  0.50550000  1
  O  O233  1  0.78540000  0.27180000  0.00550000  1
  O  O234  1  0.82600000  0.11398000  0.26688000  1
  O  O235  1  0.82600000  0.38602000  0.76688000  1
