# generated using pymatgen
data_CdH18C18(NO)4
_symmetry_space_group_name_H-M   'P 1'
_cell_length_a   11.91440000
_cell_length_b   14.01460000
_cell_length_c   15.76855785
_cell_angle_alpha   91.90170509
_cell_angle_beta   112.19662465
_cell_angle_gamma   90.00000000
_symmetry_Int_Tables_number   1
_chemical_formula_structural   CdH18C18(NO)4
_chemical_formula_sum   'Cd4 H72 C72 N16 O16'
_cell_volume   2436.27587159
_cell_formula_units_Z   4
loop_
 _symmetry_equiv_pos_site_id
 _symmetry_equiv_pos_as_xyz
  1  'x, y, z'
loop_
 _atom_site_type_symbol
 _atom_site_label
 _atom_site_symmetry_multiplicity
 _atom_site_fract_x
 _atom_site_fract_y
 _atom_site_fract_z
 _atom_site_occupancy
  Cd  Cd0  1  0.55204000  0.12754000  0.54548000  1
  Cd  Cd1  1  0.99344000  0.62754000  0.54548000  1
  Cd  Cd2  1  0.00656000  0.37246000  0.45452000  1
  Cd  Cd3  1  0.44796000  0.87246000  0.45452000  1
  H  H4  1  0.79750000  0.36270000  0.74340000  1
  H  H5  1  0.31060000  0.90990000  0.24100000  1
  H  H6  1  0.42160000  0.16000000  0.32900000  1
  H  H7  1  0.81810000  0.81390000  0.71560000  1
  H  H8  1  0.73620000  0.44780000  0.60360000  1
  H  H9  1  0.81150000  0.97840000  0.67560000  1
  H  H10  1  0.37710000  0.58110000  0.19560000  1
  H  H11  1  0.89750000  0.31390000  0.71560000  1
  H  H12  1  0.37690000  0.69270000  0.19200000  1
  H  H13  1  0.86410000  0.47840000  0.67560000  1
  H  H14  1  0.53250000  0.62970000  0.33900000  1
  H  H15  1  0.94590000  0.86270000  0.74340000  1
  H  H16  1  0.32900000  0.63030000  0.10080000  1
  H  H17  1  0.33110000  0.90750000  0.10260000  1
  H  H18  1  0.70400000  0.63470000  0.46880000  1
  H  H19  1  0.45070000  0.15150000  0.19440000  1
  H  H20  1  0.86740000  0.94780000  0.60360000  1
  H  H21  1  0.65740000  0.88590000  0.37180000  1
  H  H22  1  0.76480000  0.13470000  0.46880000  1
  H  H23  1  0.39350000  0.43240000  0.09260000  1
  H  H24  1  0.40160000  0.32080000  0.09340000  1
  H  H25  1  0.06960000  0.59010000  0.75900000  1
  H  H26  1  0.54810000  0.38310000  0.23740000  1
  H  H27  1  0.22820000  0.86970000  0.89920000  1
  H  H28  1  0.22850000  0.59250000  0.89740000  1
  H  H29  1  0.71440000  0.38590000  0.37180000  1
  H  H30  1  0.35200000  0.37240000  1.00000000  1
  H  H31  1  0.35200000  0.12760000  1.00000000  1
  H  H32  1  0.18490000  0.80730000  0.80800000  1
  H  H33  1  0.18150000  0.91890000  0.80440000  1
  H  H34  1  0.30090000  0.06760000  0.90740000  1
  H  H35  1  0.30820000  0.17920000  0.90660000  1
  H  H36  1  0.09260000  0.34000000  0.67100000  1
  H  H37  1  0.25630000  0.34850000  0.80560000  1
  H  H38  1  0.68930000  0.88310000  0.23740000  1
  H  H39  1  0.80650000  0.12970000  0.33900000  1
  H  H40  1  0.19350000  0.87030000  0.66100000  1
  H  H41  1  0.31070000  0.11690000  0.76260000  1
  H  H42  1  0.74370000  0.65150000  0.19440000  1
  H  H43  1  0.90740000  0.66000000  0.32900000  1
  H  H44  1  0.69180000  0.82080000  0.09340000  1
  H  H45  1  0.69910000  0.93240000  0.09260000  1
  H  H46  1  0.81850000  0.08110000  0.19560000  1
  H  H47  1  0.81510000  0.19270000  0.19200000  1
  H  H48  1  0.64800000  0.87240000  0.00000000  1
  H  H49  1  0.64800000  0.62760000  1.00000000  1
  H  H50  1  0.28560000  0.61410000  0.62820000  1
  H  H51  1  0.77150000  0.40750000  0.10260000  1
  H  H52  1  0.77180000  0.13030000  0.10080000  1
  H  H53  1  0.45190000  0.61690000  0.76260000  1
  H  H54  1  0.93040000  0.40990000  0.24100000  1
  H  H55  1  0.59840000  0.67920000  0.90660000  1
  H  H56  1  0.60650000  0.56760000  0.90740000  1
  H  H57  1  0.23520000  0.86530000  0.53120000  1
  H  H58  1  0.34260000  0.11410000  0.62820000  1
  H  H59  1  0.13260000  0.05220000  0.39640000  1
  H  H60  1  0.54930000  0.84850000  0.80560000  1
  H  H61  1  0.29600000  0.36530000  0.53120000  1
  H  H62  1  0.66890000  0.09250000  0.89740000  1
  H  H63  1  0.67100000  0.36970000  0.89920000  1
  H  H64  1  0.05410000  0.13730000  0.25660000  1
  H  H65  1  0.46750000  0.37030000  0.66100000  1
  H  H66  1  0.13590000  0.52160000  0.32440000  1
  H  H67  1  0.62310000  0.30730000  0.80800000  1
  H  H68  1  0.10250000  0.68610000  0.28440000  1
  H  H69  1  0.62290000  0.41890000  0.80440000  1
  H  H70  1  0.18850000  0.02160000  0.32440000  1
  H  H71  1  0.26380000  0.55220000  0.39640000  1
  H  H72  1  0.18190000  0.18610000  0.28440000  1
  H  H73  1  0.57840000  0.84000000  0.67100000  1
  H  H74  1  0.68940000  0.09010000  0.75900000  1
  H  H75  1  0.20250000  0.63730000  0.25660000  1
  C  C76  1  0.72564000  0.26250000  0.63748000  1
  C  C77  1  0.81704000  0.34090000  0.69168000  1
  C  C78  1  0.69158000  0.90500000  0.56536000  1
  C  C79  1  0.38772000  0.90300000  0.23984000  1
  C  C80  1  0.49991000  0.15210000  0.33062000  1
  C  C81  1  0.81620000  0.92660000  0.63480000  1
  C  C82  1  0.87464000  0.84090000  0.69168000  1
  C  C83  1  0.81860000  0.42660000  0.63480000  1
  C  C84  1  0.38780000  0.63440000  0.16260000  1
  C  C85  1  0.39886000  0.90140000  0.15632000  1
  C  C86  1  0.51672000  0.14810000  0.24964000  1
  C  C87  1  0.60802000  0.63470000  0.33484000  1
  C  C88  1  0.59090000  0.88900000  0.31680000  1
  C  C89  1  0.91184000  0.76250000  0.63748000  1
  C  C90  1  0.70059000  0.13790000  0.41238000  1
  C  C91  1  0.71179000  0.63790000  0.41238000  1
  C  C92  1  0.87378000  0.40500000  0.56536000  1
  C  C93  1  0.40931000  0.37660000  0.06222000  1
  C  C94  1  0.51062000  0.63310000  0.16124000  1
  C  C95  1  0.51261000  0.89060000  0.15362000  1
  C  C96  1  0.61791000  0.63890000  0.25022000  1
  C  C97  1  0.61084000  0.88690000  0.23628000  1
  C  C98  1  0.63231000  0.13890000  0.25022000  1
  C  C99  1  0.14788000  0.59700000  0.76016000  1
  C  C100  1  0.22520000  0.86560000  0.83740000  1
  C  C101  1  0.62544000  0.38690000  0.23628000  1
  C  C102  1  0.72682000  0.13470000  0.33484000  1
  C  C103  1  0.24254000  0.59860000  0.84368000  1
  C  C104  1  0.72590000  0.38900000  0.31680000  1
  C  C105  1  0.34709000  0.12340000  0.93778000  1
  C  C106  1  0.52750000  0.88290000  0.06300000  1
  C  C107  1  0.53550000  0.38290000  0.06300000  1
  C  C108  1  0.73292000  0.64810000  0.24964000  1
  C  C109  1  0.64101000  0.39060000  0.15362000  1
  C  C110  1  0.65062000  0.13310000  0.16124000  1
  C  C111  1  0.16929000  0.34790000  0.66938000  1
  C  C112  1  0.83071000  0.65210000  0.33062000  1
  C  C113  1  0.34938000  0.86690000  0.83876000  1
  C  C114  1  0.35899000  0.60940000  0.84638000  1
  C  C115  1  0.26708000  0.35190000  0.75036000  1
  C  C116  1  0.46450000  0.61710000  0.93700000  1
  C  C117  1  0.47250000  0.11710000  0.93700000  1
  C  C118  1  0.65291000  0.87660000  0.06222000  1
  C  C119  1  0.27410000  0.61100000  0.68320000  1
  C  C120  1  0.75746000  0.40140000  0.15632000  1
  C  C121  1  0.27318000  0.86530000  0.66516000  1
  C  C122  1  0.37456000  0.61310000  0.76372000  1
  C  C123  1  0.77480000  0.13440000  0.16260000  1
  C  C124  1  0.85212000  0.40300000  0.23984000  1
  C  C125  1  0.36769000  0.86110000  0.74978000  1
  C  C126  1  0.38916000  0.11310000  0.76372000  1
  C  C127  1  0.38209000  0.36110000  0.74978000  1
  C  C128  1  0.48739000  0.10940000  0.84638000  1
  C  C129  1  0.48938000  0.36690000  0.83876000  1
  C  C130  1  0.59069000  0.62340000  0.93778000  1
  C  C131  1  0.12622000  0.59500000  0.43464000  1
  C  C132  1  0.28821000  0.36210000  0.58762000  1
  C  C133  1  0.29941000  0.86210000  0.58762000  1
  C  C134  1  0.08816000  0.23750000  0.36252000  1
  C  C135  1  0.40910000  0.11100000  0.68320000  1
  C  C136  1  0.39198000  0.36530000  0.66516000  1
  C  C137  1  0.48328000  0.85190000  0.75036000  1
  C  C138  1  0.60114000  0.09860000  0.84368000  1
  C  C139  1  0.61220000  0.36560000  0.83740000  1
  C  C140  1  0.18140000  0.57340000  0.36520000  1
  C  C141  1  0.12536000  0.15910000  0.30832000  1
  C  C142  1  0.18380000  0.07340000  0.36520000  1
  C  C143  1  0.50009000  0.84790000  0.66938000  1
  C  C144  1  0.61228000  0.09700000  0.76016000  1
  C  C145  1  0.30842000  0.09500000  0.43464000  1
  C  C146  1  0.18296000  0.65910000  0.30832000  1
  C  C147  1  0.27436000  0.73750000  0.36252000  1
  N  N148  1  0.48155000  0.89510000  0.31970000  1
  N  N149  1  0.59009000  0.14540000  0.41198000  1
  N  N150  1  0.82189000  0.64540000  0.41198000  1
  N  N151  1  0.43525000  0.62010000  0.00750000  1
  N  N152  1  0.42775000  0.87990000  0.99250000  1
  N  N153  1  0.53634000  0.62850000  0.09088000  1
  N  N154  1  0.55454000  0.12850000  0.09088000  1
  N  N155  1  0.16185000  0.60490000  0.68030000  1
  N  N156  1  0.83815000  0.39510000  0.31970000  1
  N  N157  1  0.44546000  0.87150000  0.90912000  1
  N  N158  1  0.46366000  0.37150000  0.90912000  1
  N  N159  1  0.57225000  0.12010000  0.00750000  1
  N  N160  1  0.56475000  0.37990000  0.99250000  1
  N  N161  1  0.17811000  0.35460000  0.58802000  1
  N  N162  1  0.40991000  0.85460000  0.58802000  1
  N  N163  1  0.51845000  0.10490000  0.68030000  1
  O  O164  1  0.62062000  0.28690000  0.58964000  1
  O  O165  1  0.62022000  0.97310000  0.53724000  1
  O  O166  1  0.75601000  0.17710000  0.64522000  1
  O  O167  1  0.65829000  0.82180000  0.53818000  1
  O  O168  1  0.88921000  0.67710000  0.64522000  1
  O  O169  1  0.87989000  0.32180000  0.53818000  1
  O  O170  1  0.96902000  0.78690000  0.58964000  1
  O  O171  1  0.91702000  0.47310000  0.53724000  1
  O  O172  1  0.08298000  0.52690000  0.46276000  1
  O  O173  1  0.03098000  0.21310000  0.41036000  1
  O  O174  1  0.12011000  0.67820000  0.46182000  1
  O  O175  1  0.11079000  0.32290000  0.35478000  1
  O  O176  1  0.34171000  0.17820000  0.46182000  1
  O  O177  1  0.24399000  0.82290000  0.35478000  1
  O  O178  1  0.37978000  0.02690000  0.46276000  1
  O  O179  1  0.37938000  0.71310000  0.41036000  1
