# generated using pymatgen
data_CoH30(C3N)12
_symmetry_space_group_name_H-M   'P 1'
_cell_length_a   8.09600000
_cell_length_b   13.26269592
_cell_length_c   21.50700000
_cell_angle_alpha   90.00000000
_cell_angle_beta   90.00000000
_cell_angle_gamma   102.71318704
_symmetry_Int_Tables_number   1
_chemical_formula_structural   CoH30(C3N)12
_chemical_formula_sum   'Co2 H60 C72 N24'
_cell_volume   2252.69430641
_cell_formula_units_Z   2
loop_
 _symmetry_equiv_pos_site_id
 _symmetry_equiv_pos_as_xyz
  1  'x, y, z'
loop_
 _atom_site_type_symbol
 _atom_site_label
 _atom_site_symmetry_multiplicity
 _atom_site_fract_x
 _atom_site_fract_y
 _atom_site_fract_z
 _atom_site_occupancy
  Co  Co0  1  0.00000000  0.00000000  0.00000000  1
  Co  Co1  1  0.50000000  0.50000000  0.50000000  1
  H  H2  1  0.65180000  0.60990000  0.07390000  1
  H  H3  1  0.15180000  0.10990000  0.42610000  1
  H  H4  1  0.53430000  0.43920000  0.09940000  1
  H  H5  1  0.03430000  0.93920000  0.40060000  1
  H  H6  1  0.84770000  0.74840000  0.02520000  1
  H  H7  1  0.34770000  0.24840000  0.47480000  1
  H  H8  1  0.50340000  0.37000000  0.63140000  1
  H  H9  1  0.00340000  0.87000000  0.86860000  1
  H  H10  1  0.49340000  0.34010000  0.74470000  1
  H  H11  1  0.99340000  0.84010000  0.75530000  1
  H  H12  1  0.04970000  0.88140000  0.13140000  1
  H  H13  1  0.54970000  0.38140000  0.36860000  1
  H  H14  1  0.32930000  0.08310000  0.09660000  1
  H  H15  1  0.82930000  0.58310000  0.40340000  1
  H  H16  1  0.51150000  0.25580000  0.10060000  1
  H  H17  1  0.01150000  0.75580000  0.39940000  1
  H  H18  1  0.85820000  0.60170000  0.57460000  1
  H  H19  1  0.35820000  0.10170000  0.92540000  1
  H  H20  1  0.01180000  0.74730000  0.66490000  1
  H  H21  1  0.51180000  0.24730000  0.83510000  1
  H  H22  1  0.98680000  0.71480000  0.19050000  1
  H  H23  1  0.48680000  0.21480000  0.30950000  1
  H  H24  1  0.10910000  0.74950000  0.55170000  1
  H  H25  1  0.60910000  0.24950000  0.94830000  1
  H  H26  1  0.50790000  0.12780000  0.21710000  1
  H  H27  1  0.00790000  0.62780000  0.28290000  1
  H  H28  1  0.96450000  0.53430000  0.66850000  1
  H  H29  1  0.46450000  0.03430000  0.83150000  1
  H  H30  1  0.80070000  0.36670000  0.52270000  1
  H  H31  1  0.30070000  0.86670000  0.97730000  1
  H  H32  1  0.69930000  0.13330000  0.02270000  1
  H  H33  1  0.19930000  0.63330000  0.47730000  1
  H  H34  1  0.53550000  0.96570000  0.16850000  1
  H  H35  1  0.03550000  0.46570000  0.33150000  1
  H  H36  1  0.99210000  0.37220000  0.71710000  1
  H  H37  1  0.49210000  0.87220000  0.78290000  1
  H  H38  1  0.39090000  0.75050000  0.05170000  1
  H  H39  1  0.89090000  0.25050000  0.44830000  1
  H  H40  1  0.51320000  0.78520000  0.69050000  1
  H  H41  1  0.01320000  0.28520000  0.80950000  1
  H  H42  1  0.48820000  0.75270000  0.16490000  1
  H  H43  1  0.98820000  0.25270000  0.33510000  1
  H  H44  1  0.64180000  0.89830000  0.07460000  1
  H  H45  1  0.14180000  0.39830000  0.42540000  1
  H  H46  1  0.98850000  0.24420000  0.60060000  1
  H  H47  1  0.48850000  0.74420000  0.89940000  1
  H  H48  1  0.17070000  0.41690000  0.59660000  1
  H  H49  1  0.67070000  0.91690000  0.90340000  1
  H  H50  1  0.45030000  0.61860000  0.63140000  1
  H  H51  1  0.95030000  0.11860000  0.86860000  1
  H  H52  1  0.00660000  0.15990000  0.24470000  1
  H  H53  1  0.50660000  0.65990000  0.25530000  1
  H  H54  1  0.99660000  0.13000000  0.13140000  1
  H  H55  1  0.49660000  0.63000000  0.36860000  1
  H  H56  1  0.65230000  0.75160000  0.52520000  1
  H  H57  1  0.15230000  0.25160000  0.97480000  1
  H  H58  1  0.96570000  0.06080000  0.59940000  1
  H  H59  1  0.46570000  0.56080000  0.90060000  1
  H  H60  1  0.84820000  0.89010000  0.57390000  1
  H  H61  1  0.34820000  0.39010000  0.92610000  1
  C  C62  1  0.28109000  0.26949000  0.50526000  1
  C  C63  1  0.78109000  0.76949000  0.99474000  1
  C  C64  1  0.59090000  0.56560000  0.04436000  1
  C  C65  1  0.09090000  0.06560000  0.45564000  1
  C  C66  1  0.42957000  0.39857000  0.01518000  1
  C  C67  1  0.92957000  0.89857000  0.48482000  1
  C  C68  1  0.52060000  0.46370000  0.05964000  1
  C  C69  1  0.02060000  0.96370000  0.44036000  1
  C  C70  1  0.31650000  0.13890000  0.07231000  1
  C  C71  1  0.81650000  0.63890000  0.42769000  1
  C  C72  1  0.41850000  0.23410000  0.07469000  1
  C  C73  1  0.91850000  0.73410000  0.42531000  1
  C  C74  1  0.60430000  0.41940000  0.62855000  1
  C  C75  1  0.10430000  0.91940000  0.87145000  1
  C  C76  1  0.79950000  0.54620000  0.59794000  1
  C  C77  1  0.29950000  0.04620000  0.90206000  1
  C  C78  1  0.12240000  0.86350000  0.10195000  1
  C  C79  1  0.62240000  0.36350000  0.39805000  1
  C  C80  1  0.09720000  0.82850000  0.74233000  1
  C  C81  1  0.59720000  0.32850000  0.75767000  1
  C  C82  1  0.10830000  0.77350000  0.68828000  1
  C  C83  1  0.60830000  0.27350000  0.81172000  1
  C  C84  1  0.85990000  0.50960000  0.64977000  1
  C  C85  1  0.35990000  0.00960000  0.85023000  1
  C  C86  1  0.74150000  0.36580000  0.72334000  1
  C  C87  1  0.24150000  0.86580000  0.77666000  1
  C  C88  1  0.09110000  0.70450000  0.20385000  1
  C  C89  1  0.59110000  0.20450000  0.29615000  1
  C  C90  1  0.26070000  0.85470000  0.01780000  1
  C  C91  1  0.76070000  0.35470000  0.48220000  1
  C  C92  1  0.60350000  0.15160000  0.24150000  1
  C  C93  1  0.10350000  0.65160000  0.25850000  1
  C  C94  1  0.18820000  0.70940000  0.55866000  1
  C  C95  1  0.68820000  0.20940000  0.94134000  1
  C  C96  1  0.23580000  0.74200000  0.16929000  1
  C  C97  1  0.73580000  0.24200000  0.33071000  1
  C  C98  1  0.26420000  0.75800000  0.66929000  1
  C  C99  1  0.76420000  0.25800000  0.83071000  1
  C  C100  1  0.31180000  0.79060000  0.05866000  1
  C  C101  1  0.81180000  0.29060000  0.44134000  1
  C  C102  1  0.89650000  0.34840000  0.74150000  1
  C  C103  1  0.39650000  0.84840000  0.75850000  1
  C  C104  1  0.23930000  0.64530000  0.51780000  1
  C  C105  1  0.73930000  0.14530000  0.98220000  1
  C  C106  1  0.40890000  0.79550000  0.70385000  1
  C  C107  1  0.90890000  0.29550000  0.79615000  1
  C  C108  1  0.75850000  0.13420000  0.22334000  1
  C  C109  1  0.25850000  0.63420000  0.27666000  1
  C  C110  1  0.64010000  0.99040000  0.14977000  1
  C  C111  1  0.14010000  0.49040000  0.35023000  1
  C  C112  1  0.39170000  0.72650000  0.18828000  1
  C  C113  1  0.89170000  0.22650000  0.31172000  1
  C  C114  1  0.40280000  0.67150000  0.24233000  1
  C  C115  1  0.90280000  0.17150000  0.25767000  1
  C  C116  1  0.37760000  0.63650000  0.60195000  1
  C  C117  1  0.87760000  0.13650000  0.89805000  1
  C  C118  1  0.70050000  0.95380000  0.09794000  1
  C  C119  1  0.20050000  0.45380000  0.40206000  1
  C  C120  1  0.89570000  0.08060000  0.12855000  1
  C  C121  1  0.39570000  0.58060000  0.37145000  1
  C  C122  1  0.08150000  0.26590000  0.57469000  1
  C  C123  1  0.58150000  0.76590000  0.92531000  1
  C  C124  1  0.18350000  0.36110000  0.57231000  1
  C  C125  1  0.68350000  0.86110000  0.92769000  1
  C  C126  1  0.97940000  0.03630000  0.55964000  1
  C  C127  1  0.47940000  0.53630000  0.94036000  1
  C  C128  1  0.07043000  0.10143000  0.51518000  1
  C  C129  1  0.57043000  0.60143000  0.98482000  1
  C  C130  1  0.90910000  0.93440000  0.54436000  1
  C  C131  1  0.40910000  0.43440000  0.95564000  1
  C  C132  1  0.21891000  0.23051000  0.00526000  1
  C  C133  1  0.71891000  0.73051000  0.49474000  1
  N  N134  1  0.19024000  0.13624000  0.02862000  1
  N  N135  1  0.69024000  0.63624000  0.47138000  1
  N  N136  1  0.35720000  0.29280000  0.03108000  1
  N  N137  1  0.85720000  0.79280000  0.46892000  1
  N  N138  1  0.63852000  0.48992000  0.58440000  1
  N  N139  1  0.13852000  0.98992000  0.91560000  1
  N  N140  1  0.13954000  0.89994000  0.04506000  1
  N  N141  1  0.63954000  0.39994000  0.45494000  1
  N  N142  1  0.73398000  0.42778000  0.66926000  1
  N  N143  1  0.23398000  0.92778000  0.83074000  1
  N  N144  1  0.22345000  0.79665000  0.11258000  1
  N  N145  1  0.72345000  0.29665000  0.38742000  1
  N  N146  1  0.27655000  0.70335000  0.61258000  1
  N  N147  1  0.77655000  0.20335000  0.88742000  1
  N  N148  1  0.76602000  0.07222000  0.16926000  1
  N  N149  1  0.26602000  0.57222000  0.33074000  1
  N  N150  1  0.36046000  0.60006000  0.54506000  1
  N  N151  1  0.86046000  0.10006000  0.95494000  1
  N  N152  1  0.86148000  0.01008000  0.08440000  1
  N  N153  1  0.36148000  0.51008000  0.41560000  1
  N  N154  1  0.14280000  0.20720000  0.53108000  1
  N  N155  1  0.64280000  0.70720000  0.96892000  1
  N  N156  1  0.30976000  0.36376000  0.52862000  1
  N  N157  1  0.80976000  0.86376000  0.97138000  1
