# generated using pymatgen
data_CdH11C19SN3O4
_symmetry_space_group_name_H-M   'P 1'
_cell_length_a   10.49400000
_cell_length_b   12.78000000
_cell_length_c   15.87000000
_cell_angle_alpha   109.31000000
_cell_angle_beta   90.00000000
_cell_angle_gamma   90.00000000
_symmetry_Int_Tables_number   1
_chemical_formula_structural   CdH11C19SN3O4
_chemical_formula_sum   'Cd4 H44 C76 S4 N12 O16'
_cell_volume   2008.64274083
_cell_formula_units_Z   4
loop_
 _symmetry_equiv_pos_site_id
 _symmetry_equiv_pos_as_xyz
  1  'x, y, z'
loop_
 _atom_site_type_symbol
 _atom_site_label
 _atom_site_symmetry_multiplicity
 _atom_site_fract_x
 _atom_site_fract_y
 _atom_site_fract_z
 _atom_site_occupancy
  Cd  Cd0  1  0.96749000  0.63880000  0.38754000  1
  Cd  Cd1  1  0.53251000  0.63880000  0.88754000  1
  Cd  Cd2  1  0.46749000  0.36120000  0.11246000  1
  Cd  Cd3  1  0.03251000  0.36120000  0.61246000  1
  H  H4  1  0.26120000  0.93540000  0.61710000  1
  H  H5  1  0.23880000  0.93540000  0.11710000  1
  H  H6  1  0.79660000  0.93530000  0.42920000  1
  H  H7  1  0.70340000  0.93530000  0.92920000  1
  H  H8  1  0.94770000  0.92170000  0.78280000  1
  H  H9  1  0.55230000  0.92170000  0.28280000  1
  H  H10  1  0.93010000  0.92080000  0.15870000  1
  H  H11  1  0.56990000  0.92080000  0.65870000  1
  H  H12  1  0.83750000  0.88760000  0.65030000  1
  H  H13  1  0.66250000  0.88760000  0.15030000  1
  H  H14  1  0.78220000  0.87900000  0.50250000  1
  H  H15  1  0.71780000  0.87900000  0.00250000  1
  H  H16  1  0.35860000  0.86150000  0.42920000  1
  H  H17  1  0.14140000  0.86150000  0.92920000  1
  H  H18  1  0.92800000  0.82250000  0.92650000  1
  H  H19  1  0.57200000  0.82250000  0.42650000  1
  H  H20  1  0.91040000  0.79320000  0.23270000  1
  H  H21  1  0.58960000  0.79320000  0.73270000  1
  H  H22  1  0.42890000  0.64110000  0.10620000  1
  H  H23  1  0.07110000  0.64110000  0.60620000  1
  H  H24  1  0.85200000  0.60330000  0.09960000  1
  H  H25  1  0.64800000  0.60330000  0.59960000  1
  H  H26  1  0.35200000  0.39670000  0.40040000  1
  H  H27  1  0.14800000  0.39670000  0.90040000  1
  H  H28  1  0.92890000  0.35890000  0.39380000  1
  H  H29  1  0.57110000  0.35890000  0.89380000  1
  H  H30  1  0.41040000  0.20680000  0.26730000  1
  H  H31  1  0.08960000  0.20680000  0.76730000  1
  H  H32  1  0.42800000  0.17750000  0.57350000  1
  H  H33  1  0.07200000  0.17750000  0.07350000  1
  H  H34  1  0.85860000  0.13850000  0.07080000  1
  H  H35  1  0.64140000  0.13850000  0.57080000  1
  H  H36  1  0.28220000  0.12100000  0.99750000  1
  H  H37  1  0.21780000  0.12100000  0.49750000  1
  H  H38  1  0.33750000  0.11240000  0.84970000  1
  H  H39  1  0.16250000  0.11240000  0.34970000  1
  H  H40  1  0.43010000  0.07920000  0.34130000  1
  H  H41  1  0.06990000  0.07920000  0.84130000  1
  H  H42  1  0.44770000  0.07830000  0.71720000  1
  H  H43  1  0.05230000  0.07830000  0.21720000  1
  H  H44  1  0.29660000  0.06470000  0.07080000  1
  H  H45  1  0.20340000  0.06470000  0.57080000  1
  H  H46  1  0.76120000  0.06460000  0.88290000  1
  H  H47  1  0.73880000  0.06460000  0.38290000  1
  C  C48  1  0.86980000  0.97600000  0.99810000  1
  C  C49  1  0.63020000  0.97600000  0.49810000  1
  C  C50  1  0.95310000  0.97200000  0.75200000  1
  C  C51  1  0.54690000  0.97200000  0.25200000  1
  C  C52  1  0.40080000  0.97190000  0.87030000  1
  C  C53  1  0.09920000  0.97190000  0.37030000  1
  C  C54  1  0.88780000  0.95060000  0.67330000  1
  C  C55  1  0.61220000  0.95060000  0.17330000  1
  C  C56  1  0.77020000  0.94790000  0.49030000  1
  C  C57  1  0.72980000  0.94790000  0.99030000  1
  C  C58  1  0.97240000  0.93270000  0.21260000  1
  C  C59  1  0.52760000  0.93270000  0.71260000  1
  C  C60  1  0.41560000  0.91770000  0.45790000  1
  C  C61  1  0.08440000  0.91770000  0.95790000  1
  C  C62  1  0.95640000  0.89420000  0.95620000  1
  C  C63  1  0.54360000  0.89420000  0.45620000  1
  C  C64  1  0.47500000  0.87550000  0.83550000  1
  C  C65  1  0.02500000  0.87550000  0.33550000  1
  C  C66  1  0.39570000  0.87360000  0.96160000  1
  C  C67  1  0.10430000  0.87360000  0.46160000  1
  C  C68  1  0.28750000  0.87130000  0.10530000  1
  C  C69  1  0.21250000  0.87130000  0.60530000  1
  C  C70  1  0.96050000  0.85620000  0.25620000  1
  C  C71  1  0.53950000  0.85620000  0.75620000  1
  C  C72  1  0.36920000  0.83190000  0.03510000  1
  C  C73  1  0.13080000  0.83190000  0.53510000  1
  C  C74  1  0.39650000  0.70470000  0.09780000  1
  C  C75  1  0.10350000  0.70470000  0.59780000  1
  C  C76  1  0.76680000  0.58050000  0.94040000  1
  C  C77  1  0.73320000  0.58050000  0.44040000  1
  C  C78  1  0.45820000  0.56700000  0.69210000  1
  C  C79  1  0.04180000  0.56700000  0.19210000  1
  C  C80  1  0.91200000  0.56210000  0.05910000  1
  C  C81  1  0.58800000  0.56210000  0.55910000  1
  C  C82  1  0.88770000  0.53690000  0.96870000  1
  C  C83  1  0.61230000  0.53690000  0.46870000  1
  C  C84  1  0.47770000  0.52860000  0.59230000  1
  C  C85  1  0.02230000  0.52860000  0.09230000  1
  C  C86  1  0.97770000  0.47140000  0.90770000  1
  C  C87  1  0.52230000  0.47140000  0.40770000  1
  C  C88  1  0.38770000  0.46310000  0.53130000  1
  C  C89  1  0.11230000  0.46310000  0.03130000  1
  C  C90  1  0.41200000  0.43790000  0.44090000  1
  C  C91  1  0.08800000  0.43790000  0.94090000  1
  C  C92  1  0.95820000  0.43300000  0.80790000  1
  C  C93  1  0.54180000  0.43300000  0.30790000  1
  C  C94  1  0.26680000  0.41950000  0.55960000  1
  C  C95  1  0.23320000  0.41950000  0.05960000  1
  C  C96  1  0.89650000  0.29530000  0.40220000  1
  C  C97  1  0.60350000  0.29530000  0.90220000  1
  C  C98  1  0.86920000  0.16810000  0.46490000  1
  C  C99  1  0.63080000  0.16810000  0.96490000  1
  C  C100  1  0.46050000  0.14380000  0.24380000  1
  C  C101  1  0.03950000  0.14380000  0.74380000  1
  C  C102  1  0.78750000  0.12870000  0.39470000  1
  C  C103  1  0.71250000  0.12870000  0.89470000  1
  C  C104  1  0.89570000  0.12640000  0.53840000  1
  C  C105  1  0.60430000  0.12640000  0.03840000  1
  C  C106  1  0.97500000  0.12450000  0.66450000  1
  C  C107  1  0.52500000  0.12450000  0.16450000  1
  C  C108  1  0.45640000  0.10580000  0.54380000  1
  C  C109  1  0.04360000  0.10580000  0.04380000  1
  C  C110  1  0.91560000  0.08230000  0.04210000  1
  C  C111  1  0.58440000  0.08230000  0.54210000  1
  C  C112  1  0.47240000  0.06730000  0.28740000  1
  C  C113  1  0.02760000  0.06730000  0.78740000  1
  C  C114  1  0.27020000  0.05210000  0.00970000  1
  C  C115  1  0.22980000  0.05210000  0.50970000  1
  C  C116  1  0.38780000  0.04940000  0.82670000  1
  C  C117  1  0.11220000  0.04940000  0.32670000  1
  C  C118  1  0.90080000  0.02810000  0.62970000  1
  C  C119  1  0.59920000  0.02810000  0.12970000  1
  C  C120  1  0.45310000  0.02800000  0.74800000  1
  C  C121  1  0.04690000  0.02800000  0.24800000  1
  C  C122  1  0.36980000  0.02400000  0.50190000  1
  C  C123  1  0.13020000  0.02400000  0.00190000  1
  S  S124  1  0.28740000  0.78680000  0.16827000  1
  S  S125  1  0.21260000  0.78680000  0.66827000  1
  S  S126  1  0.78740000  0.21320000  0.33173000  1
  S  S127  1  0.71260000  0.21320000  0.83173000  1
  N  N128  1  0.35280000  0.96860000  0.95090000  1
  N  N129  1  0.14720000  0.96860000  0.45090000  1
  N  N130  1  0.46970000  0.81500000  0.89360000  1
  N  N131  1  0.03030000  0.81500000  0.39360000  1
  N  N132  1  0.43210000  0.73630000  0.03130000  1
  N  N133  1  0.06790000  0.73630000  0.53130000  1
  N  N134  1  0.93210000  0.26370000  0.46870000  1
  N  N135  1  0.56790000  0.26370000  0.96870000  1
  N  N136  1  0.96970000  0.18500000  0.60640000  1
  N  N137  1  0.53030000  0.18500000  0.10640000  1
  N  N138  1  0.85280000  0.03140000  0.54910000  1
  N  N139  1  0.64720000  0.03140000  0.04910000  1
  O  O140  1  0.76880000  0.64810000  0.89990000  1
  O  O141  1  0.73120000  0.64810000  0.39990000  1
  O  O142  1  0.34700000  0.58730000  0.71930000  1
  O  O143  1  0.15300000  0.58730000  0.21930000  1
  O  O144  1  0.94450000  0.57870000  0.24020000  1
  O  O145  1  0.55550000  0.57870000  0.74020000  1
  O  O146  1  0.83700000  0.55050000  0.46480000  1
  O  O147  1  0.66300000  0.55050000  0.96480000  1
  O  O148  1  0.33700000  0.44950000  0.03520000  1
  O  O149  1  0.16300000  0.44950000  0.53520000  1
  O  O150  1  0.44450000  0.42130000  0.25980000  1
  O  O151  1  0.05550000  0.42130000  0.75980000  1
  O  O152  1  0.84700000  0.41270000  0.78070000  1
  O  O153  1  0.65300000  0.41270000  0.28070000  1
  O  O154  1  0.26880000  0.35190000  0.60010000  1
  O  O155  1  0.23120000  0.35190000  0.10010000  1
