# generated using pymatgen
data_Ni7H32C48(NO6)4
_symmetry_space_group_name_H-M   'P 1'
_cell_length_a   12.98800000
_cell_length_b   13.72200000
_cell_length_c   19.73000000
_cell_angle_alpha   90.00000000
_cell_angle_beta   90.00000000
_cell_angle_gamma   90.00000000
_symmetry_Int_Tables_number   1
_chemical_formula_structural   Ni7H32C48(NO6)4
_chemical_formula_sum   'Ni14 H64 C96 N8 O48'
_cell_volume   3516.30695928
_cell_formula_units_Z   2
loop_
 _symmetry_equiv_pos_site_id
 _symmetry_equiv_pos_as_xyz
  1  'x, y, z'
loop_
 _atom_site_type_symbol
 _atom_site_label
 _atom_site_symmetry_multiplicity
 _atom_site_fract_x
 _atom_site_fract_y
 _atom_site_fract_z
 _atom_site_occupancy
  Ni  Ni0  1  0.56086000  0.02400000  0.38513000  1
  Ni  Ni1  1  0.56086000  0.47600000  0.88513000  1
  Ni  Ni2  1  0.56086000  0.52400000  0.11487000  1
  Ni  Ni3  1  0.56086000  0.97600000  0.61487000  1
  Ni  Ni4  1  0.70699000  0.10226000  0.52599000  1
  Ni  Ni5  1  0.70699000  0.39774000  0.02599000  1
  Ni  Ni6  1  0.70699000  0.60226000  0.97401000  1
  Ni  Ni7  1  0.70699000  0.89774000  0.47401000  1
  Ni  Ni8  1  0.88594000  0.20094000  0.59776000  1
  Ni  Ni9  1  0.88594000  0.29906000  0.09776000  1
  Ni  Ni10  1  0.88594000  0.70094000  0.90224000  1
  Ni  Ni11  1  0.88594000  0.79906000  0.40224000  1
  Ni  Ni12  1  0.96377000  0.00000000  0.50000000  1
  Ni  Ni13  1  0.96377000  0.50000000  0.00000000  1
  H  H14  1  0.18030000  0.20100000  0.13620000  1
  H  H15  1  0.18030000  0.29900000  0.63620000  1
  H  H16  1  0.18030000  0.70100000  0.36380000  1
  H  H17  1  0.18030000  0.79900000  0.86380000  1
  H  H18  1  0.27570000  0.11100000  0.49370000  1
  H  H19  1  0.27570000  0.38900000  0.99370000  1
  H  H20  1  0.27570000  0.61100000  0.00630000  1
  H  H21  1  0.27570000  0.88900000  0.50630000  1
  H  H22  1  0.35020000  0.17030000  0.16510000  1
  H  H23  1  0.35020000  0.32970000  0.66510000  1
  H  H24  1  0.35020000  0.67030000  0.33490000  1
  H  H25  1  0.35020000  0.82970000  0.83490000  1
  H  H26  1  0.45530000  0.00000000  0.00000000  1
  H  H27  1  0.45530000  0.50000000  0.50000000  1
  H  H28  1  0.48170000  0.24830000  0.60960000  1
  H  H29  1  0.48170000  0.25170000  0.10960000  1
  H  H30  1  0.48170000  0.74830000  0.89040000  1
  H  H31  1  0.48170000  0.75170000  0.39040000  1
  H  H32  1  0.54600000  0.14490000  0.99830000  1
  H  H33  1  0.54600000  0.35510000  0.49830000  1
  H  H34  1  0.54600000  0.64490000  0.50170000  1
  H  H35  1  0.54600000  0.85510000  0.00170000  1
  H  H36  1  0.58910000  0.04850000  0.23650000  1
  H  H37  1  0.58910000  0.45150000  0.73650000  1
  H  H38  1  0.58910000  0.54850000  0.26350000  1
  H  H39  1  0.58910000  0.95150000  0.76350000  1
  H  H40  1  0.61280000  0.23760000  0.38260000  1
  H  H41  1  0.61280000  0.26240000  0.88260000  1
  H  H42  1  0.61280000  0.73760000  0.11740000  1
  H  H43  1  0.61280000  0.76240000  0.61740000  1
  H  H44  1  0.64720000  0.15960000  0.15890000  1
  H  H45  1  0.64720000  0.34040000  0.65890000  1
  H  H46  1  0.64720000  0.65960000  0.34110000  1
  H  H47  1  0.64720000  0.84040000  0.84110000  1
  H  H48  1  0.65640000  0.14100000  0.80650000  1
  H  H49  1  0.65640000  0.35900000  0.30650000  1
  H  H50  1  0.65640000  0.64100000  0.69350000  1
  H  H51  1  0.65640000  0.85900000  0.19350000  1
  H  H52  1  0.75280000  0.05300000  0.40530000  1
  H  H53  1  0.75280000  0.44700000  0.90530000  1
  H  H54  1  0.75280000  0.55300000  0.09470000  1
  H  H55  1  0.75280000  0.94700000  0.59470000  1
  H  H56  1  0.81380000  0.00000000  0.00000000  1
  H  H57  1  0.81380000  0.50000000  0.50000000  1
  H  H58  1  0.87180000  0.15290000  0.47970000  1
  H  H59  1  0.87180000  0.34710000  0.97970000  1
  H  H60  1  0.87180000  0.65290000  0.02030000  1
  H  H61  1  0.87180000  0.84710000  0.52030000  1
  H  H62  1  0.88280000  0.08240000  0.12730000  1
  H  H63  1  0.88280000  0.41760000  0.62730000  1
  H  H64  1  0.88280000  0.58240000  0.37270000  1
  H  H65  1  0.88280000  0.91760000  0.87270000  1
  H  H66  1  0.90390000  0.02780000  0.78750000  1
  H  H67  1  0.90390000  0.47220000  0.28750000  1
  H  H68  1  0.90390000  0.52780000  0.71250000  1
  H  H69  1  0.90390000  0.97220000  0.21250000  1
  H  H70  1  0.92000000  0.20260000  0.74860000  1
  H  H71  1  0.92000000  0.29740000  0.24860000  1
  H  H72  1  0.92000000  0.70260000  0.75140000  1
  H  H73  1  0.92000000  0.79740000  0.25140000  1
  H  H74  1  0.93370000  0.19500000  0.33800000  1
  H  H75  1  0.93370000  0.30500000  0.83800000  1
  H  H76  1  0.93370000  0.69500000  0.16200000  1
  H  H77  1  0.93370000  0.80500000  0.66200000  1
  C  C78  1  0.09920000  0.17320000  0.54920000  1
  C  C79  1  0.09920000  0.32680000  0.04920000  1
  C  C80  1  0.09920000  0.67320000  0.95080000  1
  C  C81  1  0.09920000  0.82680000  0.45080000  1
  C  C82  1  0.20980000  0.20190000  0.56180000  1
  C  C83  1  0.20980000  0.29810000  0.06180000  1
  C  C84  1  0.20980000  0.70190000  0.93820000  1
  C  C85  1  0.20980000  0.79810000  0.43820000  1
  C  C86  1  0.23310000  0.23270000  0.11330000  1
  C  C87  1  0.23310000  0.26730000  0.61330000  1
  C  C88  1  0.23310000  0.73270000  0.38670000  1
  C  C89  1  0.23310000  0.76730000  0.88670000  1
  C  C90  1  0.29060000  0.15580000  0.52770000  1
  C  C91  1  0.29060000  0.34420000  0.02770000  1
  C  C92  1  0.29060000  0.65580000  0.97230000  1
  C  C93  1  0.29060000  0.84420000  0.47230000  1
  C  C94  1  0.33500000  0.21440000  0.13070000  1
  C  C95  1  0.33500000  0.28560000  0.63070000  1
  C  C96  1  0.33500000  0.71440000  0.36930000  1
  C  C97  1  0.33500000  0.78560000  0.86930000  1
  C  C98  1  0.38990000  0.17490000  0.54310000  1
  C  C99  1  0.38990000  0.32510000  0.04310000  1
  C  C100  1  0.38990000  0.67490000  0.95690000  1
  C  C101  1  0.38990000  0.82510000  0.45690000  1
  C  C102  1  0.41360000  0.23830000  0.59690000  1
  C  C103  1  0.41360000  0.26170000  0.09690000  1
  C  C104  1  0.41360000  0.73830000  0.90310000  1
  C  C105  1  0.41360000  0.76170000  0.40310000  1
  C  C106  1  0.47690000  0.12460000  0.50840000  1
  C  C107  1  0.47690000  0.37540000  0.00840000  1
  C  C108  1  0.47690000  0.62460000  0.99160000  1
  C  C109  1  0.47690000  0.87540000  0.49160000  1
  C  C110  1  0.52690000  0.00000000  0.00000000  1
  C  C111  1  0.52690000  0.50000000  0.50000000  1
  C  C112  1  0.58170000  0.08620000  0.00010000  1
  C  C113  1  0.58170000  0.41380000  0.50010000  1
  C  C114  1  0.58170000  0.58620000  0.49990000  1
  C  C115  1  0.58170000  0.91380000  0.99990000  1
  C  C116  1  0.60540000  0.11110000  0.25100000  1
  C  C117  1  0.60540000  0.38890000  0.75100000  1
  C  C118  1  0.60540000  0.61110000  0.24900000  1
  C  C119  1  0.60540000  0.88890000  0.74900000  1
  C  C120  1  0.61720000  0.22260000  0.33670000  1
  C  C121  1  0.61720000  0.27740000  0.83670000  1
  C  C122  1  0.61720000  0.72260000  0.16330000  1
  C  C123  1  0.61720000  0.77740000  0.66330000  1
  C  C124  1  0.63740000  0.17790000  0.20390000  1
  C  C125  1  0.63740000  0.32210000  0.70390000  1
  C  C126  1  0.63740000  0.67790000  0.29610000  1
  C  C127  1  0.63740000  0.82210000  0.79610000  1
  C  C128  1  0.64490000  0.20430000  0.79140000  1
  C  C129  1  0.64490000  0.29570000  0.29140000  1
  C  C130  1  0.64490000  0.70430000  0.70860000  1
  C  C131  1  0.64490000  0.79570000  0.20860000  1
  C  C132  1  0.65500000  0.22720000  0.72410000  1
  C  C133  1  0.65500000  0.27280000  0.22410000  1
  C  C134  1  0.65500000  0.72720000  0.77590000  1
  C  C135  1  0.65500000  0.77280000  0.27590000  1
  C  C136  1  0.67190000  0.14870000  0.67130000  1
  C  C137  1  0.67190000  0.35130000  0.17130000  1
  C  C138  1  0.67190000  0.64870000  0.82870000  1
  C  C139  1  0.67190000  0.85130000  0.32870000  1
  C  C140  1  0.68800000  0.08790000  0.00290000  1
  C  C141  1  0.68800000  0.41210000  0.50290000  1
  C  C142  1  0.68800000  0.58790000  0.49710000  1
  C  C143  1  0.68800000  0.91210000  0.99710000  1
  C  C144  1  0.74220000  0.00000000  0.00000000  1
  C  C145  1  0.74220000  0.50000000  0.50000000  1
  C  C146  1  0.74230000  0.18420000  0.00990000  1
  C  C147  1  0.74230000  0.31580000  0.50990000  1
  C  C148  1  0.74230000  0.68420000  0.49010000  1
  C  C149  1  0.74230000  0.81580000  0.99010000  1
  C  C150  1  0.89520000  0.10580000  0.17080000  1
  C  C151  1  0.89520000  0.39420000  0.67080000  1
  C  C152  1  0.89520000  0.60580000  0.32920000  1
  C  C153  1  0.89520000  0.89420000  0.82920000  1
  C  C154  1  0.90650000  0.03860000  0.22200000  1
  C  C155  1  0.90650000  0.46140000  0.72200000  1
  C  C156  1  0.90650000  0.53860000  0.27800000  1
  C  C157  1  0.90650000  0.96140000  0.77800000  1
  C  C158  1  0.91560000  0.23070000  0.24090000  1
  C  C159  1  0.91560000  0.26930000  0.74090000  1
  C  C160  1  0.91560000  0.73070000  0.25910000  1
  C  C161  1  0.91560000  0.76930000  0.75910000  1
  C  C162  1  0.92170000  0.07050000  0.28710000  1
  C  C163  1  0.92170000  0.42950000  0.78710000  1
  C  C164  1  0.92170000  0.57050000  0.21290000  1
  C  C165  1  0.92170000  0.92950000  0.71290000  1
  C  C166  1  0.92490000  0.16900000  0.29490000  1
  C  C167  1  0.92490000  0.33100000  0.79490000  1
  C  C168  1  0.92490000  0.66900000  0.20510000  1
  C  C169  1  0.92490000  0.83100000  0.70510000  1
  C  C170  1  0.93370000  0.00340000  0.34700000  1
  C  C171  1  0.93370000  0.49660000  0.84700000  1
  C  C172  1  0.93370000  0.50340000  0.15300000  1
  C  C173  1  0.93370000  0.99660000  0.65300000  1
  N  N174  1  0.59680000  0.13210000  0.31670000  1
  N  N175  1  0.59680000  0.36790000  0.81670000  1
  N  N176  1  0.59680000  0.63210000  0.18330000  1
  N  N177  1  0.59680000  0.86790000  0.68330000  1
  N  N178  1  0.90080000  0.20040000  0.17904000  1
  N  N179  1  0.90080000  0.29960000  0.67904000  1
  N  N180  1  0.90080000  0.70040000  0.32096000  1
  N  N181  1  0.90080000  0.79960000  0.82096000  1
  O  O182  1  0.03280000  0.23060000  0.57166000  1
  O  O183  1  0.03280000  0.26940000  0.07166000  1
  O  O184  1  0.03280000  0.73060000  0.92834000  1
  O  O185  1  0.03280000  0.76940000  0.42834000  1
  O  O186  1  0.08480000  0.09650000  0.51819000  1
  O  O187  1  0.08480000  0.40350000  0.01819000  1
  O  O188  1  0.08480000  0.59650000  0.98181000  1
  O  O189  1  0.08480000  0.90350000  0.48181000  1
  O  O190  1  0.47190000  0.11380000  0.44562000  1
  O  O191  1  0.47190000  0.38620000  0.94562000  1
  O  O192  1  0.47190000  0.61380000  0.05438000  1
  O  O193  1  0.47190000  0.88620000  0.55438000  1
  O  O194  1  0.55080000  0.09510000  0.54491000  1
  O  O195  1  0.55080000  0.40490000  0.04491000  1
  O  O196  1  0.55080000  0.59510000  0.95509000  1
  O  O197  1  0.55080000  0.90490000  0.45509000  1
  O  O198  1  0.62330000  0.07280000  0.68133000  1
  O  O199  1  0.62330000  0.42720000  0.18133000  1
  O  O200  1  0.62330000  0.57280000  0.81867000  1
  O  O201  1  0.62330000  0.92720000  0.31867000  1
  O  O202  1  0.69200000  0.24190000  0.49140000  1
  O  O203  1  0.69200000  0.25810000  0.99140000  1
  O  O204  1  0.69200000  0.74190000  0.00860000  1
  O  O205  1  0.69200000  0.75810000  0.50860000  1
  O  O206  1  0.69540000  0.03663000  0.43540000  1
  O  O207  1  0.69540000  0.46337000  0.93540000  1
  O  O208  1  0.69540000  0.53663000  0.06460000  1
  O  O209  1  0.69540000  0.96337000  0.56460000  1
  O  O210  1  0.72510000  0.16940000  0.62104000  1
  O  O211  1  0.72510000  0.33060000  0.12104000  1
  O  O212  1  0.72510000  0.66940000  0.87896000  1
  O  O213  1  0.72510000  0.83060000  0.37896000  1
  O  O214  1  0.82990000  0.18510000  0.03621000  1
  O  O215  1  0.82990000  0.31490000  0.53621000  1
  O  O216  1  0.82990000  0.68510000  0.46379000  1
  O  O217  1  0.82990000  0.81490000  0.96379000  1
  O  O218  1  0.86190000  0.11000000  0.51891000  1
  O  O219  1  0.86190000  0.39000000  0.01891000  1
  O  O220  1  0.86190000  0.61000000  0.98109000  1
  O  O221  1  0.86190000  0.89000000  0.48109000  1
  O  O222  1  0.92010000  0.08530000  0.66287000  1
  O  O223  1  0.92010000  0.41470000  0.16287000  1
  O  O224  1  0.92010000  0.58530000  0.83713000  1
  O  O225  1  0.92010000  0.91470000  0.33713000  1
  O  O226  1  0.95450000  0.04460000  0.40161000  1
  O  O227  1  0.95450000  0.45540000  0.90161000  1
  O  O228  1  0.95450000  0.54460000  0.09839000  1
  O  O229  1  0.95450000  0.95540000  0.59839000  1
