# generated using pymatgen
data_NdH3C7NO4
_symmetry_space_group_name_H-M   'P 1'
_cell_length_a   15.64300000
_cell_length_b   17.16264783
_cell_length_c   17.85106602
_cell_angle_alpha   77.70011090
_cell_angle_beta   64.01389879
_cell_angle_gamma   62.88821207
_symmetry_Int_Tables_number   1
_chemical_formula_structural   NdH3C7NO4
_chemical_formula_sum   'Nd8 H24 C56 N8 O32'
_cell_volume   3834.13757146
_cell_formula_units_Z   8
loop_
 _symmetry_equiv_pos_site_id
 _symmetry_equiv_pos_as_xyz
  1  'x, y, z'
loop_
 _atom_site_type_symbol
 _atom_site_label
 _atom_site_symmetry_multiplicity
 _atom_site_fract_x
 _atom_site_fract_y
 _atom_site_fract_z
 _atom_site_occupancy
  C  C0  1  0.74270000  0.86010000  0.07030000  1
  C  C1  1  0.32690000  0.36010000  0.57030000  1
  C  C2  1  0.90640000  0.88830000  0.00490000  1
  C  C3  1  0.20040000  0.38830000  0.50490000  1
  C  C4  1  0.85430000  0.83840000  0.01220000  1
  C  C5  1  0.29510000  0.33840000  0.51220000  1
  C  C6  1  0.00700000  0.86610000  0.94690000  1
  C  C7  1  0.18000000  0.36610000  0.44690000  1
  C  C8  1  0.70380000  0.54750000  0.15350000  1
  C  C9  1  0.59520000  0.04750000  0.65350000  1
  C  C10  1  0.05300000  0.79610000  0.89570000  1
  C  C11  1  0.25520000  0.29610000  0.39570000  1
  C  C12  1  0.70320000  0.82850000  0.84610000  1
  C  C13  1  0.62220000  0.32850000  0.34610000  1
  C  C14  1  0.99600000  0.74830000  0.90690000  1
  C  C15  1  0.34880000  0.24830000  0.40690000  1
  C  C16  1  0.68670000  0.97950000  0.67170000  1
  C  C17  1  0.66210000  0.47950000  0.17170000  1
  C  C18  1  0.73930000  0.86910000  0.76150000  1
  C  C19  1  0.63010000  0.36910000  0.26150000  1
  C  C20  1  0.78870000  0.95940000  0.61620000  1
  C  C21  1  0.63570000  0.45940000  0.11620000  1
  C  C22  1  0.84390000  0.84100000  0.70700000  1
  C  C23  1  0.60810000  0.34100000  0.20700000  1
  C  C24  1  0.03660000  0.67120000  0.85340000  1
  C  C25  1  0.43880000  0.17120000  0.35340000  1
  C  C26  1  0.86760000  0.88840000  0.63360000  1
  C  C27  1  0.61040000  0.38840000  0.13360000  1
  C  C28  1  0.13240000  0.11160000  0.36640000  1
  C  C29  1  0.38960000  0.61160000  0.86640000  1
  C  C30  1  0.96340000  0.32880000  0.14660000  1
  C  C31  1  0.56120000  0.82880000  0.64660000  1
  C  C32  1  0.15610000  0.15900000  0.29300000  1
  C  C33  1  0.39190000  0.65900000  0.79300000  1
  C  C34  1  0.21130000  0.04060000  0.38380000  1
  C  C35  1  0.36430000  0.54060000  0.88380000  1
  C  C36  1  0.26070000  0.13090000  0.23850000  1
  C  C37  1  0.36990000  0.63090000  0.73850000  1
  C  C38  1  0.31330000  0.02050000  0.32830000  1
  C  C39  1  0.33790000  0.52050000  0.82830000  1
  C  C40  1  0.00400000  0.25170000  0.09310000  1
  C  C41  1  0.65120000  0.75170000  0.59310000  1
  C  C42  1  0.29680000  0.17150000  0.15390000  1
  C  C43  1  0.37780000  0.67150000  0.65390000  1
  C  C44  1  0.94700000  0.20390000  0.10430000  1
  C  C45  1  0.74480000  0.70390000  0.60430000  1
  C  C46  1  0.29620000  0.45250000  0.84650000  1
  C  C47  1  0.40480000  0.95250000  0.34650000  1
  C  C48  1  0.99300000  0.13390000  0.05310000  1
  C  C49  1  0.82000000  0.63390000  0.55310000  1
  C  C50  1  0.14570000  0.16160000  0.98780000  1
  C  C51  1  0.70490000  0.66160000  0.48780000  1
  C  C52  1  0.09360000  0.11170000  0.99510000  1
  C  C53  1  0.79960000  0.61170000  0.49510000  1
  C  C54  1  0.25730000  0.13990000  0.92970000  1
  C  C55  1  0.67310000  0.63990000  0.42970000  1
  H  H56  1  0.87300000  0.93730000  0.03970000  1
  H  H57  1  0.15000000  0.43730000  0.53970000  1
  H  H58  1  0.04450000  0.89890000  0.94190000  1
  H  H59  1  0.11470000  0.39890000  0.44190000  1
  H  H60  1  0.12180000  0.78050000  0.85410000  1
  H  H61  1  0.24360000  0.28050000  0.35410000  1
  H  H62  1  0.80440000  0.99380000  0.56700000  1
  H  H63  1  0.63480000  0.49380000  0.06700000  1
  H  H64  1  0.06190000  0.12800000  0.40480000  1
  H  H65  1  0.40530000  0.62800000  0.90480000  1
  H  H66  1  0.89670000  0.79120000  0.71980000  1
  H  H67  1  0.59230000  0.29120000  0.21980000  1
  H  H68  1  0.10330000  0.20880000  0.28020000  1
  H  H69  1  0.40770000  0.70880000  0.78020000  1
  H  H70  1  0.93810000  0.87200000  0.59520000  1
  H  H71  1  0.59470000  0.37200000  0.09520000  1
  H  H72  1  0.19560000  0.00620000  0.43300000  1
  H  H73  1  0.36520000  0.50620000  0.93300000  1
  H  H74  1  0.87820000  0.21950000  0.14590000  1
  H  H75  1  0.75640000  0.71950000  0.64590000  1
  H  H76  1  0.95550000  0.10110000  0.05810000  1
  H  H77  1  0.88530000  0.60110000  0.55810000  1
  H  H78  1  0.12700000  0.06270000  0.96030000  1
  H  H79  1  0.85000000  0.56270000  0.46030000  1
  N  N80  1  0.89900000  0.76880000  0.96420000  1
  N  N81  1  0.36800000  0.26880000  0.46420000  1
  N  N82  1  0.66300000  0.93450000  0.74210000  1
  N  N83  1  0.66040000  0.43450000  0.24210000  1
  N  N84  1  0.33700000  0.06550000  0.25790000  1
  N  N85  1  0.33960000  0.56550000  0.75790000  1
  N  N86  1  0.10100000  0.23120000  0.03580000  1
  N  N87  1  0.63200000  0.73120000  0.53580000  1
  Nd  Nd88  1  0.74710000  0.45253000  0.32637000  1
  Nd  Nd89  1  0.47400000  0.95253000  0.82637000  1
  Nd  Nd90  1  0.79701000  0.67669000  0.98589000  1
  Nd  Nd91  1  0.54041000  0.17669000  0.48589000  1
  Nd  Nd92  1  0.20299000  0.32331000  0.01411000  1
  Nd  Nd93  1  0.45959000  0.82331000  0.51411000  1
  Nd  Nd94  1  0.25291000  0.54745000  0.67363000  1
  Nd  Nd95  1  0.52601000  0.04745000  0.17363000  1
  O  O96  1  0.73570000  0.57290000  0.38610000  1
  O  O97  1  0.30530000  0.07290000  0.88610000  1
  O  O98  1  0.70250000  0.81140000  0.06960000  1
  O  O99  1  0.41650000  0.31140000  0.56960000  1
  O  O100  1  0.73950000  0.55050000  0.20490000  1
  O  O101  1  0.50510000  0.05050000  0.70490000  1
  O  O102  1  0.66180000  0.34960000  0.38260000  1
  O  O103  1  0.60600000  0.84960000  0.88260000  1
  O  O104  1  0.70460000  0.59450000  0.09090000  1
  O  O105  1  0.61000000  0.09450000  0.59090000  1
  O  O106  1  0.76920000  0.77900000  0.87440000  1
  O  O107  1  0.57740000  0.27900000  0.37440000  1
  O  O108  1  0.87540000  0.34860000  0.20480000  1
  O  O109  1  0.57120000  0.84860000  0.70480000  1
  O  O110  1  0.97809000  0.63332000  0.87230000  1
  O  O111  1  0.51629000  0.13332000  0.37230000  1
  O  O112  1  0.02191000  0.36668000  0.12770000  1
  O  O113  1  0.48371000  0.86668000  0.62770000  1
  O  O114  1  0.12460000  0.65140000  0.79520000  1
  O  O115  1  0.42880000  0.15140000  0.29520000  1
  O  O116  1  0.23080000  0.22100000  0.12560000  1
  O  O117  1  0.42260000  0.72100000  0.62560000  1
  O  O118  1  0.29540000  0.40550000  0.90910000  1
  O  O119  1  0.39000000  0.90550000  0.40910000  1
  O  O120  1  0.33820000  0.65040000  0.61740000  1
  O  O121  1  0.39400000  0.15040000  0.11740000  1
  O  O122  1  0.26050000  0.44950000  0.79510000  1
  O  O123  1  0.49490000  0.94950000  0.29510000  1
  O  O124  1  0.29750000  0.18860000  0.93040000  1
  O  O125  1  0.58350000  0.68860000  0.43040000  1
  O  O126  1  0.26430000  0.42710000  0.61390000  1
  O  O127  1  0.69470000  0.92710000  0.11390000  1
