# generated using pymatgen
data_K2H16PbC28S2O13
_symmetry_space_group_name_H-M   'P 1'
_cell_length_a   5.87270000
_cell_length_b   13.51070000
_cell_length_c   23.38000000
_cell_angle_alpha   90.00000000
_cell_angle_beta   90.00000000
_cell_angle_gamma   90.00000000
_symmetry_Int_Tables_number   1
_chemical_formula_structural   K2H16PbC28S2O13
_chemical_formula_sum   'K4 H32 Pb2 C56 S4 O26'
_cell_volume   1855.06945087
_cell_formula_units_Z   2
loop_
 _symmetry_equiv_pos_site_id
 _symmetry_equiv_pos_as_xyz
  1  'x, y, z'
loop_
 _atom_site_type_symbol
 _atom_site_label
 _atom_site_symmetry_multiplicity
 _atom_site_fract_x
 _atom_site_fract_y
 _atom_site_fract_z
 _atom_site_occupancy
  K  K0  1  0.90820000  0.25000000  0.12688000  1
  K  K1  1  0.90820000  0.25000000  0.37312000  1
  K  K2  1  0.09180000  0.75000000  0.62688000  1
  K  K3  1  0.09180000  0.75000000  0.87312000  1
  H  H4  1  0.16770000  0.00960000  0.07210000  1
  H  H5  1  0.16770000  0.00960000  0.42790000  1
  H  H6  1  0.19980000  0.01110000  0.63470000  1
  H  H7  1  0.19980000  0.01110000  0.86530000  1
  H  H8  1  0.76100000  0.12350000  0.51230000  1
  H  H9  1  0.76100000  0.12350000  0.98770000  1
  H  H10  1  0.12880000  0.14700000  0.57650000  1
  H  H11  1  0.12880000  0.14700000  0.92350000  1
  H  H12  1  0.12880000  0.35300000  0.57650000  1
  H  H13  1  0.12880000  0.35300000  0.92350000  1
  H  H14  1  0.76100000  0.37650000  0.51230000  1
  H  H15  1  0.76100000  0.37650000  0.98770000  1
  H  H16  1  0.19980000  0.48890000  0.63470000  1
  H  H17  1  0.19980000  0.48890000  0.86530000  1
  H  H18  1  0.16770000  0.49040000  0.07210000  1
  H  H19  1  0.16770000  0.49040000  0.42790000  1
  H  H20  1  0.83230000  0.50960000  0.57210000  1
  H  H21  1  0.83230000  0.50960000  0.92790000  1
  H  H22  1  0.80020000  0.51110000  0.13470000  1
  H  H23  1  0.80020000  0.51110000  0.36530000  1
  H  H24  1  0.23900000  0.62350000  0.01230000  1
  H  H25  1  0.23900000  0.62350000  0.48770000  1
  H  H26  1  0.87120000  0.64700000  0.07650000  1
  H  H27  1  0.87120000  0.64700000  0.42350000  1
  H  H28  1  0.87120000  0.85300000  0.07650000  1
  H  H29  1  0.87120000  0.85300000  0.42350000  1
  H  H30  1  0.23900000  0.87650000  0.01230000  1
  H  H31  1  0.23900000  0.87650000  0.48770000  1
  H  H32  1  0.80020000  0.98890000  0.13470000  1
  H  H33  1  0.80020000  0.98890000  0.36530000  1
  H  H34  1  0.83230000  0.99040000  0.57210000  1
  H  H35  1  0.83230000  0.99040000  0.92790000  1
  Pb  Pb36  1  0.33013000  0.25000000  0.25000000  1
  Pb  Pb37  1  0.66987000  0.75000000  0.75000000  1
  C  C38  1  0.47220000  0.01060000  0.11110000  1
  C  C39  1  0.47220000  0.01060000  0.38890000  1
  C  C40  1  0.69160000  0.02190000  0.57340000  1
  C  C41  1  0.69160000  0.02190000  0.92660000  1
  C  C42  1  0.31380000  0.03500000  0.61080000  1
  C  C43  1  0.31380000  0.03500000  0.88920000  1
  C  C44  1  0.42340000  0.09350000  0.15260000  1
  C  C45  1  0.42340000  0.09350000  0.34740000  1
  C  C46  1  0.64880000  0.10140000  0.53720000  1
  C  C47  1  0.64880000  0.10140000  0.96280000  1
  C  C48  1  0.26910000  0.11510000  0.57560000  1
  C  C49  1  0.26910000  0.11510000  0.92440000  1
  C  C50  1  0.44200000  0.14650000  0.53850000  1
  C  C51  1  0.44200000  0.14650000  0.96150000  1
  C  C52  1  0.44200000  0.35350000  0.53850000  1
  C  C53  1  0.44200000  0.35350000  0.96150000  1
  C  C54  1  0.26910000  0.38490000  0.57560000  1
  C  C55  1  0.26910000  0.38490000  0.92440000  1
  C  C56  1  0.64880000  0.39860000  0.53720000  1
  C  C57  1  0.64880000  0.39860000  0.96280000  1
  C  C58  1  0.42340000  0.40650000  0.15260000  1
  C  C59  1  0.42340000  0.40650000  0.34740000  1
  C  C60  1  0.31380000  0.46500000  0.61080000  1
  C  C61  1  0.31380000  0.46500000  0.88920000  1
  C  C62  1  0.69160000  0.47810000  0.57340000  1
  C  C63  1  0.69160000  0.47810000  0.92660000  1
  C  C64  1  0.47220000  0.48940000  0.11110000  1
  C  C65  1  0.47220000  0.48940000  0.38890000  1
  C  C66  1  0.52780000  0.51060000  0.61110000  1
  C  C67  1  0.52780000  0.51060000  0.88890000  1
  C  C68  1  0.30840000  0.52190000  0.07340000  1
  C  C69  1  0.30840000  0.52190000  0.42660000  1
  C  C70  1  0.68620000  0.53500000  0.11080000  1
  C  C71  1  0.68620000  0.53500000  0.38920000  1
  C  C72  1  0.57660000  0.59350000  0.65260000  1
  C  C73  1  0.57660000  0.59350000  0.84740000  1
  C  C74  1  0.35120000  0.60140000  0.03720000  1
  C  C75  1  0.35120000  0.60140000  0.46280000  1
  C  C76  1  0.73090000  0.61510000  0.07560000  1
  C  C77  1  0.73090000  0.61510000  0.42440000  1
  C  C78  1  0.55800000  0.64650000  0.03850000  1
  C  C79  1  0.55800000  0.64650000  0.46150000  1
  C  C80  1  0.55800000  0.85350000  0.03850000  1
  C  C81  1  0.55800000  0.85350000  0.46150000  1
  C  C82  1  0.73090000  0.88490000  0.07560000  1
  C  C83  1  0.73090000  0.88490000  0.42440000  1
  C  C84  1  0.35120000  0.89860000  0.03720000  1
  C  C85  1  0.35120000  0.89860000  0.46280000  1
  C  C86  1  0.57660000  0.90650000  0.65260000  1
  C  C87  1  0.57660000  0.90650000  0.84740000  1
  C  C88  1  0.68620000  0.96500000  0.11080000  1
  C  C89  1  0.68620000  0.96500000  0.38920000  1
  C  C90  1  0.30840000  0.97810000  0.07340000  1
  C  C91  1  0.30840000  0.97810000  0.42660000  1
  C  C92  1  0.52780000  0.98940000  0.61110000  1
  C  C93  1  0.52780000  0.98940000  0.88890000  1
  S  S94  1  0.38730000  0.25000000  0.00589000  1
  S  S95  1  0.38730000  0.25000000  0.49411000  1
  S  S96  1  0.61270000  0.75000000  0.50589000  1
  S  S97  1  0.61270000  0.75000000  0.99411000  1
  O  O98  1  0.22520000  0.11890000  0.15920000  1
  O  O99  1  0.22520000  0.11890000  0.34080000  1
  O  O100  1  0.59100000  0.12800000  0.17910000  1
  O  O101  1  0.59100000  0.12800000  0.32090000  1
  O  O102  1  0.14640000  0.25000000  0.01930000  1
  O  O103  1  0.55370000  0.25000000  0.05090000  1
  O  O104  1  0.90930000  0.25000000  0.25000000  1
  O  O105  1  0.55370000  0.25000000  0.44910000  1
  O  O106  1  0.14640000  0.25000000  0.48070000  1
  O  O107  1  0.59100000  0.37200000  0.17910000  1
  O  O108  1  0.59100000  0.37200000  0.32090000  1
  O  O109  1  0.22520000  0.38110000  0.15920000  1
  O  O110  1  0.22520000  0.38110000  0.34080000  1
  O  O111  1  0.77480000  0.61890000  0.65920000  1
  O  O112  1  0.77480000  0.61890000  0.84080000  1
  O  O113  1  0.40900000  0.62800000  0.67910000  1
  O  O114  1  0.40900000  0.62800000  0.82090000  1
  O  O115  1  0.85360000  0.75000000  0.51930000  1
  O  O116  1  0.44630000  0.75000000  0.55090000  1
  O  O117  1  0.09070000  0.75000000  0.75000000  1
  O  O118  1  0.44630000  0.75000000  0.94910000  1
  O  O119  1  0.85360000  0.75000000  0.98070000  1
  O  O120  1  0.40900000  0.87200000  0.67910000  1
  O  O121  1  0.40900000  0.87200000  0.82090000  1
  O  O122  1  0.77480000  0.88110000  0.65920000  1
  O  O123  1  0.77480000  0.88110000  0.84080000  1
