# generated using pymatgen
data_NiH16(C12N5)2
_symmetry_space_group_name_H-M   'P 1'
_cell_length_a   9.62250000
_cell_length_b   16.33208381
_cell_length_c   16.33208381
_cell_angle_alpha   116.24081668
_cell_angle_beta   101.32608545
_cell_angle_gamma   101.32608545
_symmetry_Int_Tables_number   1
_chemical_formula_structural   NiH16(C12N5)2
_chemical_formula_sum   'Ni3 H48 C72 N30'
_cell_volume   2137.07321584
_cell_formula_units_Z   3
loop_
 _symmetry_equiv_pos_site_id
 _symmetry_equiv_pos_as_xyz
  1  'x, y, z'
loop_
 _atom_site_type_symbol
 _atom_site_label
 _atom_site_symmetry_multiplicity
 _atom_site_fract_x
 _atom_site_fract_y
 _atom_site_fract_z
 _atom_site_occupancy
  C  C0  1  0.79060000  0.29490000  0.72580000  1
  C  C1  1  0.91780000  0.28340000  0.76730000  1
  C  C2  1  0.29910000  0.56960000  0.50170000  1
  C  C3  1  0.08210000  0.81020000  0.26270000  1
  C  C4  1  0.55840000  0.20980000  0.87220000  1
  C  C5  1  0.98460000  0.65610000  0.44090000  1
  C  C6  1  0.68650000  0.47110000  0.63430000  1
  C  C7  1  0.32850000  0.78480000  0.34390000  1
  C  C8  1  0.49570000  0.43090000  0.70510000  1
  C  C9  1  0.70680000  0.23160000  0.91520000  1
  C  C10  1  0.93520000  0.72580000  0.43090000  1
  C  C11  1  0.49360000  0.28150000  0.89440000  1
  C  C12  1  0.63440000  0.48390000  0.71660000  1
  C  C13  1  0.05220000  0.36570000  0.83680000  1
  C  C14  1  0.32570000  0.60700000  0.60530000  1
  C  C15  1  0.20420000  0.88500000  0.32980000  1
  C  C16  1  0.87440000  0.67020000  0.55520000  1
  C  C17  1  0.45630000  0.44090000  0.78480000  1
  C  C18  1  0.84950000  0.76730000  0.48390000  1
  C  C19  1  0.81940000  0.73730000  0.54750000  1
  C  C20  1  0.78990000  0.32580000  0.98120000  1
  C  C21  1  0.78460000  0.83680000  0.47110000  1
  C  C22  1  0.46410000  0.65540000  0.67420000  1
  C  C23  1  0.21210000  0.61290000  0.71850000  1
  C  C24  1  0.72810000  0.54750000  0.81020000  1
  C  C25  1  0.72950000  0.93210000  0.43040000  1
  C  C26  1  0.80870000  0.01880000  0.34460000  1
  C  C27  1  0.71870000  0.99830000  0.39300000  1
  C  C28  1  0.72040000  0.39470000  0.00170000  1
  C  C29  1  0.79160000  0.08480000  0.31640000  1
  C  C30  1  0.20260000  0.50170000  0.93210000  1
  C  C31  1  0.68080000  0.55520000  0.88500000  1
  C  C32  1  0.47520000  0.68360000  0.76840000  1
  C  C33  1  0.34860000  0.66240000  0.79020000  1
  C  C34  1  0.68620000  0.12780000  0.33760000  1
  C  C35  1  0.59920000  0.10560000  0.38710000  1
  C  C36  1  0.40080000  0.89440000  0.61290000  1
  C  C37  1  0.31380000  0.87220000  0.66240000  1
  C  C38  1  0.65140000  0.33760000  0.20980000  1
  C  C39  1  0.52480000  0.31640000  0.23160000  1
  C  C40  1  0.31920000  0.44480000  0.11500000  1
  C  C41  1  0.79740000  0.49830000  0.06790000  1
  C  C42  1  0.20840000  0.91520000  0.68360000  1
  C  C43  1  0.27960000  0.60530000  0.99830000  1
  C  C44  1  0.28130000  0.00170000  0.60700000  1
  C  C45  1  0.19130000  0.98120000  0.65540000  1
  C  C46  1  0.27050000  0.06790000  0.56960000  1
  C  C47  1  0.27190000  0.45250000  0.18980000  1
  C  C48  1  0.78790000  0.38710000  0.28150000  1
  C  C49  1  0.53590000  0.34460000  0.32580000  1
  C  C50  1  0.21540000  0.16320000  0.52890000  1
  C  C51  1  0.21010000  0.67420000  0.01880000  1
  C  C52  1  0.18060000  0.26270000  0.45250000  1
  C  C53  1  0.15050000  0.23270000  0.51610000  1
  C  C54  1  0.54370000  0.55910000  0.21520000  1
  C  C55  1  0.12560000  0.32980000  0.44480000  1
  C  C56  1  0.79580000  0.11500000  0.67020000  1
  C  C57  1  0.67430000  0.39300000  0.39470000  1
  C  C58  1  0.94780000  0.63430000  0.16320000  1
  C  C59  1  0.36560000  0.51610000  0.28340000  1
  C  C60  1  0.50640000  0.71850000  0.10560000  1
  C  C61  1  0.06480000  0.27420000  0.56910000  1
  C  C62  1  0.29320000  0.76840000  0.08480000  1
  C  C63  1  0.50430000  0.56910000  0.29490000  1
  C  C64  1  0.67150000  0.21520000  0.65610000  1
  C  C65  1  0.31350000  0.52890000  0.36570000  1
  C  C66  1  0.01540000  0.34390000  0.55910000  1
  C  C67  1  0.44160000  0.79020000  0.12780000  1
  C  C68  1  0.91790000  0.18980000  0.73730000  1
  C  C69  1  0.70090000  0.43040000  0.49830000  1
  C  C70  1  0.08220000  0.71660000  0.23270000  1
  C  C71  1  0.20940000  0.70510000  0.27420000  1
  H  H72  1  0.49950000  0.85370000  0.17230000  1
  H  H73  1  0.04070000  0.62770000  0.40300000  1
  H  H74  1  0.42820000  0.38830000  0.64360000  1
  H  H75  1  0.99790000  0.82160000  0.23660000  1
  H  H76  1  0.75130000  0.18340000  0.90010000  1
  H  H77  1  0.78460000  0.35640000  0.74470000  1
  H  H78  1  0.39190000  0.26520000  0.86390000  1
  H  H79  1  0.96010000  0.74470000  0.38830000  1
  H  H80  1  0.41300000  0.77530000  0.37230000  1
  H  H81  1  0.36230000  0.40300000  0.77530000  1
  H  H82  1  0.85470000  0.65270000  0.59970000  1
  H  H83  1  0.20200000  0.94700000  0.34730000  1
  H  H84  1  0.88030000  0.98850000  0.33110000  1
  H  H85  1  0.54920000  0.66890000  0.65740000  1
  H  H86  1  0.12670000  0.59870000  0.73480000  1
  H  H87  1  0.76130000  0.76340000  0.58500000  1
  H  H88  1  0.89180000  0.34260000  0.01150000  1
  H  H89  1  0.85120000  0.09990000  0.28330000  1
  H  H90  1  0.82370000  0.58500000  0.82160000  1
  H  H91  1  0.25500000  0.40030000  0.05300000  1
  H  H92  1  0.47200000  0.86390000  0.59870000  1
  H  H93  1  0.64580000  0.31860000  0.14630000  1
  H  H94  1  0.43210000  0.28330000  0.18340000  1
  H  H95  1  0.67280000  0.17230000  0.31860000  1
  H  H96  1  0.32720000  0.82770000  0.68140000  1
  H  H97  1  0.56790000  0.71670000  0.81660000  1
  H  H98  1  0.35420000  0.68140000  0.85370000  1
  H  H99  1  0.52800000  0.13610000  0.40130000  1
  H  H100  1  0.74500000  0.59970000  0.94700000  1
  H  H101  1  0.17630000  0.41500000  0.17840000  1
  H  H102  1  0.14880000  0.90010000  0.71670000  1
  H  H103  1  0.10820000  0.65740000  0.98850000  1
  H  H104  1  0.23870000  0.23660000  0.41500000  1
  H  H105  1  0.87330000  0.40130000  0.26520000  1
  H  H106  1  0.45080000  0.33110000  0.34260000  1
  H  H107  1  0.11970000  0.01150000  0.66890000  1
  H  H108  1  0.79800000  0.05300000  0.65270000  1
  H  H109  1  0.14530000  0.34730000  0.40030000  1
  H  H110  1  0.63770000  0.59700000  0.22470000  1
  H  H111  1  0.58700000  0.22470000  0.62770000  1
  H  H112  1  0.03990000  0.25530000  0.61170000  1
  H  H113  1  0.60810000  0.73480000  0.13610000  1
  H  H114  1  0.21540000  0.64360000  0.25530000  1
  H  H115  1  0.24870000  0.81660000  0.09990000  1
  H  H116  1  0.00210000  0.17840000  0.76340000  1
  H  H117  1  0.57180000  0.61170000  0.35640000  1
  H  H118  1  0.95930000  0.37230000  0.59700000  1
  H  H119  1  0.50050000  0.14630000  0.82770000  1
  N  N120  1  0.40260000  0.58070000  0.45910000  1
  N  N121  1  0.83750000  0.48350000  0.55860000  1
  N  N122  1  0.95530000  0.62770000  0.50260000  1
  N  N123  1  0.83070000  0.51220000  0.64990000  1
  N  N124  1  0.19830000  0.58450000  0.62570000  1
  N  N125  1  0.18080000  0.35010000  0.86230000  1
  N  N126  1  0.32760000  0.87490000  0.37230000  1
  N  N127  1  0.82190000  0.87840000  0.41930000  1
  N  N128  1  0.57260000  0.37430000  0.95880000  1
  N  N129  1  0.05650000  0.45910000  0.87840000  1
  N  N130  1  0.27890000  0.44140000  0.92490000  1
  N  N131  1  0.68150000  0.86230000  0.51220000  1
  N  N132  1  0.54730000  0.50260000  0.87490000  1
  N  N133  1  0.64600000  0.92490000  0.48350000  1
  N  N134  1  0.61380000  0.04120000  0.41550000  1
  N  N135  1  0.38620000  0.95880000  0.58450000  1
  N  N136  1  0.35400000  0.07510000  0.51650000  1
  N  N137  1  0.45270000  0.49740000  0.12510000  1
  N  N138  1  0.31850000  0.13770000  0.48780000  1
  N  N139  1  0.72110000  0.55860000  0.07510000  1
  N  N140  1  0.94350000  0.54090000  0.12160000  1
  N  N141  1  0.42740000  0.62570000  0.04120000  1
  N  N142  1  0.17810000  0.12160000  0.58070000  1
  N  N143  1  0.67240000  0.12510000  0.62770000  1
  N  N144  1  0.81920000  0.64990000  0.13770000  1
  N  N145  1  0.80170000  0.41550000  0.37430000  1
  N  N146  1  0.16930000  0.48780000  0.35010000  1
  N  N147  1  0.04470000  0.37230000  0.49740000  1
  N  N148  1  0.16250000  0.51650000  0.44140000  1
  N  N149  1  0.59740000  0.41930000  0.54090000  1
  Ni  Ni150  1  0.00000000  0.50000000  0.50000000  1
  Ni  Ni151  1  0.50000000  1.00000000  0.50000000  1
  Ni  Ni152  1  0.50000000  0.50000000  0.00000000  1
