# generated using pymatgen
data_CoH17C25N3O4
_symmetry_space_group_name_H-M   'P 1'
_cell_length_a   9.90100000
_cell_length_b   11.41440648
_cell_length_c   26.32263896
_cell_angle_alpha   82.08661550
_cell_angle_beta   79.15982415
_cell_angle_gamma   64.29699773
_symmetry_Int_Tables_number   1
_chemical_formula_structural   CoH17C25N3O4
_chemical_formula_sum   'Co4 H68 C100 N12 O16'
_cell_volume   2627.35315371
_cell_formula_units_Z   4
loop_
 _symmetry_equiv_pos_site_id
 _symmetry_equiv_pos_as_xyz
  1  'x, y, z'
loop_
 _atom_site_type_symbol
 _atom_site_label
 _atom_site_symmetry_multiplicity
 _atom_site_fract_x
 _atom_site_fract_y
 _atom_site_fract_z
 _atom_site_occupancy
  C  C0  1  0.83659000  0.29959000  0.67883000  1
  C  C1  1  0.18499000  0.79959000  0.17883000  1
  C  C2  1  0.94785000  0.79284000  0.17466000  1
  C  C3  1  0.08465000  0.29284000  0.67466000  1
  C  C4  1  0.99235000  0.22635000  0.67935000  1
  C  C5  1  0.10195000  0.72635000  0.17935000  1
  C  C6  1  0.97685000  0.57109000  0.33021000  1
  C  C7  1  0.12185000  0.07109000  0.83021000  1
  C  C8  1  0.88395000  0.06396000  0.82594000  1
  C  C9  1  0.22615000  0.56396000  0.32594000  1
  C  C10  1  0.66230000  0.36155000  0.49665000  1
  C  C11  1  0.47950000  0.86155000  0.99665000  1
  C  C12  1  0.68350000  0.39880000  0.44420000  1
  C  C13  1  0.47350000  0.89880000  0.94420000  1
  C  C14  1  0.87510000  0.50285000  0.33355000  1
  C  C15  1  0.28850000  0.00285000  0.83355000  1
  C  C16  1  0.03810000  0.99987000  0.82973000  1
  C  C17  1  0.13230000  0.49987000  0.32973000  1
  C  C18  1  0.63898000  0.63672000  0.17932000  1
  C  C19  1  0.54498000  0.13672000  0.67932000  1
  C  C20  1  0.63957000  0.58497000  0.22989000  1
  C  C21  1  0.54557000  0.08497000  0.72989000  1
  C  C22  1  0.79209000  0.98754000  0.82608000  1
  C  C23  1  0.39429000  0.48754000  0.32608000  1
  C  C24  1  0.61787000  0.71907000  0.06739000  1
  C  C25  1  0.59567000  0.21907000  0.56739000  1
  C  C26  1  0.61235000  0.76422000  0.01228000  1
  C  C27  1  0.61115000  0.26422000  0.51228000  1
  C  C28  1  0.05854000  0.08118000  0.68414000  1
  C  C29  1  0.17614000  0.58118000  0.18414000  1
  C  C30  1  0.09371000  0.50662000  0.20196000  1
  C  C31  1  0.19771000  0.00662000  0.70196000  1
  C  C32  1  0.71888000  0.55416000  0.13908000  1
  C  C33  1  0.58788000  0.05416000  0.63908000  1
  C  C34  1  0.71561000  0.60197000  0.08421000  1
  C  C35  1  0.59821000  0.10197000  0.58421000  1
  C  C36  1  0.73527000  0.71242000  0.97364000  1
  C  C37  1  0.57867000  0.21242000  0.47364000  1
  C  C38  1  0.98636000  0.01177000  0.67031000  1
  C  C39  1  0.33156000  0.51177000  0.17031000  1
  C  C40  1  0.72035000  0.75540000  0.92250000  1
  C  C41  1  0.60175000  0.25540000  0.42250000  1
  C  C42  1  0.79624000  0.37896000  0.20516000  1
  C  C43  1  0.61964000  0.87896000  0.70516000  1
  C  C44  1  0.80102000  0.42274000  0.15322000  1
  C  C45  1  0.62302000  0.92274000  0.65322000  1
  C  C46  1  0.16712000  0.37118000  0.20378000  1
  C  C47  1  0.25792000  0.87118000  0.70378000  1
  C  C48  1  0.05428000  0.87652000  0.67312000  1
  C  C49  1  0.39608000  0.37652000  0.17312000  1
  C  C50  1  0.94572000  0.12348000  0.32688000  1
  C  C51  1  0.60392000  0.62348000  0.82688000  1
  C  C52  1  0.83288000  0.62882000  0.79622000  1
  C  C53  1  0.74208000  0.12882000  0.29622000  1
  C  C54  1  0.19898000  0.57726000  0.84678000  1
  C  C55  1  0.37698000  0.07726000  0.34678000  1
  C  C56  1  0.20376000  0.62104000  0.79484000  1
  C  C57  1  0.38036000  0.12104000  0.29484000  1
  C  C58  1  0.27965000  0.24460000  0.07750000  1
  C  C59  1  0.39825000  0.74460000  0.57750000  1
  C  C60  1  0.01364000  0.98823000  0.32969000  1
  C  C61  1  0.66844000  0.48823000  0.82969000  1
  C  C62  1  0.26473000  0.28758000  0.02636000  1
  C  C63  1  0.42133000  0.78758000  0.52636000  1
  C  C64  1  0.28439000  0.39803000  0.91579000  1
  C  C65  1  0.40179000  0.89803000  0.41579000  1
  C  C66  1  0.28112000  0.44584000  0.86092000  1
  C  C67  1  0.41212000  0.94584000  0.36092000  1
  C  C68  1  0.90629000  0.49338000  0.79804000  1
  C  C69  1  0.80229000  0.99338000  0.29804000  1
  C  C70  1  0.94146000  0.91882000  0.31586000  1
  C  C71  1  0.82386000  0.41882000  0.81586000  1
  C  C72  1  0.38765000  0.23578000  0.98772000  1
  C  C73  1  0.38885000  0.73578000  0.48772000  1
  C  C74  1  0.38213000  0.28093000  0.93261000  1
  C  C75  1  0.40433000  0.78093000  0.43261000  1
  C  C76  1  0.20791000  0.01246000  0.17392000  1
  C  C77  1  0.60571000  0.51246000  0.67392000  1
  C  C78  1  0.36043000  0.41503000  0.77011000  1
  C  C79  1  0.45443000  0.91503000  0.27011000  1
  C  C80  1  0.36102000  0.36328000  0.82068000  1
  C  C81  1  0.45502000  0.86328000  0.32068000  1
  C  C82  1  0.96190000  0.00013000  0.17027000  1
  C  C83  1  0.86770000  0.50013000  0.67027000  1
  C  C84  1  0.12490000  0.49715000  0.66645000  1
  C  C85  1  0.71150000  0.99715000  0.16645000  1
  C  C86  1  0.31650000  0.60120000  0.55580000  1
  C  C87  1  0.52650000  0.10120000  0.05580000  1
  C  C88  1  0.33770000  0.63845000  0.50335000  1
  C  C89  1  0.52050000  0.13845000  0.00335000  1
  C  C90  1  0.11605000  0.93604000  0.17406000  1
  C  C91  1  0.77385000  0.43604000  0.67406000  1
  C  C92  1  0.02315000  0.42891000  0.66979000  1
  C  C93  1  0.87815000  0.92891000  0.16979000  1
  C  C94  1  0.00765000  0.77365000  0.32065000  1
  C  C95  1  0.89805000  0.27365000  0.82065000  1
  C  C96  1  0.05215000  0.20716000  0.82534000  1
  C  C97  1  0.91535000  0.70716000  0.32534000  1
  C  C98  1  0.16341000  0.70041000  0.32117000  1
  C  C99  1  0.81501000  0.20041000  0.82117000  1
  Co  Co100  1  0.69202000  0.40208000  0.32572000  1
  Co  Co101  1  0.58018000  0.90208000  0.82572000  1
  Co  Co102  1  0.30798000  0.59792000  0.67428000  1
  Co  Co103  1  0.41982000  0.09792000  0.17428000  1
  H  H104  1  0.77250000  0.25600000  0.68180000  1
  H  H105  1  0.28970000  0.75600000  0.18180000  1
  H  H106  1  0.68250000  0.40220000  0.52160000  1
  H  H107  1  0.39370000  0.90220000  0.02160000  1
  H  H108  1  0.88980000  0.74480000  0.17480000  1
  H  H109  1  0.19060000  0.24480000  0.67480000  1
  H  H110  1  0.58490000  0.72760000  0.17200000  1
  H  H111  1  0.51550000  0.22760000  0.67200000  1
  H  H112  1  0.58320000  0.64280000  0.25660000  1
  H  H113  1  0.51740000  0.14280000  0.75660000  1
  H  H114  1  0.71960000  0.46450000  0.43430000  1
  H  H115  1  0.38160000  0.96450000  0.93430000  1
  H  H116  1  0.58300000  0.27660000  0.59260000  1
  H  H117  1  0.54780000  0.77660000  0.09260000  1
  H  H118  1  0.98760000  0.54840000  0.21280000  1
  H  H119  1  0.25120000  0.04840000  0.71280000  1
  H  H120  1  0.08610000  0.90740000  0.83200000  1
  H  H121  1  0.17450000  0.40740000  0.33200000  1
  H  H122  1  0.89020000  0.05710000  0.65890000  1
  H  H123  1  0.39380000  0.55710000  0.15890000  1
  H  H124  1  0.82920000  0.64770000  0.98250000  1
  H  H125  1  0.54060000  0.14770000  0.48250000  1
  H  H126  1  0.80580000  0.71870000  0.89690000  1
  H  H127  1  0.57860000  0.21870000  0.39690000  1
  H  H128  1  0.78780000  0.54580000  0.05900000  1
  H  H129  1  0.60740000  0.04580000  0.55900000  1
  H  H130  1  0.10870000  0.32300000  0.21660000  1
  H  H131  1  0.35170000  0.82300000  0.71660000  1
  H  H132  1  0.13990000  0.63670000  0.87270000  1
  H  H133  1  0.35070000  0.13670000  0.37270000  1
  H  H134  1  0.99830000  0.16800000  0.33620000  1
  H  H135  1  0.49750000  0.66800000  0.83620000  1
  H  H136  1  0.85320000  0.28920000  0.21380000  1
  H  H137  1  0.64380000  0.78920000  0.71380000  1
  H  H138  1  0.14680000  0.71080000  0.78620000  1
  H  H139  1  0.35620000  0.21080000  0.28620000  1
  H  H140  1  0.00170000  0.83200000  0.66380000  1
  H  H141  1  0.50250000  0.33200000  0.16380000  1
  H  H142  1  0.86010000  0.36330000  0.12730000  1
  H  H143  1  0.64930000  0.86330000  0.62730000  1
  H  H144  1  0.89130000  0.67700000  0.78340000  1
  H  H145  1  0.64830000  0.17700000  0.28340000  1
  H  H146  1  0.21220000  0.45420000  0.94100000  1
  H  H147  1  0.39260000  0.95420000  0.44100000  1
  H  H148  1  0.19420000  0.28130000  0.10310000  1
  H  H149  1  0.42140000  0.78130000  0.60310000  1
  H  H150  1  0.17080000  0.35230000  0.01750000  1
  H  H151  1  0.45940000  0.85230000  0.51750000  1
  H  H152  1  0.10980000  0.94290000  0.34110000  1
  H  H153  1  0.60620000  0.44290000  0.84110000  1
  H  H154  1  0.91390000  0.09260000  0.16800000  1
  H  H155  1  0.82550000  0.59260000  0.66800000  1
  H  H156  1  0.01240000  0.45160000  0.78720000  1
  H  H157  1  0.74880000  0.95160000  0.28720000  1
  H  H158  1  0.41700000  0.72340000  0.40740000  1
  H  H159  1  0.45220000  0.22340000  0.90740000  1
  H  H160  1  0.28040000  0.53550000  0.56570000  1
  H  H161  1  0.61840000  0.03550000  0.06570000  1
  H  H162  1  0.41680000  0.35720000  0.74340000  1
  H  H163  1  0.48260000  0.85720000  0.24340000  1
  H  H164  1  0.41510000  0.27240000  0.82800000  1
  H  H165  1  0.48450000  0.77240000  0.32800000  1
  H  H166  1  0.11020000  0.25520000  0.82520000  1
  H  H167  1  0.80940000  0.75520000  0.32520000  1
  H  H168  1  0.31750000  0.59780000  0.47840000  1
  H  H169  1  0.60630000  0.09780000  0.97840000  1
  H  H170  1  0.22750000  0.74400000  0.31820000  1
  H  H171  1  0.71030000  0.24400000  0.81820000  1
  N  N172  1  0.65569000  0.34661000  0.40701000  1
  N  N173  1  0.59069000  0.84661000  0.90701000  1
  N  N174  1  0.71520000  0.45737000  0.24371000  1
  N  N175  1  0.58372000  0.95737000  0.74371000  1
  N  N176  1  0.80924000  0.19494000  0.31160000  1
  N  N177  1  0.68422000  0.69494000  0.81160000  1
  N  N178  1  0.19076000  0.80506000  0.68840000  1
  N  N179  1  0.31578000  0.30506000  0.18840000  1
  N  N180  1  0.28480000  0.54263000  0.75629000  1
  N  N181  1  0.41628000  0.04263000  0.25629000  1
  N  N182  1  0.34431000  0.65339000  0.59299000  1
  N  N183  1  0.40931000  0.15339000  0.09299000  1
  O  O184  1  0.73421000  0.56854000  0.33802000  1
  O  O185  1  0.35923000  0.06854000  0.83802000  1
  O  O186  1  0.64943000  0.04861000  0.83331000  1
  O  O187  1  0.46865000  0.54858667  0.33333333  1
  O  O188  1  0.93185000  0.38156000  0.33048000  1
  O  O189  1  0.35611000  0.88156000  0.83048000  1
  O  O190  1  0.85700000  0.86880000  0.81914000  1
  O  O191  1  0.45506000  0.36880000  0.31914000  1
  O  O192  1  0.14300000  0.13120000  0.18086000  1
  O  O193  1  0.54494000  0.63120000  0.68086000  1
  O  O194  1  0.06815000  0.61844000  0.66952000  1
  O  O195  1  0.64389000  0.11844000  0.16952000  1
  O  O196  1  0.35057000  0.95139000  0.16669000  1
  O  O197  1  0.53135000  0.45141333  0.66666667  1
  O  O198  1  0.26579000  0.43146000  0.66198000  1
  O  O199  1  0.64077000  0.93146000  0.16198000  1
