# generated using pymatgen
data_CdH16(C7O)4
_symmetry_space_group_name_H-M   'P 1'
_cell_length_a   7.89510000
_cell_length_b   9.80700000
_cell_length_c   17.36712693
_cell_angle_alpha   106.40030183
_cell_angle_beta   96.40699002
_cell_angle_gamma   90.00000000
_symmetry_Int_Tables_number   1
_chemical_formula_structural   CdH16(C7O)4
_chemical_formula_sum   'Cd2 H32 C56 O8'
_cell_volume   1281.21966290
_cell_formula_units_Z   2
loop_
 _symmetry_equiv_pos_site_id
 _symmetry_equiv_pos_as_xyz
  1  'x, y, z'
loop_
 _atom_site_type_symbol
 _atom_site_label
 _atom_site_symmetry_multiplicity
 _atom_site_fract_x
 _atom_site_fract_y
 _atom_site_fract_z
 _atom_site_occupancy
  Cd  Cd0  1  0.75000000  0.52921000  1.00000000  1
  Cd  Cd1  1  0.25000000  0.47079000  1.00000000  1
  H  H2  1  0.99840000  0.15100000  0.43140000  1
  H  H3  1  0.93630000  0.07790000  0.80100000  1
  H  H4  1  0.91710000  0.62620000  0.69520000  1
  H  H5  1  0.88910000  0.17200000  0.54920000  1
  H  H6  1  0.85850000  0.69270000  0.34480000  1
  H  H7  1  0.84490000  0.02930000  0.30820000  1
  H  H8  1  0.79820000  0.45730000  0.77800000  1
  H  H9  1  0.77580000  0.96850000  0.67960000  1
  H  H10  1  0.72420000  0.28890000  0.32040000  1
  H  H11  1  0.70180000  0.67930000  0.22200000  1
  H  H12  1  0.65510000  0.72110000  0.69180000  1
  H  H13  1  0.64150000  0.34790000  0.65520000  1
  H  H14  1  0.61090000  0.62280000  0.45080000  1
  H  H15  1  0.58290000  0.93100000  0.30480000  1
  H  H16  1  0.56370000  0.27690000  0.19900000  1
  H  H17  1  0.50160000  0.71960000  0.56860000  1
  H  H18  1  0.49840000  0.28040000  0.43140000  1
  H  H19  1  0.43630000  0.72310000  0.80100000  1
  H  H20  1  0.41710000  0.06900000  0.69520000  1
  H  H21  1  0.38910000  0.37720000  0.54920000  1
  H  H22  1  0.35850000  0.65210000  0.34480000  1
  H  H23  1  0.34490000  0.27890000  0.30820000  1
  H  H24  1  0.29820000  0.32070000  0.77800000  1
  H  H25  1  0.27580000  0.71110000  0.67960000  1
  H  H26  1  0.22420000  0.03150000  0.32040000  1
  H  H27  1  0.20180000  0.54270000  0.22200000  1
  H  H28  1  0.15510000  0.97070000  0.69180000  1
  H  H29  1  0.14150000  0.30730000  0.65520000  1
  H  H30  1  0.11090000  0.82800000  0.45080000  1
  H  H31  1  0.08290000  0.37380000  0.30480000  1
  H  H32  1  0.06370000  0.92210000  0.19900000  1
  H  H33  1  0.00160000  0.84900000  0.56860000  1
  C  C34  1  0.99590000  0.35230000  0.87760000  1
  C  C35  1  0.93270000  0.56166000  0.57352000  1
  C  C36  1  0.90690000  0.49885000  0.42550000  1
  C  C37  1  0.89140000  0.11078000  0.43056000  1
  C  C38  1  0.88540000  0.27875000  0.80130000  1
  C  C39  1  0.87720000  0.13281000  0.77182000  1
  C  C40  1  0.85740000  0.62428000  0.64556000  1
  C  C41  1  0.83750000  0.56037000  0.49734000  1
  C  C42  1  0.82580000  0.12296000  0.50072000  1
  C  C43  1  0.80600000  0.49248000  0.34576000  1
  C  C44  1  0.79930000  0.60862000  0.31564000  1
  C  C45  1  0.79870000  0.03741000  0.35622000  1
  C  C46  1  0.79540000  0.35873000  0.75786000  1
  C  C47  1  0.78130000  0.06720000  0.69880000  1
  C  C48  1  0.71870000  0.36840000  0.30120000  1
  C  C49  1  0.70460000  0.60087000  0.24214000  1
  C  C50  1  0.70130000  0.68119000  0.64378000  1
  C  C51  1  0.70070000  0.29298000  0.68436000  1
  C  C52  1  0.69400000  0.14672000  0.65424000  1
  C  C53  1  0.67420000  0.62224000  0.49928000  1
  C  C54  1  0.66250000  0.06303000  0.50266000  1
  C  C55  1  0.64260000  0.97872000  0.35444000  1
  C  C56  1  0.62280000  0.36099000  0.22818000  1
  C  C57  1  0.61460000  0.47745000  0.19870000  1
  C  C58  1  0.60860000  0.68022000  0.56944000  1
  C  C59  1  0.59310000  0.07335000  0.57450000  1
  C  C60  1  0.56730000  0.98814000  0.42648000  1
  C  C61  1  0.50410000  0.47470000  0.12240000  1
  C  C62  1  0.49590000  0.52530000  0.87760000  1
  C  C63  1  0.43270000  0.01186000  0.57352000  1
  C  C64  1  0.40690000  0.92665000  0.42550000  1
  C  C65  1  0.39140000  0.31978000  0.43056000  1
  C  C66  1  0.38540000  0.52255000  0.80130000  1
  C  C67  1  0.37720000  0.63901000  0.77182000  1
  C  C68  1  0.35740000  0.02128000  0.64556000  1
  C  C69  1  0.33750000  0.93697000  0.49734000  1
  C  C70  1  0.32580000  0.37776000  0.50072000  1
  C  C71  1  0.30600000  0.85328000  0.34576000  1
  C  C72  1  0.29930000  0.70702000  0.31564000  1
  C  C73  1  0.29870000  0.31881000  0.35622000  1
  C  C74  1  0.29540000  0.39913000  0.75786000  1
  C  C75  1  0.28130000  0.63160000  0.69880000  1
  C  C76  1  0.21870000  0.93280000  0.30120000  1
  C  C77  1  0.20460000  0.64127000  0.24214000  1
  C  C78  1  0.20130000  0.96259000  0.64378000  1
  C  C79  1  0.20070000  0.39138000  0.68436000  1
  C  C80  1  0.19400000  0.50752000  0.65424000  1
  C  C81  1  0.17420000  0.87704000  0.49928000  1
  C  C82  1  0.16250000  0.43963000  0.50266000  1
  C  C83  1  0.14260000  0.37572000  0.35444000  1
  C  C84  1  0.12280000  0.86719000  0.22818000  1
  C  C85  1  0.11460000  0.72125000  0.19870000  1
  C  C86  1  0.10860000  0.88922000  0.56944000  1
  C  C87  1  0.09310000  0.50115000  0.57450000  1
  C  C88  1  0.06730000  0.43834000  0.42648000  1
  C  C89  1  0.00410000  0.64770000  0.12240000  1
  O  O90  1  0.97370000  0.48094000  0.91208000  1
  O  O91  1  0.88800000  0.71607000  0.09534000  1
  O  O92  1  0.61200000  0.62073000  0.90466000  1
  O  O93  1  0.52630000  0.56886000  0.08792000  1
  O  O94  1  0.47370000  0.43114000  0.91208000  1
  O  O95  1  0.38800000  0.37927000  0.09534000  1
  O  O96  1  0.11200000  0.28393000  0.90466000  1
  O  O97  1  0.02630000  0.51906000  0.08792000  1
