# generated using pymatgen
data_Mn2P2H2C4SO6
_symmetry_space_group_name_H-M   'P 1'
_cell_length_a   4.96800000
_cell_length_b   11.62100000
_cell_length_c   19.66900000
_cell_angle_alpha   107.16000000
_cell_angle_beta   90.00000000
_cell_angle_gamma   90.00000000
_symmetry_Int_Tables_number   1
_chemical_formula_structural   Mn2P2H2C4SO6
_chemical_formula_sum   'Mn8 P8 H8 C16 S4 O24'
_cell_volume   1085.00327205
_cell_formula_units_Z   4
loop_
 _symmetry_equiv_pos_site_id
 _symmetry_equiv_pos_as_xyz
  1  'x, y, z'
loop_
 _atom_site_type_symbol
 _atom_site_label
 _atom_site_symmetry_multiplicity
 _atom_site_fract_x
 _atom_site_fract_y
 _atom_site_fract_z
 _atom_site_occupancy
  Mn  Mn0  1  0.22395000  0.12132000  0.24223000  1
  Mn  Mn1  1  0.22395000  0.87868000  0.75777000  1
  Mn  Mn2  1  0.22590000  0.38140000  0.76600000  1
  Mn  Mn3  1  0.22590000  0.61860000  0.23400000  1
  Mn  Mn4  1  0.72065000  0.12153000  0.74303000  1
  Mn  Mn5  1  0.72065000  0.87847000  0.25697000  1
  Mn  Mn6  1  0.72526000  0.38270000  0.26878000  1
  Mn  Mn7  1  0.72526000  0.61730000  0.73122000  1
  P  P8  1  0.28330000  0.16780000  0.84465000  1
  P  P9  1  0.28330000  0.83220000  0.15535000  1
  P  P10  1  0.28820000  0.32680000  0.16375000  1
  P  P11  1  0.28820000  0.67320000  0.83625000  1
  P  P12  1  0.78450000  0.32670000  0.66260000  1
  P  P13  1  0.78450000  0.67330000  0.33740000  1
  P  P14  1  0.78690000  0.16750000  0.34250000  1
  P  P15  1  0.78690000  0.83250000  0.65750000  1
  H  H16  1  0.75726000  0.23878000  0.06798000  1
  H  H17  1  0.75726000  0.76122000  0.93202000  1
  H  H18  1  0.76093000  0.19412000  0.93579000  1
  H  H19  1  0.76093000  0.80588000  0.06421000  1
  H  H20  1  0.84766000  0.07616000  0.56490000  1
  H  H21  1  0.84766000  0.92384000  0.43510000  1
  H  H22  1  0.96171000  0.02587000  0.43491000  1
  H  H23  1  0.96171000  0.97413000  0.56509000  1
  C  C24  1  0.34700000  0.26710000  0.06970000  1
  C  C25  1  0.34700000  0.73290000  0.93030000  1
  C  C26  1  0.36070000  0.20620000  0.93670000  1
  C  C27  1  0.36070000  0.79380000  0.06330000  1
  C  C28  1  0.59820000  0.23890000  0.04030000  1
  C  C29  1  0.59820000  0.76110000  0.95970000  1
  C  C30  1  0.59950000  0.20960000  0.96380000  1
  C  C31  1  0.59950000  0.79040000  0.03620000  1
  C  C32  1  0.83300000  0.18780000  0.43570000  1
  C  C33  1  0.83300000  0.81220000  0.56430000  1
  C  C34  1  0.84700000  0.26630000  0.56850000  1
  C  C35  1  0.84700000  0.73370000  0.43150000  1
  C  C36  1  0.86070000  0.13290000  0.53810000  1
  C  C37  1  0.86070000  0.86710000  0.46190000  1
  C  C38  1  0.89610000  0.10290000  0.46300000  1
  C  C39  1  0.89610000  0.89710000  0.53700000  1
  S  S40  1  0.11430000  0.25570000  0.00319000  1
  S  S41  1  0.11430000  0.74430000  0.99681000  1
  S  S42  1  0.80670000  0.32770000  0.50280000  1
  S  S43  1  0.80670000  0.67230000  0.49720000  1
  O  O44  1  0.42900000  0.26670000  0.81530000  1
  O  O45  1  0.42900000  0.73330000  0.18470000  1
  O  O46  1  0.43000000  0.04590000  0.80970000  1
  O  O47  1  0.43000000  0.95410000  0.19030000  1
  O  O48  1  0.43200000  0.25060000  0.20100000  1
  O  O49  1  0.43200000  0.74940000  0.79900000  1
  O  O50  1  0.43500000  0.45150000  0.19300000  1
  O  O51  1  0.43500000  0.54850000  0.80700000  1
  O  O52  1  0.48400000  0.33390000  0.67460000  1
  O  O53  1  0.48400000  0.66610000  0.32540000  1
  O  O54  1  0.48700000  0.16670000  0.33140000  1
  O  O55  1  0.48700000  0.83330000  0.66860000  1
  O  O56  1  0.92000000  0.04520000  0.30330000  1
  O  O57  1  0.92000000  0.95480000  0.69670000  1
  O  O58  1  0.92300000  0.25830000  0.31460000  1
  O  O59  1  0.92300000  0.74170000  0.68540000  1
  O  O60  1  0.92800000  0.23990000  0.69920000  1
  O  O61  1  0.92800000  0.76010000  0.30080000  1
  O  O62  1  0.93200000  0.45060000  0.68630000  1
  O  O63  1  0.93200000  0.54940000  0.31370000  1
  O  O64  1  0.98050000  0.16420000  0.83280000  1
  O  O65  1  0.98050000  0.83580000  0.16720000  1
  O  O66  1  0.99220000  0.33440000  0.17820000  1
  O  O67  1  0.99220000  0.66560000  0.82180000  1
