# generated using pymatgen
data_Ba(CO)4
_symmetry_space_group_name_H-M   'P 1'
_cell_length_a   13.41090000
_cell_length_b   16.25680000
_cell_length_c   16.62702909
_cell_angle_alpha   119.26611692
_cell_angle_beta   105.79859151
_cell_angle_gamma   90.00000000
_symmetry_Int_Tables_number   1
_chemical_formula_structural   Ba(CO)4
_chemical_formula_sum   'Ba12 C48 O48'
_cell_volume   3004.34564289
_cell_formula_units_Z   12
loop_
 _symmetry_equiv_pos_site_id
 _symmetry_equiv_pos_as_xyz
  1  'x, y, z'
loop_
 _atom_site_type_symbol
 _atom_site_label
 _atom_site_symmetry_multiplicity
 _atom_site_fract_x
 _atom_site_fract_y
 _atom_site_fract_z
 _atom_site_occupancy
  Ba  Ba0  1  0.92722000  0.44662000  0.08200000  1
  Ba  Ba1  1  0.42722000  0.63538000  0.08200000  1
  Ba  Ba2  1  0.05166000  0.43614000  0.35970000  1
  Ba  Ba3  1  0.55166000  0.92356000  0.35970000  1
  Ba  Ba4  1  0.61729000  0.62808000  0.53614000  1
  Ba  Ba5  1  0.11729000  0.90806000  0.53614000  1
  Ba  Ba6  1  0.88271000  0.09194000  0.46386000  1
  Ba  Ba7  1  0.38271000  0.37192000  0.46386000  1
  Ba  Ba8  1  0.44834000  0.07644000  0.64030000  1
  Ba  Ba9  1  0.94834000  0.56386000  0.64030000  1
  Ba  Ba10  1  0.57278000  0.36462000  0.91800000  1
  Ba  Ba11  1  0.07278000  0.55338000  0.91800000  1
  C  C12  1  0.30470000  0.25090000  0.79040000  1
  C  C13  1  0.80470000  0.53950000  0.79040000  1
  C  C14  1  0.25815000  0.29015000  0.72590000  1
  C  C15  1  0.75815000  0.43575000  0.72590000  1
  C  C16  1  0.20212000  0.22692000  0.62924000  1
  C  C17  1  0.70212000  0.40232000  0.62924000  1
  C  C18  1  0.11410000  0.18960000  0.45900000  1
  C  C19  1  0.61410000  0.26940000  0.45900000  1
  C  C20  1  0.16396000  0.26146000  0.56652000  1
  C  C21  1  0.66396000  0.30506000  0.56652000  1
  C  C22  1  0.17530000  0.12240000  0.59240000  1
  C  C23  1  0.67530000  0.47000000  0.59240000  1
  C  C24  1  0.76072000  0.37542000  0.76364000  1
  C  C25  1  0.26072000  0.38822000  0.76364000  1
  C  C26  1  0.81257000  0.41237000  0.86934000  1
  C  C27  1  0.31257000  0.45697000  0.86934000  1
  C  C28  1  0.64089000  0.13819000  0.53378000  1
  C  C29  1  0.14089000  0.39559000  0.53378000  1
  C  C30  1  0.67060000  0.24320000  0.60260000  1
  C  C31  1  0.17060000  0.35940000  0.60260000  1
  C  C32  1  0.71226000  0.28056000  0.70292000  1
  C  C33  1  0.21226000  0.42236000  0.70292000  1
  C  C34  1  0.70259000  0.21769000  0.74558000  1
  C  C35  1  0.20259000  0.52789000  0.74558000  1
  C  C36  1  0.79741000  0.47211000  0.25442000  1
  C  C37  1  0.29741000  0.78231000  0.25442000  1
  C  C38  1  0.78774000  0.57764000  0.29708000  1
  C  C39  1  0.28774000  0.71944000  0.29708000  1
  C  C40  1  0.82940000  0.64060000  0.39740000  1
  C  C41  1  0.32940000  0.75680000  0.39740000  1
  C  C42  1  0.85911000  0.60441000  0.46622000  1
  C  C43  1  0.35911000  0.86181000  0.46622000  1
  C  C44  1  0.68743000  0.54303000  0.13066000  1
  C  C45  1  0.18743000  0.58763000  0.13066000  1
  C  C46  1  0.73928000  0.61178000  0.23636000  1
  C  C47  1  0.23928000  0.62458000  0.23636000  1
  C  C48  1  0.32470000  0.53000000  0.40760000  1
  C  C49  1  0.82470000  0.87760000  0.40760000  1
  C  C50  1  0.33604000  0.69494000  0.43348000  1
  C  C51  1  0.83604000  0.73854000  0.43348000  1
  C  C52  1  0.38590000  0.73060000  0.54100000  1
  C  C53  1  0.88590000  0.81040000  0.54100000  1
  C  C54  1  0.29788000  0.59768000  0.37076000  1
  C  C55  1  0.79788000  0.77308000  0.37076000  1
  C  C56  1  0.24185000  0.56425000  0.27410000  1
  C  C57  1  0.74185000  0.70985000  0.27410000  1
  C  C58  1  0.19530000  0.46050000  0.20960000  1
  C  C59  1  0.69530000  0.74910000  0.20960000  1
  O  O60  1  0.39673000  0.23283000  0.79846000  1
  O  O61  1  0.89673000  0.56563000  0.79846000  1
  O  O62  1  0.17413000  0.13583000  0.41726000  1
  O  O63  1  0.67413000  0.28143000  0.41726000  1
  O  O64  1  0.67584000  0.10544000  0.46228000  1
  O  O65  1  0.17584000  0.35684000  0.46228000  1
  O  O66  1  0.39508000  0.44218000  0.91436000  1
  O  O67  1  0.89508000  0.47218000  0.91436000  1
  O  O68  1  0.24484000  0.08164000  0.62028000  1
  O  O69  1  0.74484000  0.53864000  0.62028000  1
  O  O70  1  0.77836000  0.17616000  0.75912000  1
  O  O71  1  0.27836000  0.58296000  0.75912000  1
  O  O72  1  0.24691000  0.23831000  0.83342000  1
  O  O73  1  0.74691000  0.59511000  0.83342000  1
  O  O74  1  0.77059000  0.37809000  0.90838000  1
  O  O75  1  0.27059000  0.53029000  0.90838000  1
  O  O76  1  0.08390000  0.08210000  0.53900000  1
  O  O77  1  0.58390000  0.45690000  0.53900000  1
  O  O78  1  0.58803000  0.08663000  0.54926000  1
  O  O79  1  0.08803000  0.46263000  0.54926000  1
  O  O80  1  0.01844000  0.18474000  0.42068000  1
  O  O81  1  0.51844000  0.23594000  0.42068000  1
  O  O82  1  0.88104000  0.44914000  0.23808000  1
  O  O83  1  0.38104000  0.78894000  0.23808000  1
  O  O84  1  0.61896000  0.21106000  0.76192000  1
  O  O85  1  0.11896000  0.55086000  0.76192000  1
  O  O86  1  0.48156000  0.76406000  0.57932000  1
  O  O87  1  0.98156000  0.81526000  0.57932000  1
  O  O88  1  0.91197000  0.53737000  0.45074000  1
  O  O89  1  0.41197000  0.91337000  0.45074000  1
  O  O90  1  0.41610000  0.54310000  0.46100000  1
  O  O91  1  0.91610000  0.91790000  0.46100000  1
  O  O92  1  0.72941000  0.46971000  0.09162000  1
  O  O93  1  0.22941000  0.62191000  0.09162000  1
  O  O94  1  0.25309000  0.40489000  0.16658000  1
  O  O95  1  0.75309000  0.76169000  0.16658000  1
  O  O96  1  0.72164000  0.41704000  0.24088000  1
  O  O97  1  0.22164000  0.82384000  0.24088000  1
  O  O98  1  0.25516000  0.46136000  0.37972000  1
  O  O99  1  0.75516000  0.91836000  0.37972000  1
  O  O100  1  0.10492000  0.52782000  0.08564000  1
  O  O101  1  0.60492000  0.55782000  0.08564000  1
  O  O102  1  0.82416000  0.64316000  0.53772000  1
  O  O103  1  0.32416000  0.89456000  0.53772000  1
  O  O104  1  0.32587000  0.71857000  0.58274000  1
  O  O105  1  0.82587000  0.86417000  0.58274000  1
  O  O106  1  0.10327000  0.43437000  0.20154000  1
  O  O107  1  0.60327000  0.76717000  0.20154000  1
