# generated using pymatgen
data_ZnH16C26(NO2)2
_symmetry_space_group_name_H-M   'P 1'
_cell_length_a   6.17510000
_cell_length_b   14.75080000
_cell_length_c   17.14400000
_cell_angle_alpha   98.64070000
_cell_angle_beta   90.00000000
_cell_angle_gamma   102.08200000
_symmetry_Int_Tables_number   1
_chemical_formula_structural   ZnH16C26(NO2)2
_chemical_formula_sum   'Zn2 H32 C52 N4 O8'
_cell_volume   1508.88518502
_cell_formula_units_Z   2
loop_
 _symmetry_equiv_pos_site_id
 _symmetry_equiv_pos_as_xyz
  1  'x, y, z'
loop_
 _atom_site_type_symbol
 _atom_site_label
 _atom_site_symmetry_multiplicity
 _atom_site_fract_x
 _atom_site_fract_y
 _atom_site_fract_z
 _atom_site_occupancy
  Zn  Zn0  1  0.41947000  0.00000000  0.25000000  1
  Zn  Zn1  1  0.58053000  0.00000000  0.75000000  1
  H  H2  1  0.00160000  0.82060000  0.64620000  1
  H  H3  1  0.02300000  0.90100000  0.38660000  1
  H  H4  1  0.04260000  0.47980000  0.92180000  1
  H  H5  1  0.12200000  0.09900000  0.11340000  1
  H  H6  1  0.12710000  0.89860000  0.78850000  1
  H  H7  1  0.14910000  0.70400000  0.57060000  1
  H  H8  1  0.18100000  0.17940000  0.85380000  1
  H  H9  1  0.22320000  0.63760000  0.15140000  1
  H  H10  1  0.22850000  0.10140000  0.71150000  1
  H  H11  1  0.23810000  0.90100000  0.47910000  1
  H  H12  1  0.33710000  0.09900000  0.02090000  1
  H  H13  1  0.41440000  0.63760000  0.65140000  1
  H  H14  1  0.42600000  0.90780000  0.08230000  1
  H  H15  1  0.43720000  0.47980000  0.42180000  1
  H  H16  1  0.44510000  0.29600000  0.92940000  1
  H  H17  1  0.48180000  0.90780000  0.58230000  1
  H  H18  1  0.51820000  0.09220000  0.41770000  1
  H  H19  1  0.55490000  0.70400000  0.07060000  1
  H  H20  1  0.56280000  0.52020000  0.57820000  1
  H  H21  1  0.57400000  0.09220000  0.91770000  1
  H  H22  1  0.58560000  0.36240000  0.34860000  1
  H  H23  1  0.66290000  0.90100000  0.97910000  1
  H  H24  1  0.76190000  0.09900000  0.52090000  1
  H  H25  1  0.77150000  0.89860000  0.28850000  1
  H  H26  1  0.77680000  0.36240000  0.84860000  1
  H  H27  1  0.81900000  0.82060000  0.14620000  1
  H  H28  1  0.85090000  0.29600000  0.42940000  1
  H  H29  1  0.87290000  0.10140000  0.21150000  1
  H  H30  1  0.87800000  0.90100000  0.88660000  1
  H  H31  1  0.95740000  0.52020000  0.07820000  1
  H  H32  1  0.97700000  0.09900000  0.61340000  1
  H  H33  1  0.99840000  0.17940000  0.35380000  1
  C  C34  1  0.00051000  0.69002000  0.58710000  1
  C  C35  1  0.02110000  0.94060000  0.89470000  1
  C  C36  1  0.03947000  0.47094000  0.48030000  1
  C  C37  1  0.04493000  0.74106000  0.15540000  1
  C  C38  1  0.07025000  0.41850000  0.90840000  1
  C  C39  1  0.07871000  0.99982000  0.96710000  1
  C  C40  1  0.07889000  0.00018000  0.53290000  1
  C  C41  1  0.08050000  0.05940000  0.60530000  1
  C  C42  1  0.08739000  0.65078000  0.13520000  1
  C  C43  1  0.08799000  0.24038000  0.36820000  1
  C  C44  1  0.12841000  0.39962000  0.43330000  1
  C  C45  1  0.15239000  0.24038000  0.86820000  1
  C  C46  1  0.16959000  0.93998000  0.83650000  1
  C  C47  1  0.22134000  0.81848000  0.19990000  1
  C  C48  1  0.22961000  0.06002000  0.66350000  1
  C  C49  1  0.23298000  0.94316000  0.52640000  1
  C  C50  1  0.27121000  0.39962000  0.93330000  1
  C  C51  1  0.28982000  0.05684000  0.97360000  1
  C  C52  1  0.30387000  0.25894000  0.34460000  1
  C  C53  1  0.31049000  0.30998000  0.91290000  1
  C  C54  1  0.34825000  0.41850000  0.40840000  1
  C  C55  1  0.37791000  0.94742000  0.58830000  1
  C  C56  1  0.40286000  0.18152000  0.30010000  1
  C  C57  1  0.43049000  0.05258000  0.91170000  1
  C  C58  1  0.43147000  0.47094000  0.98030000  1
  C  C59  1  0.43661000  0.34922000  0.36480000  1
  C  C60  1  0.56339000  0.65078000  0.63520000  1
  C  C61  1  0.56853000  0.52906000  0.01970000  1
  C  C62  1  0.56951000  0.94742000  0.08830000  1
  C  C63  1  0.59714000  0.81848000  0.69990000  1
  C  C64  1  0.62209000  0.05258000  0.41170000  1
  C  C65  1  0.65175000  0.58150000  0.59160000  1
  C  C66  1  0.68951000  0.69002000  0.08710000  1
  C  C67  1  0.69613000  0.74106000  0.65540000  1
  C  C68  1  0.71018000  0.94316000  0.02640000  1
  C  C69  1  0.72879000  0.60038000  0.06670000  1
  C  C70  1  0.76702000  0.05684000  0.47360000  1
  C  C71  1  0.77039000  0.93998000  0.33650000  1
  C  C72  1  0.77866000  0.18152000  0.80010000  1
  C  C73  1  0.83041000  0.06002000  0.16350000  1
  C  C74  1  0.84761000  0.75962000  0.13180000  1
  C  C75  1  0.87159000  0.60038000  0.56670000  1
  C  C76  1  0.91201000  0.75962000  0.63180000  1
  C  C77  1  0.91261000  0.34922000  0.86480000  1
  C  C78  1  0.91950000  0.94060000  0.39470000  1
  C  C79  1  0.92111000  0.99982000  0.46710000  1
  C  C80  1  0.92129000  0.00018000  0.03290000  1
  C  C81  1  0.92975000  0.58150000  0.09160000  1
  C  C82  1  0.95507000  0.25894000  0.84460000  1
  C  C83  1  0.96053000  0.52906000  0.51970000  1
  C  C84  1  0.97890000  0.05940000  0.10530000  1
  C  C85  1  0.99949000  0.30998000  0.41290000  1
  N  N86  1  0.37448000  0.99516000  0.84330000  1
  N  N87  1  0.37932000  0.00484000  0.65670000  1
  N  N88  1  0.62068000  0.99516000  0.34330000  1
  N  N89  1  0.62552000  0.00484000  0.15670000  1
  O  O90  1  0.16798000  0.89896000  0.21438000  1
  O  O91  1  0.26902000  0.10104000  0.28562000  1
  O  O92  1  0.40106000  0.80372000  0.71659000  1
  O  O93  1  0.40266000  0.80372000  0.21659000  1
  O  O94  1  0.59734000  0.19628000  0.78341000  1
  O  O95  1  0.59894000  0.19628000  0.28341000  1
  O  O96  1  0.73098000  0.89896000  0.71438000  1
  O  O97  1  0.83202000  0.10104000  0.78562000  1
