# generated using pymatgen
data_NiH26(C9N2)4
_symmetry_space_group_name_H-M   'P 1'
_cell_length_a   9.65350000
_cell_length_b   12.91320000
_cell_length_c   17.20720000
_cell_angle_alpha   105.77400000
_cell_angle_beta   90.00000000
_cell_angle_gamma   111.94900000
_symmetry_Int_Tables_number   1
_chemical_formula_structural   NiH26(C9N2)4
_chemical_formula_sum   'Ni2 H52 C72 N16'
_cell_volume   1902.16210082
_cell_formula_units_Z   2
loop_
 _symmetry_equiv_pos_site_id
 _symmetry_equiv_pos_as_xyz
  1  'x, y, z'
loop_
 _atom_site_type_symbol
 _atom_site_label
 _atom_site_symmetry_multiplicity
 _atom_site_fract_x
 _atom_site_fract_y
 _atom_site_fract_z
 _atom_site_occupancy
  Ni  Ni0  1  0.08261000  0.05512000  0.61039000  1
  Ni  Ni1  1  0.97251000  0.05512000  0.11039000  1
  H  H2  1  0.02180000  0.90840000  0.29700000  1
  H  H3  1  0.02520000  0.05720000  0.42650000  1
  H  H4  1  0.03200000  0.05720000  0.92650000  1
  H  H5  1  0.04860000  0.74560000  0.33620000  1
  H  H6  1  0.05710000  0.31780000  0.89910000  1
  H  H7  1  0.09650000  0.43600000  0.56060000  1
  H  H8  1  0.15710000  0.68160000  0.62130000  1
  H  H9  1  0.16610000  0.98580000  0.76310000  1
  H  H10  1  0.20140000  0.13400000  0.29080000  1
  H  H11  1  0.20270000  0.80560000  0.76460000  1
  H  H12  1  0.21490000  0.52480000  0.90860000  1
  H  H13  1  0.22540000  0.52560000  0.20820000  1
  H  H14  1  0.26070000  0.31780000  0.39910000  1
  H  H15  1  0.27240000  0.72060000  0.22560000  1
  H  H16  1  0.29840000  0.11060000  0.04290000  1
  H  H17  1  0.30020000  0.52560000  0.70820000  1
  H  H18  1  0.30990000  0.52480000  0.40860000  1
  H  H19  1  0.31350000  0.70640000  0.47870000  1
  H  H20  1  0.33620000  0.07900000  0.17640000  1
  H  H21  1  0.33950000  0.43600000  0.06060000  1
  H  H22  1  0.34800000  0.26880000  0.74550000  1
  H  H23  1  0.38950000  0.90880000  0.18030000  1
  H  H24  1  0.39290000  0.70640000  0.97870000  1
  H  H25  1  0.40590000  0.04180000  0.61640000  1
  H  H26  1  0.44820000  0.72060000  0.72560000  1
  H  H27  1  0.47010000  0.29940000  0.02260000  1
  H  H28  1  0.49300000  0.43380000  0.50800000  1
  H  H29  1  0.51930000  0.90880000  0.68030000  1
  H  H30  1  0.52450000  0.68160000  0.12130000  1
  H  H31  1  0.53850000  0.39820000  0.86730000  1
  H  H32  1  0.55470000  0.20820000  0.13670000  1
  H  H33  1  0.60210000  0.37860000  0.62640000  1
  H  H34  1  0.60290000  0.80560000  0.26460000  1
  H  H35  1  0.63320000  0.62940000  0.52210000  1
  H  H36  1  0.63590000  0.04180000  0.11640000  1
  H  H37  1  0.65350000  0.20820000  0.63670000  1
  H  H38  1  0.69700000  0.74560000  0.83620000  1
  H  H39  1  0.71790000  0.58200000  0.93190000  1
  H  H40  1  0.74280000  0.07900000  0.67640000  1
  H  H41  1  0.77650000  0.37860000  0.12640000  1
  H  H42  1  0.81220000  0.11060000  0.54290000  1
  H  H43  1  0.81970000  0.98580000  0.26310000  1
  H  H44  1  0.82930000  0.29940000  0.52260000  1
  H  H45  1  0.84490000  0.80540000  0.59860000  1
  H  H46  1  0.85970000  0.39820000  0.36730000  1
  H  H47  1  0.86410000  0.58200000  0.43190000  1
  H  H48  1  0.88660000  0.90840000  0.79700000  1
  H  H49  1  0.92080000  0.26880000  0.24550000  1
  H  H50  1  0.93260000  0.13400000  0.79080000  1
  H  H51  1  0.94080000  0.43380000  0.00800000  1
  H  H52  1  0.96050000  0.80540000  0.09860000  1
  H  H53  1  0.99620000  0.62940000  0.02210000  1
  C  C54  1  0.00826000  0.49112000  0.05124000  1
  C  C55  1  0.03144000  0.90308000  0.34943000  1
  C  C56  1  0.03225000  0.18470000  0.79470000  1
  C  C57  1  0.03352000  0.98684000  0.42379000  1
  C  C58  1  0.04012000  0.60830000  0.06010000  1
  C  C59  1  0.04177000  0.33296000  0.09785000  1
  C  C60  1  0.04685000  0.81390000  0.37136000  1
  C  C61  1  0.05562000  0.35868000  0.56110000  1
  C  C62  1  0.05966000  0.84392000  0.45815000  1
  C  C63  1  0.06037000  0.85306000  0.11807000  1
  C  C64  1  0.07694000  0.45930000  0.10679000  1
  C  C65  1  0.08532000  0.44430000  0.38163000  1
  C  C66  1  0.08938000  0.66394000  0.46199000  1
  C  C67  1  0.09048000  0.78180000  0.50630000  1
  C  C68  1  0.10057000  0.28614000  0.85556000  1
  C  C69  1  0.12376000  0.81904000  0.59123000  1
  C  C70  1  0.13490000  0.29484000  0.58350000  1
  C  C71  1  0.13729000  0.69328000  0.12557000  1
  C  C72  1  0.15245000  0.18470000  0.29470000  1
  C  C73  1  0.15408000  0.75536000  0.63974000  1
  C  C74  1  0.15846000  0.92532000  0.71699000  1
  C  C75  1  0.15994000  0.29484000  0.08350000  1
  C  C76  1  0.17758000  0.54622000  0.17155000  1
  C  C77  1  0.17823000  0.82326000  0.71885000  1
  C  C78  1  0.18557000  0.28614000  0.35556000  1
  C  C79  1  0.20693000  0.66310000  0.18172000  1
  C  C80  1  0.22037000  0.53614000  0.41424000  1
  C  C81  1  0.22252000  0.64524000  0.45537000  1
  C  C82  1  0.25952000  0.25786000  0.76966000  1
  C  C83  1  0.26668000  0.00224000  0.16093000  1
  C  C84  1  0.27646000  0.17698000  0.05226000  1
  C  C85  1  0.29119000  0.33296000  0.59785000  1
  C  C86  1  0.29780000  0.90842000  0.16332000  1
  C  C87  1  0.30306000  0.35868000  0.06110000  1
  C  C88  1  0.31577000  0.53614000  0.91424000  1
  C  C89  1  0.35898000  0.44430000  0.88163000  1
  C  C90  1  0.36864000  0.54622000  0.67155000  1
  C  C91  1  0.37209000  0.26464000  0.60480000  1
  C  C92  1  0.37558000  0.28372000  0.04054000  1
  C  C93  1  0.38236000  0.45930000  0.60679000  1
  C  C94  1  0.41876000  0.11626000  0.61480000  1
  C  C95  1  0.42272000  0.64524000  0.95537000  1
  C  C96  1  0.45617000  0.66310000  0.68172000  1
  C  C97  1  0.48286000  0.49112000  0.55124000  1
  C  C98  1  0.50978000  0.46054000  0.88871000  1
  C  C99  1  0.53146000  0.30386000  0.62091000  1
  C  C100  1  0.55599000  0.69328000  0.62557000  1
  C  C101  1  0.55987000  0.21000000  0.62677000  1
  C  C102  1  0.56818000  0.60830000  0.56010000  1
  C  C103  1  0.57456000  0.66394000  0.96199000  1
  C  C104  1  0.60128000  0.75536000  0.13974000  1
  C  C105  1  0.61062000  0.90842000  0.66332000  1
  C  C106  1  0.61673000  0.57046000  0.92807000  1
  C  C107  1  0.64503000  0.82326000  0.21885000  1
  C  C108  1  0.65013000  0.21000000  0.12677000  1
  C  C109  1  0.69132000  0.78180000  0.00630000  1
  C  C110  1  0.69528000  0.81904000  0.09123000  1
  C  C111  1  0.69750000  0.11626000  0.11480000  1
  C  C112  1  0.73556000  0.00224000  0.66093000  1
  C  C113  1  0.76686000  0.92532000  0.21699000  1
  C  C114  1  0.76705000  0.81390000  0.87136000  1
  C  C115  1  0.77240000  0.30386000  0.12091000  1
  C  C116  1  0.78426000  0.84392000  0.95815000  1
  C  C117  1  0.79269000  0.85306000  0.61807000  1
  C  C118  1  0.87164000  0.90308000  0.84943000  1
  C  C119  1  0.89255000  0.26464000  0.10480000  1
  C  C120  1  0.90052000  0.17698000  0.55226000  1
  C  C121  1  0.90814000  0.28372000  0.54054000  1
  C  C122  1  0.95076000  0.46054000  0.38871000  1
  C  C123  1  0.95332000  0.98684000  0.92379000  1
  C  C124  1  0.95373000  0.57046000  0.42807000  1
  C  C125  1  0.99834000  0.25786000  0.26966000  1
  N  N126  1  0.03340000  0.18232000  0.57809000  1
  N  N127  1  0.03646000  0.16776000  0.23983000  1
  N  N128  1  0.04874000  0.95306000  0.48883000  1
  N  N129  1  0.08500000  0.33222000  0.33936000  1
  N  N130  1  0.11773000  0.96756000  0.13234000  1
  N  N131  1  0.12767000  0.92518000  0.64167000  1
  N  N132  1  0.13130000  0.16776000  0.73983000  1
  N  N133  1  0.14892000  0.18232000  0.07809000  1
  N  N134  1  0.16524000  0.81344000  0.13531000  1
  N  N135  1  0.24722000  0.33222000  0.83936000  1
  N  N136  1  0.30646000  0.14748000  0.60101000  1
  N  N137  1  0.64820000  0.81344000  0.63531000  1
  N  N138  1  0.79751000  0.92518000  0.14167000  1
  N  N139  1  0.84102000  0.14748000  0.10101000  1
  N  N140  1  0.84983000  0.96756000  0.63234000  1
  N  N141  1  0.90432000  0.95306000  0.98883000  1
