# generated using pymatgen
data_ZnH16C24(NO)4
_symmetry_space_group_name_H-M   'P 1'
_cell_length_a   11.43600000
_cell_length_b   13.37170000
_cell_length_c   18.38600000
_cell_angle_alpha   100.38900000
_cell_angle_beta   90.00000000
_cell_angle_gamma   115.31700000
_symmetry_Int_Tables_number   1
_chemical_formula_structural   ZnH16C24(NO)4
_chemical_formula_sum   'Zn4 H64 C96 N16 O16'
_cell_volume   2490.44444088
_cell_formula_units_Z   4
loop_
 _symmetry_equiv_pos_site_id
 _symmetry_equiv_pos_as_xyz
  1  'x, y, z'
loop_
 _atom_site_type_symbol
 _atom_site_label
 _atom_site_symmetry_multiplicity
 _atom_site_fract_x
 _atom_site_fract_y
 _atom_site_fract_z
 _atom_site_occupancy
  Zn  Zn0  1  0.02625000  0.60698000  0.59681000  1
  Zn  Zn1  1  0.41927000  0.39302000  0.90319000  1
  Zn  Zn2  1  0.58073000  0.60698000  0.09681000  1
  Zn  Zn3  1  0.97375000  0.39302000  0.40319000  1
  H  H4  1  0.04560000  0.70640000  0.02560000  1
  H  H5  1  0.05430000  0.46840000  0.81130000  1
  H  H6  1  0.09050000  0.46160000  0.13880000  1
  H  H7  1  0.13970000  0.29560000  0.47750000  1
  H  H8  1  0.15510000  0.65160000  0.30480000  1
  H  H9  1  0.15590000  0.29560000  0.97750000  1
  H  H10  1  0.16790000  0.87580000  0.48560000  1
  H  H11  1  0.16810000  0.45440000  0.62930000  1
  H  H12  1  0.18560000  0.67140000  0.86950000  1
  H  H13  1  0.21270000  0.46460000  0.31790000  1
  H  H14  1  0.23210000  0.98120000  0.08160000  1
  H  H15  1  0.23350000  0.79300000  0.23740000  1
  H  H16  1  0.25090000  0.01880000  0.41840000  1
  H  H17  1  0.25190000  0.46460000  0.81790000  1
  H  H18  1  0.25260000  0.76160000  0.07810000  1
  H  H19  1  0.26650000  0.91680000  0.75760000  1
  H  H20  1  0.28630000  0.45440000  0.12930000  1
  H  H21  1  0.29210000  0.12420000  0.01440000  1
  H  H22  1  0.30270000  0.74500000  0.57120000  1
  H  H23  1  0.33920000  0.29360000  0.47440000  1
  H  H24  1  0.34100000  0.79580000  0.96320000  1
  H  H25  1  0.34970000  0.08320000  0.74240000  1
  H  H26  1  0.37110000  0.46160000  0.63880000  1
  H  H27  1  0.37370000  0.95700000  0.64740000  1
  H  H28  1  0.41410000  0.46840000  0.31130000  1
  H  H29  1  0.41670000  0.04300000  0.85260000  1
  H  H30  1  0.44050000  0.20700000  0.26260000  1
  H  H31  1  0.44230000  0.74500000  0.07120000  1
  H  H32  1  0.45480000  0.79580000  0.46320000  1
  H  H33  1  0.48580000  0.67140000  0.36950000  1
  H  H34  1  0.49100000  0.23840000  0.42190000  1
  H  H35  1  0.49650000  0.65160000  0.80480000  1
  H  H36  1  0.50350000  0.34840000  0.19520000  1
  H  H37  1  0.50900000  0.76160000  0.57810000  1
  H  H38  1  0.51420000  0.32860000  0.63050000  1
  H  H39  1  0.54520000  0.20420000  0.53680000  1
  H  H40  1  0.55770000  0.25500000  0.92880000  1
  H  H41  1  0.55950000  0.79300000  0.73740000  1
  H  H42  1  0.58330000  0.95700000  0.14740000  1
  H  H43  1  0.58590000  0.53160000  0.68870000  1
  H  H44  1  0.62630000  0.04300000  0.35260000  1
  H  H45  1  0.62890000  0.53840000  0.36120000  1
  H  H46  1  0.65030000  0.91680000  0.25760000  1
  H  H47  1  0.65900000  0.20420000  0.03680000  1
  H  H48  1  0.66080000  0.70640000  0.52560000  1
  H  H49  1  0.69730000  0.25500000  0.42880000  1
  H  H50  1  0.70790000  0.87580000  0.98560000  1
  H  H51  1  0.71370000  0.54560000  0.87070000  1
  H  H52  1  0.73350000  0.08320000  0.24240000  1
  H  H53  1  0.74740000  0.23840000  0.92190000  1
  H  H54  1  0.74810000  0.53540000  0.18210000  1
  H  H55  1  0.74910000  0.98120000  0.58160000  1
  H  H56  1  0.76650000  0.20700000  0.76260000  1
  H  H57  1  0.76790000  0.01880000  0.91840000  1
  H  H58  1  0.78730000  0.53540000  0.68210000  1
  H  H59  1  0.81440000  0.32860000  0.13050000  1
  H  H60  1  0.83190000  0.54560000  0.37070000  1
  H  H61  1  0.83210000  0.12420000  0.51440000  1
  H  H62  1  0.84410000  0.70440000  0.02250000  1
  H  H63  1  0.84490000  0.34840000  0.69520000  1
  H  H64  1  0.86030000  0.70440000  0.52250000  1
  H  H65  1  0.90950000  0.53840000  0.86120000  1
  H  H66  1  0.94570000  0.53160000  0.18870000  1
  H  H67  1  0.95440000  0.29360000  0.97440000  1
  C  C68  1  0.01398000  0.32996000  0.94250000  1
  C  C69  1  0.01884000  0.61668000  0.10677000  1
  C  C70  1  0.07289000  0.43318000  0.84592000  1
  C  C71  1  0.09285000  0.65550000  0.44393000  1
  C  C72  1  0.11455000  0.70010000  0.73912000  1
  C  C73  1  0.13534000  0.33108000  0.94381000  1
  C  C74  1  0.14558000  0.61096000  0.10644000  1
  C  C75  1  0.15006000  0.74872000  0.40124000  1
  C  C76  1  0.15999000  0.51978000  0.12360000  1
  C  C77  1  0.17258000  0.72516000  0.32734000  1
  C  C78  1  0.18070000  0.85920000  0.43571000  1
  C  C79  1  0.19158000  0.43056000  0.85017000  1
  C  C80  1  0.19574000  0.33108000  0.44381000  1
  C  C81  1  0.21057000  0.78154000  0.80318000  1
  C  C82  1  0.22048000  0.80956000  0.28722000  1
  C  C83  1  0.23039000  0.94478000  0.39543000  1
  C  C84  1  0.23297000  0.74634000  0.86540000  1
  C  C85  1  0.23776000  0.51632000  0.61780000  1
  C  C86  1  0.23898000  0.43056000  0.35017000  1
  C  C87  1  0.24948000  0.92016000  0.32160000  1
  C  C88  1  0.25603000  0.69686000  0.08780000  1
  C  C89  1  0.27856000  0.51632000  0.11780000  1
  C  C90  1  0.28014000  0.89168000  0.79940000  1
  C  C91  1  0.28561000  0.05522000  0.10457000  1
  C  C92  1  0.31598000  0.32996000  0.44250000  1
  C  C93  1  0.31631000  0.68622000  0.58370000  1
  C  C94  1  0.32150000  0.14080000  0.06429000  1
  C  C95  1  0.32532000  0.82104000  0.92190000  1
  C  C96  1  0.32932000  0.07984000  0.17840000  1
  C  C97  1  0.35979000  0.51978000  0.62360000  1
  C  C98  1  0.36029000  0.43318000  0.34592000  1
  C  C99  1  0.36991000  0.68622000  0.08370000  1
  C  C100  1  0.37118000  0.96776000  0.85620000  1
  C  C101  1  0.38846000  0.10832000  0.70060000  1
  C  C102  1  0.39385000  0.93230000  0.91713000  1
  C  C103  1  0.40134000  0.25128000  0.09876000  1
  C  C104  1  0.40216000  0.38332000  0.39323000  1
  C  C105  1  0.40342000  0.03224000  0.64380000  1
  C  C106  1  0.41092000  0.19044000  0.21278000  1
  C  C107  1  0.41445000  0.29990000  0.76088000  1
  C  C108  1  0.42903000  0.21846000  0.69682000  1
  C  C109  1  0.43735000  0.34450000  0.05607000  1
  C  C110  1  0.44083000  0.69686000  0.58780000  1
  C  C111  1  0.44742000  0.27484000  0.17266000  1
  C  C112  1  0.46155000  0.06770000  0.58287000  1
  C  C113  1  0.46538000  0.61096000  0.60644000  1
  C  C114  1  0.48663000  0.25366000  0.63460000  1
  C  C115  1  0.49572000  0.82104000  0.42190000  1
  C  C116  1  0.50428000  0.17896000  0.57810000  1
  C  C117  1  0.51337000  0.74634000  0.36540000  1
  C  C118  1  0.53462000  0.38904000  0.39356000  1
  C  C119  1  0.53845000  0.93230000  0.41713000  1
  C  C120  1  0.55258000  0.72516000  0.82734000  1
  C  C121  1  0.55917000  0.30314000  0.41220000  1
  C  C122  1  0.56265000  0.65550000  0.94393000  1
  C  C123  1  0.57097000  0.78154000  0.30318000  1
  C  C124  1  0.58555000  0.70010000  0.23912000  1
  C  C125  1  0.58908000  0.80956000  0.78722000  1
  C  C126  1  0.59658000  0.96776000  0.35620000  1
  C  C127  1  0.59784000  0.61668000  0.60677000  1
  C  C128  1  0.59866000  0.74872000  0.90124000  1
  C  C129  1  0.60615000  0.06770000  0.08287000  1
  C  C130  1  0.61154000  0.89168000  0.29940000  1
  C  C131  1  0.62882000  0.03224000  0.14380000  1
  C  C132  1  0.63009000  0.31378000  0.91630000  1
  C  C133  1  0.63971000  0.56682000  0.65408000  1
  C  C134  1  0.64021000  0.48022000  0.37640000  1
  C  C135  1  0.67068000  0.92016000  0.82160000  1
  C  C136  1  0.67468000  0.17896000  0.07810000  1
  C  C137  1  0.67850000  0.85920000  0.93571000  1
  C  C138  1  0.68369000  0.31378000  0.41630000  1
  C  C139  1  0.68402000  0.67004000  0.55750000  1
  C  C140  1  0.71439000  0.94478000  0.89543000  1
  C  C141  1  0.71986000  0.10832000  0.20060000  1
  C  C142  1  0.72144000  0.48368000  0.88220000  1
  C  C143  1  0.74397000  0.30314000  0.91220000  1
  C  C144  1  0.75052000  0.07984000  0.67840000  1
  C  C145  1  0.76102000  0.56944000  0.64983000  1
  C  C146  1  0.76224000  0.48368000  0.38220000  1
  C  C147  1  0.76703000  0.25366000  0.13460000  1
  C  C148  1  0.76961000  0.05522000  0.60457000  1
  C  C149  1  0.77952000  0.19044000  0.71278000  1
  C  C150  1  0.78943000  0.21846000  0.19682000  1
  C  C151  1  0.80426000  0.66892000  0.55619000  1
  C  C152  1  0.80842000  0.56944000  0.14983000  1
  C  C153  1  0.81930000  0.14080000  0.56429000  1
  C  C154  1  0.82742000  0.27484000  0.67266000  1
  C  C155  1  0.84001000  0.48022000  0.87640000  1
  C  C156  1  0.84994000  0.25128000  0.59876000  1
  C  C157  1  0.85442000  0.38904000  0.89356000  1
  C  C158  1  0.86466000  0.66892000  0.05619000  1
  C  C159  1  0.88545000  0.29990000  0.26088000  1
  C  C160  1  0.90715000  0.34450000  0.55607000  1
  C  C161  1  0.92711000  0.56682000  0.15408000  1
  C  C162  1  0.98116000  0.38332000  0.89323000  1
  C  C163  1  0.98602000  0.67004000  0.05750000  1
  N  N164  1  0.15665000  0.38110000  0.39873000  1
  N  N165  1  0.21358000  0.59616000  0.59672000  1
  N  N166  1  0.22445000  0.38110000  0.89873000  1
  N  N167  1  0.28265000  0.98590000  0.21539000  1
  N  N168  1  0.29675000  0.01410000  0.28461000  1
  N  N169  1  0.38258000  0.59616000  0.09672000  1
  N  N170  1  0.47474000  0.98188000  0.52741000  1
  N  N171  1  0.49286000  0.01812000  0.97259000  1
  N  N172  1  0.50714000  0.98188000  0.02741000  1
  N  N173  1  0.52526000  0.01812000  0.47259000  1
  N  N174  1  0.61742000  0.40384000  0.90328000  1
  N  N175  1  0.70325000  0.98590000  0.71539000  1
  N  N176  1  0.71735000  0.01410000  0.78461000  1
  N  N177  1  0.77555000  0.61890000  0.10127000  1
  N  N178  1  0.78642000  0.40384000  0.40328000  1
  N  N179  1  0.84335000  0.61890000  0.60127000  1
  O  O180  1  0.04558000  0.60236000  0.74480000  1
  O  O181  1  0.06548000  0.68140000  0.50884000  1
  O  O182  1  0.07663000  0.55946000  0.41201000  1
  O  O183  1  0.11485000  0.73916000  0.68089000  1
  O  O184  1  0.37569000  0.26084000  0.81911000  1
  O  O185  1  0.38408000  0.31860000  0.99116000  1
  O  O186  1  0.44322000  0.39764000  0.75520000  1
  O  O187  1  0.48283000  0.55946000  0.91201000  1
  O  O188  1  0.51717000  0.44054000  0.08799000  1
  O  O189  1  0.55678000  0.60236000  0.24480000  1
  O  O190  1  0.61592000  0.68140000  0.00884000  1
  O  O191  1  0.62431000  0.73916000  0.18089000  1
  O  O192  1  0.88515000  0.26084000  0.31911000  1
  O  O193  1  0.92337000  0.44054000  0.58799000  1
  O  O194  1  0.93452000  0.31860000  0.49116000  1
  O  O195  1  0.95442000  0.39764000  0.25520000  1
