# generated using pymatgen
data_CdH10C12(NO)4
_symmetry_space_group_name_H-M   'P 1'
_cell_length_a   17.46820788
_cell_length_b   17.46820000
_cell_length_c   17.46820000
_cell_angle_alpha   97.47010000
_cell_angle_beta   115.78501623
_cell_angle_gamma   115.78501623
_symmetry_Int_Tables_number   1
_chemical_formula_structural   CdH10C12(NO)4
_chemical_formula_sum   'Cd8 H80 C96 N32 O32'
_cell_volume   3972.54564656
_cell_formula_units_Z   8
loop_
 _symmetry_equiv_pos_site_id
 _symmetry_equiv_pos_as_xyz
  1  'x, y, z'
loop_
 _atom_site_type_symbol
 _atom_site_label
 _atom_site_symmetry_multiplicity
 _atom_site_fract_x
 _atom_site_fract_y
 _atom_site_fract_z
 _atom_site_occupancy
  Cd  Cd0  1  0.04479000  0.83658000  0.45061000  1
  Cd  Cd1  1  0.11403000  0.95061000  0.90582000  1
  Cd  Cd2  1  0.38597000  0.79179000  0.33658000  1
  Cd  Cd3  1  0.45521000  0.40582000  0.29179000  1
  Cd  Cd4  1  0.54479000  0.59418000  0.70821000  1
  Cd  Cd5  1  0.61403000  0.20821000  0.66342000  1
  Cd  Cd6  1  0.88597000  0.04939000  0.09418000  1
  Cd  Cd7  1  0.95521000  0.16342000  0.54939000  1
  H  H8  1  0.00040000  0.71590000  0.80990000  1
  H  H9  1  0.04700000  0.93480000  0.61520000  1
  H  H10  1  0.05980000  0.16050000  0.04590000  1
  H  H11  1  0.06010000  0.12240000  0.32890000  1
  H  H12  1  0.07900000  0.88680000  0.13160000  1
  H  H13  1  0.09400000  0.28450000  0.78410000  1
  H  H14  1  0.11110000  0.98460000  0.29030000  1
  H  H15  1  0.11460000  0.10070000  0.66050000  1
  H  H16  1  0.14900000  0.32510000  0.53410000  1
  H  H17  1  0.15240000  0.46220000  0.25380000  1
  H  H18  1  0.17980000  0.32190000  0.10690000  1
  H  H19  1  0.18040000  0.11520000  0.06820000  1
  H  H20  1  0.18600000  0.67260000  0.41320000  1
  H  H21  1  0.19430000  0.20970000  0.32080000  1
  H  H22  1  0.20650000  0.93770000  0.37760000  1
  H  H23  1  0.20840000  0.30980000  0.96220000  1
  H  H24  1  0.20900000  0.82390000  0.17490000  1
  H  H25  1  0.21500000  0.14210000  0.82190000  1
  H  H26  1  0.24060000  0.91320000  0.72720000  1
  H  H27  1  0.24480000  0.19220000  0.61320000  1
  H  H28  1  0.25520000  0.36840000  0.44740000  1
  H  H29  1  0.25940000  0.48660000  0.17260000  1
  H  H30  1  0.28500000  0.60690000  0.42710000  1
  H  H31  1  0.29100000  0.96590000  0.11490000  1
  H  H32  1  0.29160000  0.75380000  0.60140000  1
  H  H33  1  0.29350000  0.17110000  0.23120000  1
  H  H34  1  0.30570000  0.12650000  0.51540000  1
  H  H35  1  0.31400000  0.22720000  0.98660000  1
  H  H36  1  0.31960000  0.88780000  0.43480000  1
  H  H37  1  0.32020000  0.92710000  0.64210000  1
  H  H38  1  0.34760000  0.10140000  0.80980000  1
  H  H39  1  0.35100000  0.38510000  0.67610000  1
  H  H40  1  0.38540000  0.54590000  0.48610000  1
  H  H41  1  0.38890000  0.17920000  0.37350000  1
  H  H42  1  0.40600000  0.69010000  0.69050000  1
  H  H43  1  0.42100000  0.05260000  0.30780000  1
  H  H44  1  0.43990000  0.26880000  0.56230000  1
  H  H45  1  0.44020000  0.98610000  0.60070000  1
  H  H46  1  0.45300000  0.56820000  0.38780000  1
  H  H47  1  0.49960000  0.80950000  0.21550000  1
  H  H48  1  0.50040000  0.19050000  0.78450000  1
  H  H49  1  0.54700000  0.43180000  0.61220000  1
  H  H50  1  0.55980000  0.01390000  0.39930000  1
  H  H51  1  0.56010000  0.73120000  0.43770000  1
  H  H52  1  0.57900000  0.94740000  0.69220000  1
  H  H53  1  0.59400000  0.30990000  0.30950000  1
  H  H54  1  0.61110000  0.82080000  0.62650000  1
  H  H55  1  0.61460000  0.45410000  0.51390000  1
  H  H56  1  0.64900000  0.61490000  0.32390000  1
  H  H57  1  0.65240000  0.89860000  0.19020000  1
  H  H58  1  0.67980000  0.07290000  0.35790000  1
  H  H59  1  0.68040000  0.11220000  0.56520000  1
  H  H60  1  0.68600000  0.77280000  0.01340000  1
  H  H61  1  0.69430000  0.87350000  0.48460000  1
  H  H62  1  0.70650000  0.82890000  0.76880000  1
  H  H63  1  0.70840000  0.24620000  0.39860000  1
  H  H64  1  0.70900000  0.03410000  0.88510000  1
  H  H65  1  0.71500000  0.39310000  0.57290000  1
  H  H66  1  0.74060000  0.51340000  0.82740000  1
  H  H67  1  0.74480000  0.63160000  0.55260000  1
  H  H68  1  0.75520000  0.80780000  0.38680000  1
  H  H69  1  0.75940000  0.08680000  0.27280000  1
  H  H70  1  0.78500000  0.85790000  0.17810000  1
  H  H71  1  0.79100000  0.17610000  0.82510000  1
  H  H72  1  0.79160000  0.69020000  0.03780000  1
  H  H73  1  0.79350000  0.06230000  0.62240000  1
  H  H74  1  0.80570000  0.79030000  0.67920000  1
  H  H75  1  0.81400000  0.32740000  0.58680000  1
  H  H76  1  0.81960000  0.88480000  0.93180000  1
  H  H77  1  0.82020000  0.67810000  0.89310000  1
  H  H78  1  0.84760000  0.53780000  0.74620000  1
  H  H79  1  0.85100000  0.67490000  0.46590000  1
  H  H80  1  0.88540000  0.89930000  0.33950000  1
  H  H81  1  0.88890000  0.01540000  0.70970000  1
  H  H82  1  0.90600000  0.71550000  0.21590000  1
  H  H83  1  0.92100000  0.11320000  0.86840000  1
  H  H84  1  0.93990000  0.87760000  0.67110000  1
  H  H85  1  0.94020000  0.83950000  0.95410000  1
  H  H86  1  0.95300000  0.06520000  0.38480000  1
  H  H87  1  0.99960000  0.28410000  0.19010000  1
  C  C88  1  0.00630000  0.12630000  0.40780000  1
  C  C89  1  0.01430000  0.98620000  0.16890000  1
  C  C90  1  0.03140000  0.27440000  0.16240000  1
  C  C91  1  0.06290000  0.20610000  0.08340000  1
  C  C92  1  0.08310000  0.96200000  0.22710000  1
  C  C93  1  0.10760000  0.90980000  0.19500000  1
  C  C94  1  0.11200000  0.24300000  0.77440000  1
  C  C95  1  0.11220000  0.34160000  0.16900000  1
  C  C96  1  0.11260000  0.26720000  0.48780000  1
  C  C97  1  0.12270000  0.14320000  0.70610000  1
  C  C98  1  0.13280000  0.24720000  0.42480000  1
  C  C99  1  0.14920000  0.75480000  0.46960000  1
  C  C100  1  0.16790000  0.44070000  0.21460000  1
  C  C101  1  0.17260000  0.22940000  0.84160000  1
  C  C102  1  0.17760000  0.88560000  0.25280000  1
  C  C103  1  0.18270000  0.02810000  0.51380000  1
  C  C104  1  0.20300000  0.70790000  0.46950000  1
  C  C105  1  0.21480000  0.96960000  0.82040000  1
  C  C106  1  0.21480000  0.30500000  0.41260000  1
  C  C107  1  0.21850000  0.09220000  0.09850000  1
  C  C108  1  0.22060000  0.84540000  0.23280000  1
  C  C109  1  0.22610000  0.27280000  0.94070000  1
  C  C110  1  0.23490000  0.27290000  0.35600000  1
  C  C111  1  0.23840000  0.50490000  0.20790000  1
  C  C112  1  0.26160000  0.96950000  0.76650000  1
  C  C113  1  0.26510000  0.12110000  0.53800000  1
  C  C114  1  0.27390000  0.71460000  0.54670000  1
  C  C115  1  0.27940000  0.01220000  0.12480000  1
  C  C116  1  0.28150000  0.88000000  0.37370000  1
  C  C117  1  0.28520000  0.19780000  0.59020000  1
  C  C118  1  0.28520000  0.60560000  0.25480000  1
  C  C119  1  0.29700000  0.26650000  0.00490000  1
  C  C120  1  0.31730000  0.33110000  0.34540000  1
  C  C121  1  0.32240000  0.07520000  0.20800000  1
  C  C122  1  0.32740000  0.66900000  0.55680000  1
  C  C123  1  0.33210000  0.04670000  0.77280000  1
  C  C124  1  0.35080000  0.32040000  0.10560000  1
  C  C125  1  0.36720000  0.29200000  0.61440000  1
  C  C126  1  0.37730000  0.58340000  0.52050000  1
  C  C127  1  0.38740000  0.37520000  0.65460000  1
  C  C128  1  0.38780000  0.05680000  0.72940000  1
  C  C129  1  0.38800000  0.66240000  0.63100000  1
  C  C130  1  0.39240000  0.08740000  0.30220000  1
  C  C131  1  0.41690000  0.14400000  0.37890000  1
  C  C132  1  0.43710000  0.02050000  0.64320000  1
  C  C133  1  0.46860000  0.13100000  0.74300000  1
  C  C134  1  0.48570000  0.15460000  0.47190000  1
  C  C135  1  0.49370000  0.40150000  0.62000000  1
  C  C136  1  0.50630000  0.59850000  0.38000000  1
  C  C137  1  0.51430000  0.84540000  0.52810000  1
  C  C138  1  0.53140000  0.86900000  0.25700000  1
  C  C139  1  0.56290000  0.97950000  0.35680000  1
  C  C140  1  0.58310000  0.85600000  0.62110000  1
  C  C141  1  0.60760000  0.91260000  0.69780000  1
  C  C142  1  0.61200000  0.33760000  0.36900000  1
  C  C143  1  0.61220000  0.94320000  0.27060000  1
  C  C144  1  0.61260000  0.62480000  0.34540000  1
  C  C145  1  0.62270000  0.41660000  0.47950000  1
  C  C146  1  0.63280000  0.70800000  0.38560000  1
  C  C147  1  0.64920000  0.67960000  0.89440000  1
  C  C148  1  0.66790000  0.95330000  0.22720000  1
  C  C149  1  0.67260000  0.33100000  0.44320000  1
  C  C150  1  0.67760000  0.92480000  0.79200000  1
  C  C151  1  0.68270000  0.66890000  0.65460000  1
  C  C152  1  0.70300000  0.73350000  0.99510000  1
  C  C153  1  0.71480000  0.39440000  0.74520000  1
  C  C154  1  0.71480000  0.80220000  0.40980000  1
  C  C155  1  0.71850000  0.12000000  0.62630000  1
  C  C156  1  0.72060000  0.98780000  0.87520000  1
  C  C157  1  0.72610000  0.28540000  0.45330000  1
  C  C158  1  0.73490000  0.87890000  0.46200000  1
  C  C159  1  0.73840000  0.03050000  0.23350000  1
  C  C160  1  0.76160000  0.49510000  0.79210000  1
  C  C161  1  0.76510000  0.72710000  0.64400000  1
  C  C162  1  0.77390000  0.72720000  0.05930000  1
  C  C163  1  0.77940000  0.15460000  0.76720000  1
  C  C164  1  0.78150000  0.90780000  0.90150000  1
  C  C165  1  0.78520000  0.69500000  0.58740000  1
  C  C166  1  0.78520000  0.03040000  0.17960000  1
  C  C167  1  0.79700000  0.29210000  0.53050000  1
  C  C168  1  0.81730000  0.97190000  0.48620000  1
  C  C169  1  0.82240000  0.11440000  0.74720000  1
  C  C170  1  0.82740000  0.77060000  0.15840000  1
  C  C171  1  0.83210000  0.55930000  0.78540000  1
  C  C172  1  0.85080000  0.24520000  0.53040000  1
  C  C173  1  0.86720000  0.75280000  0.57520000  1
  C  C174  1  0.87730000  0.85680000  0.29390000  1
  C  C175  1  0.88740000  0.73280000  0.51220000  1
  C  C176  1  0.88780000  0.65840000  0.83100000  1
  C  C177  1  0.88800000  0.75700000  0.22560000  1
  C  C178  1  0.89240000  0.09020000  0.80500000  1
  C  C179  1  0.91690000  0.03800000  0.77290000  1
  C  C180  1  0.93710000  0.79390000  0.91660000  1
  C  C181  1  0.96860000  0.72560000  0.83760000  1
  C  C182  1  0.98570000  0.01380000  0.83110000  1
  C  C183  1  0.99370000  0.87370000  0.59220000  1
  N  N184  1  0.00070000  0.18960000  0.11010000  1
  N  N185  1  0.03110000  0.19000000  0.47350000  1
  N  N186  1  0.06500000  0.15550000  0.37390000  1
  N  N187  1  0.07950000  0.18890000  0.68960000  1
  N  N188  1  0.13210000  0.29660000  0.11650000  1
  N  N189  1  0.18010000  0.16450000  0.79660000  1
  N  N190  1  0.21650000  0.02650000  0.05760000  1
  N  N191  1  0.21840000  0.90950000  0.34450000  1
  N  N192  1  0.28160000  0.12610000  0.19110000  1
  N  N193  1  0.28350000  0.84110000  0.31000000  1
  N  N194  1  0.31990000  0.61650000  0.48440000  1
  N  N195  1  0.36790000  0.98440000  0.66450000  1
  N  N196  1  0.42050000  0.61010000  0.60940000  1
  N  N197  1  0.43500000  0.30890000  0.59050000  1
  N  N198  1  0.46890000  0.44240000  0.65890000  1
  N  N199  1  0.49930000  0.10940000  0.68890000  1
  N  N200  1  0.50070000  0.89060000  0.31110000  1
  N  N201  1  0.53110000  0.55760000  0.34110000  1
  N  N202  1  0.56500000  0.69110000  0.40950000  1
  N  N203  1  0.57950000  0.38990000  0.39060000  1
  N  N204  1  0.63210000  0.01560000  0.33550000  1
  N  N205  1  0.68010000  0.38350000  0.51560000  1
  N  N206  1  0.71650000  0.15890000  0.69000000  1
  N  N207  1  0.71840000  0.87390000  0.80890000  1
  N  N208  1  0.78160000  0.09050000  0.65550000  1
  N  N209  1  0.78350000  0.97350000  0.94240000  1
  N  N210  1  0.81990000  0.83550000  0.20340000  1
  N  N211  1  0.86790000  0.70340000  0.88350000  1
  N  N212  1  0.92050000  0.81110000  0.31040000  1
  N  N213  1  0.93500000  0.84450000  0.62610000  1
  N  N214  1  0.96890000  0.81000000  0.52650000  1
  N  N215  1  0.99930000  0.81040000  0.88990000  1
  O  O216  1  0.00560000  0.04300000  0.21080000  1
  O  O217  1  0.03350000  0.04680000  0.91590000  1
  O  O218  1  0.07060000  0.73100000  0.39300000  1
  O  O219  1  0.13090000  0.01330000  0.54680000  1
  O  O220  1  0.16200000  0.89300000  0.82240000  1
  O  O221  1  0.16780000  0.96260000  0.45700000  1
  O  O222  1  0.17940000  0.81220000  0.54380000  1
  O  O223  1  0.23160000  0.04380000  0.86440000  1
  O  O224  1  0.26840000  0.63280000  0.31220000  1
  O  O225  1  0.32060000  0.36440000  0.13280000  1
  O  O226  1  0.33220000  0.28920000  0.29480000  1
  O  O227  1  0.33800000  0.66040000  0.23100000  1
  O  O228  1  0.36910000  0.41590000  0.38240000  1
  O  O229  1  0.42940000  0.32240000  0.16040000  1
  O  O230  1  0.46650000  0.88240000  0.51330000  1
  O  O231  1  0.49440000  0.20520000  0.53740000  1
  O  O232  1  0.50560000  0.79480000  0.46260000  1
  O  O233  1  0.53350000  0.11760000  0.48670000  1
  O  O234  1  0.57060000  0.67760000  0.83960000  1
  O  O235  1  0.63090000  0.58410000  0.61760000  1
  O  O236  1  0.66200000  0.33960000  0.76900000  1
  O  O237  1  0.66780000  0.71080000  0.70520000  1
  O  O238  1  0.67940000  0.63560000  0.86720000  1
  O  O239  1  0.73160000  0.36720000  0.68780000  1
  O  O240  1  0.76840000  0.95620000  0.13560000  1
  O  O241  1  0.82060000  0.18780000  0.45620000  1
  O  O242  1  0.83220000  0.03740000  0.54300000  1
  O  O243  1  0.83800000  0.10700000  0.17760000  1
  O  O244  1  0.86910000  0.98670000  0.45320000  1
  O  O245  1  0.92940000  0.26900000  0.60700000  1
  O  O246  1  0.96650000  0.95320000  0.08410000  1
  O  O247  1  0.99440000  0.95700000  0.78920000  1
