# generated using pymatgen
data_CuH4C8(N2O)2
_symmetry_space_group_name_H-M   'P 1'
_cell_length_a   7.11900000
_cell_length_b   9.10000000
_cell_length_c   12.23914377
_cell_angle_alpha   111.82408058
_cell_angle_beta   106.90760362
_cell_angle_gamma   90.00000000
_symmetry_Int_Tables_number   1
_chemical_formula_structural   CuH4C8(N2O)2
_chemical_formula_sum   'Cu2 H8 C16 N8 O4'
_cell_volume   699.00749100
_cell_formula_units_Z   2
loop_
 _symmetry_equiv_pos_site_id
 _symmetry_equiv_pos_as_xyz
  1  'x, y, z'
loop_
 _atom_site_type_symbol
 _atom_site_label
 _atom_site_symmetry_multiplicity
 _atom_site_fract_x
 _atom_site_fract_y
 _atom_site_fract_z
 _atom_site_occupancy
  C  C0  1  0.90710000  0.73790000  0.81420000  1
  C  C1  1  0.84330000  0.63080000  0.68660000  1
  C  C2  1  0.71560000  0.41180000  0.43120000  1
  C  C3  1  0.65380000  0.30030000  0.30760000  1
  C  C4  1  0.34620000  0.99270000  0.69240000  1
  C  C5  1  0.28440000  0.98060000  0.56880000  1
  C  C6  1  0.15670000  0.94420000  0.31340000  1
  C  C7  1  0.09290000  0.92370000  0.18580000  1
  C  C8  1  0.58220000  0.47020000  0.49840000  1
  C  C9  1  0.08380000  0.97180000  0.50160000  1
  C  C10  1  0.63960000  0.57130000  0.61480000  1
  C  C11  1  0.02480000  0.95650000  0.38520000  1
  C  C12  1  0.36040000  0.95650000  0.38520000  1
  C  C13  1  0.97520000  0.57130000  0.61480000  1
  C  C14  1  0.41780000  0.97180000  0.50160000  1
  C  C15  1  0.91620000  0.47020000  0.49840000  1
  Cu  Cu16  1  0.25174000  0.96700000  0.00000000  1
  Cu  Cu17  1  0.74826000  0.96700000  1.00000000  1
  H  H18  1  0.45670000  0.95310000  0.34700000  1
  H  H19  1  0.10970000  0.60610000  0.65300000  1
  H  H20  1  0.55210000  0.97800000  0.54140000  1
  H  H21  1  0.01070000  0.43660000  0.45860000  1
  H  H22  1  0.44790000  0.43660000  0.45860000  1
  H  H23  1  0.98930000  0.97800000  0.54140000  1
  H  H24  1  0.54330000  0.60610000  0.65300000  1
  H  H25  1  0.89030000  0.95310000  0.34700000  1
  N  N26  1  0.46170000  0.13300000  0.13040000  1
  N  N27  1  0.33130000  0.00260000  0.86960000  1
  N  N28  1  0.46140000  0.23370000  0.23640000  1
  N  N29  1  0.22500000  0.99730000  0.76360000  1
  N  N30  1  0.53860000  0.99730000  0.76360000  1
  N  N31  1  0.77500000  0.23370000  0.23640000  1
  N  N32  1  0.53830000  0.00260000  0.86960000  1
  N  N33  1  0.66870000  0.13300000  0.13040000  1
  O  O34  1  0.78600000  0.77950000  0.86360000  1
  O  O35  1  0.92240000  0.91590000  0.13640000  1
  O  O36  1  0.21400000  0.91590000  0.13640000  1
  O  O37  1  0.07760000  0.77950000  0.86360000  1
