# generated using pymatgen
data_Eu2Cu3H18C42(NO4)6
_symmetry_space_group_name_H-M   'P 1'
_cell_length_a   13.94500000
_cell_length_b   20.58500000
_cell_length_c   30.63300000
_cell_angle_alpha   90.00000000
_cell_angle_beta   90.00000000
_cell_angle_gamma   98.79000000
_symmetry_Int_Tables_number   1
_chemical_formula_structural   Eu2Cu3H18C42(NO4)6
_chemical_formula_sum   'Eu8 Cu12 H72 C168 N24 O96'
_cell_volume   8690.16396600
_cell_formula_units_Z   4
loop_
 _symmetry_equiv_pos_site_id
 _symmetry_equiv_pos_as_xyz
  1  'x, y, z'
loop_
 _atom_site_type_symbol
 _atom_site_label
 _atom_site_symmetry_multiplicity
 _atom_site_fract_x
 _atom_site_fract_y
 _atom_site_fract_z
 _atom_site_occupancy
  Eu  Eu0  1  0.02390000  0.37486000  0.55125000  1
  Eu  Eu1  1  0.03894000  0.39492000  0.80977000  1
  Eu  Eu2  1  0.46106000  0.10508000  0.30977000  1
  Eu  Eu3  1  0.47610000  0.12514000  0.05125000  1
  Eu  Eu4  1  0.52390000  0.87486000  0.94875000  1
  Eu  Eu5  1  0.53894000  0.89492000  0.69023000  1
  Eu  Eu6  1  0.96106000  0.60508000  0.19023000  1
  Eu  Eu7  1  0.97610000  0.62514000  0.44875000  1
  Cu  Cu8  1  0.00428000  0.74137000  0.65744000  1
  Cu  Cu9  1  0.00815000  0.28061000  0.02215000  1
  Cu  Cu10  1  0.02689000  0.88903000  0.31540000  1
  Cu  Cu11  1  0.47311000  0.61097000  0.81540000  1
  Cu  Cu12  1  0.49185000  0.21939000  0.52215000  1
  Cu  Cu13  1  0.49572000  0.75863000  0.15744000  1
  Cu  Cu14  1  0.50428000  0.24137000  0.84256000  1
  Cu  Cu15  1  0.50815000  0.78061000  0.47785000  1
  Cu  Cu16  1  0.52689000  0.38903000  0.18460000  1
  Cu  Cu17  1  0.97311000  0.11097000  0.68460000  1
  Cu  Cu18  1  0.99185000  0.71939000  0.97785000  1
  Cu  Cu19  1  0.99572000  0.25863000  0.34256000  1
  H  H20  1  0.04230000  0.61130000  0.91620000  1
  H  H21  1  0.05300000  0.18830000  0.60660000  1
  H  H22  1  0.05900000  0.74120000  0.56090000  1
  H  H23  1  0.06930000  0.79450000  0.24680000  1
  H  H24  1  0.07460000  0.29500000  0.92700000  1
  H  H25  1  0.09310000  0.36610000  0.28180000  1
  H  H26  1  0.14240000  0.04610000  0.67330000  1
  H  H27  1  0.15840000  0.19510000  0.32000000  1
  H  H28  1  0.17990000  0.58870000  0.88000000  1
  H  H29  1  0.18260000  0.21960000  0.03120000  1
  H  H30  1  0.18650000  0.77850000  0.96020000  1
  H  H31  1  0.19400000  0.20420000  0.56640000  1
  H  H32  1  0.19630000  0.77050000  0.51890000  1
  H  H33  1  0.20030000  0.26930000  0.88460000  1
  H  H34  1  0.20180000  0.77320000  0.20640000  1
  H  H35  1  0.20600000  0.79450000  0.66770000  1
  H  H36  1  0.22150000  0.95750000  0.29350000  1
  H  H37  1  0.23860000  0.39060000  0.24420000  1
  H  H38  1  0.26140000  0.10940000  0.74420000  1
  H  H39  1  0.27850000  0.54250000  0.79350000  1
  H  H40  1  0.29400000  0.70550000  0.16770000  1
  H  H41  1  0.29820000  0.72680000  0.70640000  1
  H  H42  1  0.29970000  0.23070000  0.38460000  1
  H  H43  1  0.30370000  0.72950000  0.01890000  1
  H  H44  1  0.30600000  0.29580000  0.06640000  1
  H  H45  1  0.31350000  0.72150000  0.46020000  1
  H  H46  1  0.31740000  0.28040000  0.53120000  1
  H  H47  1  0.32010000  0.91130000  0.38000000  1
  H  H48  1  0.34160000  0.30490000  0.82000000  1
  H  H49  1  0.35760000  0.45390000  0.17330000  1
  H  H50  1  0.40690000  0.13390000  0.78180000  1
  H  H51  1  0.42540000  0.20500000  0.42700000  1
  H  H52  1  0.43070000  0.70550000  0.74680000  1
  H  H53  1  0.44100000  0.75880000  0.06090000  1
  H  H54  1  0.44700000  0.31170000  0.10660000  1
  H  H55  1  0.45770000  0.88870000  0.41620000  1
  H  H56  1  0.54230000  0.11130000  0.58380000  1
  H  H57  1  0.55300000  0.68830000  0.89340000  1
  H  H58  1  0.55900000  0.24120000  0.93910000  1
  H  H59  1  0.56930000  0.29450000  0.25320000  1
  H  H60  1  0.57460000  0.79500000  0.57300000  1
  H  H61  1  0.59310000  0.86610000  0.21820000  1
  H  H62  1  0.64240000  0.54610000  0.82670000  1
  H  H63  1  0.65840000  0.69510000  0.18000000  1
  H  H64  1  0.67990000  0.08870000  0.62000000  1
  H  H65  1  0.68260000  0.71960000  0.46880000  1
  H  H66  1  0.68650000  0.27850000  0.53980000  1
  H  H67  1  0.69400000  0.70420000  0.93360000  1
  H  H68  1  0.69630000  0.27050000  0.98110000  1
  H  H69  1  0.70030000  0.76930000  0.61540000  1
  H  H70  1  0.70180000  0.27320000  0.29360000  1
  H  H71  1  0.70600000  0.29450000  0.83230000  1
  H  H72  1  0.72150000  0.45750000  0.20650000  1
  H  H73  1  0.73860000  0.89060000  0.25580000  1
  H  H74  1  0.76140000  0.60940000  0.75580000  1
  H  H75  1  0.77850000  0.04250000  0.70650000  1
  H  H76  1  0.79400000  0.20550000  0.33230000  1
  H  H77  1  0.79820000  0.22680000  0.79360000  1
  H  H78  1  0.79970000  0.73070000  0.11540000  1
  H  H79  1  0.80370000  0.22950000  0.48110000  1
  H  H80  1  0.80600000  0.79580000  0.43360000  1
  H  H81  1  0.81350000  0.22150000  0.03980000  1
  H  H82  1  0.81740000  0.78040000  0.96880000  1
  H  H83  1  0.82010000  0.41130000  0.12000000  1
  H  H84  1  0.84160000  0.80490000  0.68000000  1
  H  H85  1  0.85760000  0.95390000  0.32670000  1
  H  H86  1  0.90690000  0.63390000  0.71820000  1
  H  H87  1  0.92540000  0.70500000  0.07300000  1
  H  H88  1  0.93070000  0.20550000  0.75320000  1
  H  H89  1  0.94100000  0.25880000  0.43910000  1
  H  H90  1  0.94700000  0.81170000  0.39340000  1
  H  H91  1  0.95770000  0.38870000  0.08380000  1
  C  C92  1  0.10070000  0.64172000  0.91802000  1
  C  C93  1  0.10160000  0.16177000  0.61247000  1
  C  C94  1  0.10990000  0.54105000  0.75702000  1
  C  C95  1  0.11670000  0.18197000  0.73505000  1
  C  C96  1  0.11760000  0.67055000  0.13966000  1
  C  C97  1  0.11860000  0.75775000  0.57487000  1
  C  C98  1  0.12230000  0.68308000  0.04039000  1
  C  C99  1  0.12360000  0.27427000  0.94024000  1
  C  C100  1  0.12650000  0.65778000  0.69488000  1
  C  C101  1  0.12850000  0.82428000  0.24840000  1
  C  C102  1  0.13750000  0.33544000  0.28241000  1
  C  C103  1  0.14030000  0.72290000  0.43096000  1
  C  C104  1  0.14360000  0.83534000  0.37043000  1
  C  C105  1  0.15080000  0.35699000  0.06923000  1
  C  C106  1  0.15100000  0.29126000  0.40393000  1
  C  C107  1  0.15430000  0.07909000  0.65142000  1
  C  C108  1  0.15660000  0.31273000  0.50190000  1
  C  C109  1  0.16510000  0.30049000  0.79146000  1
  C  C110  1  0.17610000  0.23578000  0.30535000  1
  C  C111  1  0.18270000  0.62820000  0.89633000  1
  C  C112  1  0.18340000  0.45615000  0.14278000  1
  C  C113  1  0.18530000  0.17148000  0.58851000  1
  C  C114  1  0.18560000  0.73927000  0.94380000  1
  C  C115  1  0.18740000  0.23094000  0.00109000  1
  C  C116  1  0.19840000  0.25931000  0.91489000  1
  C  C117  1  0.20050000  0.77499000  0.54969000  1
  C  C118  1  0.20170000  0.58988000  0.75187000  1
  C  C119  1  0.20520000  0.78820000  0.63701000  1
  C  C120  1  0.20670000  0.64549000  0.72540000  1
  C  C121  1  0.20710000  0.81157000  0.22405000  1
  C  C122  1  0.20790000  0.69480000  0.11463000  1
  C  C123  1  0.20940000  0.19328000  0.76174000  1
  C  C124  1  0.21080000  0.70114000  0.06902000  1
  C  C125  1  0.21760000  0.91963000  0.27548000  1
  C  C126  1  0.22440000  0.35073000  0.26022000  1
  C  C127  1  0.22850000  0.27047000  0.43355000  1
  C  C128  1  0.23000000  0.77174000  0.42343000  1
  C  C129  1  0.23160000  0.82813000  0.39837000  1
  C  C130  1  0.23330000  0.25173000  0.78521000  1
  C  C131  1  0.23360000  0.28388000  0.47763000  1
  C  C132  1  0.24140000  0.36702000  0.09667000  1
  C  C133  1  0.24200000  0.08584000  0.62908000  1
  C  C134  1  0.25800000  0.41416000  0.12908000  1
  C  C135  1  0.25860000  0.13298000  0.59667000  1
  C  C136  1  0.26640000  0.21612000  0.97763000  1
  C  C137  1  0.26670000  0.24827000  0.28521000  1
  C  C138  1  0.26840000  0.67187000  0.89837000  1
  C  C139  1  0.27000000  0.72826000  0.92343000  1
  C  C140  1  0.27150000  0.22953000  0.93355000  1
  C  C141  1  0.27560000  0.14927000  0.76022000  1
  C  C142  1  0.28240000  0.58037000  0.77548000  1
  C  C143  1  0.28920000  0.79886000  0.56902000  1
  C  C144  1  0.29060000  0.30672000  0.26174000  1
  C  C145  1  0.29210000  0.80520000  0.61463000  1
  C  C146  1  0.29290000  0.68843000  0.72405000  1
  C  C147  1  0.29330000  0.85451000  0.22540000  1
  C  C148  1  0.29480000  0.71180000  0.13701000  1
  C  C149  1  0.29830000  0.91012000  0.25187000  1
  C  C150  1  0.29950000  0.72501000  0.04969000  1
  C  C151  1  0.30160000  0.24069000  0.41489000  1
  C  C152  1  0.31260000  0.26906000  0.50109000  1
  C  C153  1  0.31440000  0.76073000  0.44380000  1
  C  C154  1  0.31470000  0.32852000  0.08851000  1
  C  C155  1  0.31660000  0.04385000  0.64278000  1
  C  C156  1  0.31730000  0.87180000  0.39633000  1
  C  C157  1  0.32390000  0.26422000  0.80535000  1
  C  C158  1  0.33490000  0.19951000  0.29146000  1
  C  C159  1  0.34340000  0.18727000  0.00190000  1
  C  C160  1  0.34570000  0.42091000  0.15142000  1
  C  C161  1  0.34900000  0.20874000  0.90393000  1
  C  C162  1  0.34920000  0.14301000  0.56923000  1
  C  C163  1  0.35640000  0.66466000  0.87043000  1
  C  C164  1  0.35970000  0.77710000  0.93096000  1
  C  C165  1  0.36250000  0.16456000  0.78241000  1
  C  C166  1  0.37150000  0.67572000  0.74840000  1
  C  C167  1  0.37350000  0.84222000  0.19488000  1
  C  C168  1  0.37640000  0.22573000  0.44024000  1
  C  C169  1  0.37770000  0.81692000  0.54039000  1
  C  C170  1  0.38140000  0.74225000  0.07487000  1
  C  C171  1  0.38240000  0.82945000  0.63966000  1
  C  C172  1  0.38330000  0.31803000  0.23505000  1
  C  C173  1  0.39010000  0.95895000  0.25702000  1
  C  C174  1  0.39840000  0.33823000  0.11247000  1
  C  C175  1  0.39930000  0.85828000  0.41802000  1
  C  C176  1  0.60070000  0.14172000  0.58198000  1
  C  C177  1  0.60160000  0.66177000  0.88753000  1
  C  C178  1  0.60990000  0.04105000  0.74298000  1
  C  C179  1  0.61670000  0.68197000  0.76495000  1
  C  C180  1  0.61760000  0.17055000  0.36034000  1
  C  C181  1  0.61860000  0.25775000  0.92513000  1
  C  C182  1  0.62230000  0.18308000  0.45961000  1
  C  C183  1  0.62360000  0.77427000  0.55976000  1
  C  C184  1  0.62650000  0.15778000  0.80512000  1
  C  C185  1  0.62850000  0.32428000  0.25160000  1
  C  C186  1  0.63750000  0.83544000  0.21759000  1
  C  C187  1  0.64030000  0.22290000  0.06904000  1
  C  C188  1  0.64360000  0.33534000  0.12957000  1
  C  C189  1  0.65080000  0.85699000  0.43077000  1
  C  C190  1  0.65100000  0.79126000  0.09607000  1
  C  C191  1  0.65430000  0.57909000  0.84858000  1
  C  C192  1  0.65660000  0.81273000  0.99810000  1
  C  C193  1  0.66510000  0.80049000  0.70854000  1
  C  C194  1  0.67610000  0.73578000  0.19465000  1
  C  C195  1  0.68270000  0.12820000  0.60367000  1
  C  C196  1  0.68340000  0.95615000  0.35722000  1
  C  C197  1  0.68530000  0.67148000  0.91149000  1
  C  C198  1  0.68560000  0.23927000  0.55620000  1
  C  C199  1  0.68740000  0.73094000  0.49891000  1
  C  C200  1  0.69840000  0.75931000  0.58511000  1
  C  C201  1  0.70050000  0.27499000  0.95031000  1
  C  C202  1  0.70170000  0.08988000  0.74813000  1
  C  C203  1  0.70520000  0.28820000  0.86299000  1
  C  C204  1  0.70670000  0.14549000  0.77460000  1
  C  C205  1  0.70710000  0.31157000  0.27595000  1
  C  C206  1  0.70790000  0.19480000  0.38537000  1
  C  C207  1  0.70940000  0.69328000  0.73826000  1
  C  C208  1  0.71080000  0.20114000  0.43098000  1
  C  C209  1  0.71760000  0.41963000  0.22452000  1
  C  C210  1  0.72440000  0.85073000  0.23978000  1
  C  C211  1  0.72850000  0.77047000  0.06645000  1
  C  C212  1  0.73000000  0.27174000  0.07657000  1
  C  C213  1  0.73160000  0.32813000  0.10163000  1
  C  C214  1  0.73330000  0.75173000  0.71479000  1
  C  C215  1  0.73360000  0.78388000  0.02237000  1
  C  C216  1  0.74140000  0.86702000  0.40333000  1
  C  C217  1  0.74200000  0.58584000  0.87092000  1
  C  C218  1  0.75800000  0.91416000  0.37092000  1
  C  C219  1  0.75860000  0.63298000  0.90333000  1
  C  C220  1  0.76640000  0.71612000  0.52237000  1
  C  C221  1  0.76670000  0.74827000  0.21479000  1
  C  C222  1  0.76840000  0.17187000  0.60163000  1
  C  C223  1  0.77000000  0.22826000  0.57657000  1
  C  C224  1  0.77150000  0.72953000  0.56645000  1
  C  C225  1  0.77560000  0.64927000  0.73978000  1
  C  C226  1  0.78240000  0.08037000  0.72452000  1
  C  C227  1  0.78920000  0.29886000  0.93098000  1
  C  C228  1  0.79060000  0.80672000  0.23826000  1
  C  C229  1  0.79210000  0.30520000  0.88537000  1
  C  C230  1  0.79290000  0.18843000  0.77595000  1
  C  C231  1  0.79330000  0.35451000  0.27460000  1
  C  C232  1  0.79480000  0.21180000  0.36299000  1
  C  C233  1  0.79830000  0.41012000  0.24813000  1
  C  C234  1  0.79950000  0.22501000  0.45031000  1
  C  C235  1  0.80160000  0.74069000  0.08511000  1
  C  C236  1  0.81260000  0.76906000  0.99891000  1
  C  C237  1  0.81440000  0.26073000  0.05620000  1
  C  C238  1  0.81470000  0.82852000  0.41149000  1
  C  C239  1  0.81660000  0.54385000  0.85722000  1
  C  C240  1  0.81730000  0.37180000  0.10367000  1
  C  C241  1  0.82390000  0.76422000  0.69465000  1
  C  C242  1  0.83490000  0.69951000  0.20854000  1
  C  C243  1  0.84340000  0.68727000  0.49810000  1
  C  C244  1  0.84570000  0.92091000  0.34858000  1
  C  C245  1  0.84900000  0.70874000  0.59607000  1
  C  C246  1  0.84920000  0.64301000  0.93077000  1
  C  C247  1  0.85640000  0.16466000  0.62957000  1
  C  C248  1  0.85970000  0.27710000  0.56904000  1
  C  C249  1  0.86250000  0.66456000  0.71759000  1
  C  C250  1  0.87150000  0.17572000  0.75160000  1
  C  C251  1  0.87350000  0.34222000  0.30512000  1
  C  C252  1  0.87640000  0.72573000  0.05976000  1
  C  C253  1  0.87770000  0.31692000  0.95961000  1
  C  C254  1  0.88140000  0.24225000  0.42513000  1
  C  C255  1  0.88240000  0.32945000  0.86034000  1
  C  C256  1  0.88330000  0.81803000  0.26495000  1
  C  C257  1  0.89010000  0.45895000  0.24298000  1
  C  C258  1  0.89840000  0.83823000  0.38753000  1
  C  C259  1  0.89930000  0.35828000  0.08198000  1
  N  N260  1  0.08584000  0.11657000  0.64372000  1
  N  N261  1  0.10243000  0.69691000  0.94146000  1
  N  N262  1  0.11282000  0.27895000  0.30490000  1
  N  N263  1  0.11719000  0.26055000  0.98325000  1
  N  N264  1  0.12053000  0.76359000  0.61850000  1
  N  N265  1  0.13337000  0.87777000  0.27433000  1
  N  N266  1  0.36663000  0.62223000  0.77433000  1
  N  N267  1  0.37947000  0.73641000  0.11850000  1
  N  N268  1  0.38281000  0.23945000  0.48325000  1
  N  N269  1  0.38718000  0.22105000  0.80490000  1
  N  N270  1  0.39757000  0.80309000  0.44146000  1
  N  N271  1  0.41416000  0.38343000  0.14372000  1
  N  N272  1  0.58584000  0.61657000  0.85628000  1
  N  N273  1  0.60243000  0.19691000  0.55854000  1
  N  N274  1  0.61282000  0.77895000  0.19510000  1
  N  N275  1  0.61719000  0.76055000  0.51675000  1
  N  N276  1  0.62053000  0.26359000  0.88150000  1
  N  N277  1  0.63337000  0.37777000  0.22567000  1
  N  N278  1  0.86663000  0.12223000  0.72567000  1
  N  N279  1  0.87947000  0.23641000  0.38150000  1
  N  N280  1  0.88281000  0.73945000  0.01675000  1
  N  N281  1  0.88718000  0.72105000  0.69510000  1
  N  N282  1  0.89757000  0.30309000  0.05854000  1
  N  N283  1  0.91416000  0.88343000  0.35628000  1
  O  O284  1  0.03110000  0.56047000  0.74970000  1
  O  O285  1  0.03825000  0.65444000  0.12011000  1
  O  O286  1  0.06805000  0.74089000  0.44912000  1
  O  O287  1  0.07246000  0.12303000  0.73335000  1
  O  O288  1  0.08069000  0.32164000  0.48304000  1
  O  O289  1  0.08135000  0.73194000  0.02833000  1
  O  O290  1  0.08316000  0.28103000  0.80860000  1
  O  O291  1  0.08352000  0.24604000  0.39204000  1
  O  O292  1  0.08405000  0.70674000  0.70303000  1
  O  O293  1  0.09134000  0.22969000  0.71595000  1
  O  O294  1  0.09711000  0.42877000  0.14359000  1
  O  O295  1  0.09929000  0.62612000  0.02806000  1
  O  O296  1  0.09964000  0.78410000  0.35393000  1
  O  O297  1  0.10157000  0.29958000  0.07107000  1
  O  O298  1  0.11140000  0.62098000  0.66252000  1
  O  O299  1  0.12044000  0.48451000  0.76939000  1
  O  O300  1  0.12349000  0.66738000  0.18091000  1
  O  O301  1  0.12456000  0.89274000  0.36390000  1
  O  O302  1  0.13196000  0.40188000  0.04548000  1
  O  O303  1  0.14185000  0.66359000  0.42048000  1
  O  O304  1  0.16142000  0.34920000  0.39093000  1
  O  O305  1  0.17151000  0.32649000  0.54210000  1
  O  O306  1  0.19236000  0.35961000  0.78166000  1
  O  O307  1  0.21370000  0.51476000  0.15328000  1
  O  O308  1  0.28630000  0.98524000  0.65328000  1
  O  O309  1  0.30764000  0.14039000  0.28166000  1
  O  O310  1  0.32849000  0.17351000  0.04210000  1
  O  O311  1  0.33858000  0.15080000  0.89093000  1
  O  O312  1  0.35815000  0.83641000  0.92048000  1
  O  O313  1  0.36804000  0.09812000  0.54548000  1
  O  O314  1  0.37544000  0.60726000  0.86390000  1
  O  O315  1  0.37651000  0.83262000  0.68091000  1
  O  O316  1  0.37956000  0.01549000  0.26939000  1
  O  O317  1  0.38860000  0.87902000  0.16252000  1
  O  O318  1  0.39843000  0.20042000  0.57107000  1
  O  O319  1  0.40036000  0.71590000  0.85393000  1
  O  O320  1  0.40071000  0.87388000  0.52806000  1
  O  O321  1  0.40289000  0.07123000  0.64359000  1
  O  O322  1  0.40866000  0.27031000  0.21595000  1
  O  O323  1  0.41595000  0.79326000  0.20303000  1
  O  O324  1  0.41648000  0.25396000  0.89204000  1
  O  O325  1  0.41684000  0.21897000  0.30860000  1
  O  O326  1  0.41865000  0.76806000  0.52833000  1
  O  O327  1  0.41931000  0.17836000  0.98304000  1
  O  O328  1  0.42754000  0.37697000  0.23335000  1
  O  O329  1  0.43195000  0.75911000  0.94912000  1
  O  O330  1  0.46175000  0.84556000  0.62011000  1
  O  O331  1  0.46890000  0.93953000  0.24970000  1
  O  O332  1  0.53110000  0.06047000  0.75030000  1
  O  O333  1  0.53825000  0.15444000  0.37989000  1
  O  O334  1  0.56805000  0.24089000  0.05088000  1
  O  O335  1  0.57246000  0.62303000  0.76665000  1
  O  O336  1  0.58069000  0.82164000  0.01696000  1
  O  O337  1  0.58135000  0.23194000  0.47167000  1
  O  O338  1  0.58316000  0.78103000  0.69140000  1
  O  O339  1  0.58352000  0.74604000  0.10796000  1
  O  O340  1  0.58405000  0.20674000  0.79697000  1
  O  O341  1  0.59134000  0.72969000  0.78405000  1
  O  O342  1  0.59711000  0.92877000  0.35641000  1
  O  O343  1  0.59929000  0.12612000  0.47194000  1
  O  O344  1  0.59964000  0.28410000  0.14607000  1
  O  O345  1  0.60157000  0.79958000  0.42893000  1
  O  O346  1  0.61140000  0.12098000  0.83748000  1
  O  O347  1  0.62044000  0.98451000  0.73061000  1
  O  O348  1  0.62349000  0.16738000  0.31909000  1
  O  O349  1  0.62456000  0.39274000  0.13610000  1
  O  O350  1  0.63196000  0.90188000  0.45452000  1
  O  O351  1  0.64185000  0.16359000  0.07952000  1
  O  O352  1  0.66142000  0.84920000  0.10907000  1
  O  O353  1  0.67151000  0.82649000  0.95790000  1
  O  O354  1  0.69236000  0.85961000  0.71834000  1
  O  O355  1  0.71370000  0.01476000  0.34672000  1
  O  O356  1  0.78630000  0.48524000  0.84672000  1
  O  O357  1  0.80764000  0.64039000  0.21834000  1
  O  O358  1  0.82849000  0.67351000  0.45790000  1
  O  O359  1  0.83858000  0.65080000  0.60907000  1
  O  O360  1  0.85815000  0.33641000  0.57952000  1
  O  O361  1  0.86804000  0.59812000  0.95452000  1
  O  O362  1  0.87544000  0.10726000  0.63610000  1
  O  O363  1  0.87651000  0.33262000  0.81909000  1
  O  O364  1  0.87956000  0.51549000  0.23061000  1
  O  O365  1  0.88860000  0.37902000  0.33748000  1
  O  O366  1  0.89843000  0.70042000  0.92893000  1
  O  O367  1  0.90036000  0.21590000  0.64607000  1
  O  O368  1  0.90071000  0.37388000  0.97194000  1
  O  O369  1  0.90289000  0.57123000  0.85641000  1
  O  O370  1  0.90866000  0.77031000  0.28405000  1
  O  O371  1  0.91595000  0.29326000  0.29697000  1
  O  O372  1  0.91648000  0.75396000  0.60796000  1
  O  O373  1  0.91684000  0.71897000  0.19140000  1
  O  O374  1  0.91865000  0.26806000  0.97167000  1
  O  O375  1  0.91931000  0.67836000  0.51696000  1
  O  O376  1  0.92754000  0.87697000  0.26665000  1
  O  O377  1  0.93195000  0.25911000  0.55088000  1
  O  O378  1  0.96175000  0.34556000  0.87989000  1
  O  O379  1  0.96890000  0.43953000  0.25030000  1
