# generated using pymatgen
data_MnN9
_symmetry_space_group_name_H-M   'P 1'
_cell_length_a   8.41360000
_cell_length_b   9.24740000
_cell_length_c   12.80740000
_cell_angle_alpha   90.00000000
_cell_angle_beta   105.96900000
_cell_angle_gamma   90.00000000
_symmetry_Int_Tables_number   1
_chemical_formula_structural   MnN9
_chemical_formula_sum   'Mn4 N36'
_cell_volume   958.01304905
_cell_formula_units_Z   4
loop_
 _symmetry_equiv_pos_site_id
 _symmetry_equiv_pos_as_xyz
  1  'x, y, z'
loop_
 _atom_site_type_symbol
 _atom_site_label
 _atom_site_symmetry_multiplicity
 _atom_site_fract_x
 _atom_site_fract_y
 _atom_site_fract_z
 _atom_site_occupancy
  Mn  Mn0  1  0.25696000  0.74836000  0.01037000  1
  Mn  Mn1  1  0.25696000  0.75164000  0.51037000  1
  Mn  Mn2  1  0.74304000  0.24836000  0.48963000  1
  Mn  Mn3  1  0.74304000  0.25164000  0.98963000  1
  N  N4  1  0.00000000  0.00000000  0.00000000  1
  N  N5  1  0.00000000  0.00000000  0.50000000  1
  N  N6  1  0.00000000  0.50000000  0.00000000  1
  N  N7  1  0.00000000  0.50000000  0.50000000  1
  N  N8  1  0.04194000  0.62059000  0.01788000  1
  N  N9  1  0.04194000  0.87941000  0.51788000  1
  N  N10  1  0.10713000  0.55291000  0.47102000  1
  N  N11  1  0.10713000  0.94709000  0.97102000  1
  N  N12  1  0.21230000  0.69185000  0.83564000  1
  N  N13  1  0.21230000  0.80815000  0.33564000  1
  N  N14  1  0.26914000  0.69827000  0.76201000  1
  N  N15  1  0.26914000  0.80173000  0.26201000  1
  N  N16  1  0.32612000  0.70113000  0.68829000  1
  N  N17  1  0.32612000  0.79887000  0.18829000  1
  N  N18  1  0.42867000  0.55836000  0.05509000  1
  N  N19  1  0.42867000  0.94164000  0.55509000  1
  N  N20  1  0.48179000  0.62542000  0.50632000  1
  N  N21  1  0.48179000  0.87458000  0.00632000  1
  N  N22  1  0.50000000  0.00000000  0.00000000  1
  N  N23  1  0.50000000  0.00000000  0.50000000  1
  N  N24  1  0.50000000  0.50000000  0.00000000  1
  N  N25  1  0.50000000  0.50000000  0.50000000  1
  N  N26  1  0.51821000  0.12542000  0.99368000  1
  N  N27  1  0.51821000  0.37458000  0.49368000  1
  N  N28  1  0.57133000  0.05836000  0.44491000  1
  N  N29  1  0.57133000  0.44164000  0.94491000  1
  N  N30  1  0.67388000  0.20113000  0.81171000  1
  N  N31  1  0.67388000  0.29887000  0.31171000  1
  N  N32  1  0.73086000  0.19827000  0.73799000  1
  N  N33  1  0.73086000  0.30173000  0.23799000  1
  N  N34  1  0.78770000  0.19185000  0.66436000  1
  N  N35  1  0.78770000  0.30815000  0.16436000  1
  N  N36  1  0.89287000  0.05291000  0.02898000  1
  N  N37  1  0.89287000  0.44709000  0.52898000  1
  N  N38  1  0.95806000  0.12059000  0.48212000  1
  N  N39  1  0.95806000  0.37941000  0.98212000  1
