# generated using pymatgen
data_CoH4(C3O2)3
_symmetry_space_group_name_H-M   'P 1'
_cell_length_a   7.90300000
_cell_length_b   10.53790000
_cell_length_c   32.85800000
_cell_angle_alpha   90.00000000
_cell_angle_beta   90.00000000
_cell_angle_gamma   99.60700000
_symmetry_Int_Tables_number   1
_chemical_formula_structural   CoH4(C3O2)3
_chemical_formula_sum   'Co8 H32 C72 O48'
_cell_volume   2698.07098782
_cell_formula_units_Z   8
loop_
 _symmetry_equiv_pos_site_id
 _symmetry_equiv_pos_as_xyz
  1  'x, y, z'
loop_
 _atom_site_type_symbol
 _atom_site_label
 _atom_site_symmetry_multiplicity
 _atom_site_fract_x
 _atom_site_fract_y
 _atom_site_fract_z
 _atom_site_occupancy
  Co  Co0  1  0.00000000  0.50000000  0.00000000  1
  Co  Co1  1  0.00000000  0.50000000  0.50000000  1
  Co  Co2  1  0.05326000  0.48049000  0.25018000  1
  Co  Co3  1  0.44674000  0.51951000  0.75018000  1
  Co  Co4  1  0.50000000  0.50000000  0.00000000  1
  Co  Co5  1  0.50000000  0.50000000  0.50000000  1
  Co  Co6  1  0.55326000  0.48049000  0.24982000  1
  Co  Co7  1  0.94674000  0.51951000  0.74982000  1
  H  H8  1  0.08620000  0.93010000  0.76160000  1
  H  H9  1  0.13890000  0.91640000  0.98950000  1
  H  H10  1  0.17150000  0.45470000  0.79410000  1
  H  H11  1  0.19630000  0.88120000  0.49000000  1
  H  H12  1  0.21920000  0.42720000  0.95700000  1
  H  H13  1  0.22630000  0.58940000  0.79130000  1
  H  H14  1  0.23150000  0.43760000  0.45690000  1
  H  H15  1  0.24350000  0.87000000  0.26110000  1
  H  H16  1  0.25650000  0.13000000  0.76110000  1
  H  H17  1  0.26850000  0.56240000  0.95690000  1
  H  H18  1  0.27370000  0.41060000  0.29130000  1
  H  H19  1  0.28080000  0.57280000  0.45700000  1
  H  H20  1  0.30370000  0.11880000  0.99000000  1
  H  H21  1  0.32850000  0.54530000  0.29410000  1
  H  H22  1  0.36110000  0.08360000  0.48950000  1
  H  H23  1  0.41380000  0.06990000  0.26160000  1
  H  H24  1  0.58620000  0.93010000  0.73840000  1
  H  H25  1  0.63890000  0.91640000  0.51050000  1
  H  H26  1  0.67150000  0.45470000  0.70590000  1
  H  H27  1  0.69630000  0.88120000  0.01000000  1
  H  H28  1  0.71920000  0.42720000  0.54300000  1
  H  H29  1  0.72630000  0.58940000  0.70870000  1
  H  H30  1  0.73150000  0.43760000  0.04310000  1
  H  H31  1  0.74350000  0.87000000  0.23890000  1
  H  H32  1  0.75650000  0.13000000  0.73890000  1
  H  H33  1  0.76850000  0.56240000  0.54310000  1
  H  H34  1  0.77370000  0.41060000  0.20870000  1
  H  H35  1  0.78080000  0.57280000  0.04300000  1
  H  H36  1  0.80370000  0.11880000  0.51000000  1
  H  H37  1  0.82850000  0.54530000  0.20590000  1
  H  H38  1  0.86110000  0.08360000  0.01050000  1
  H  H39  1  0.91380000  0.06990000  0.23840000  1
  C  C40  1  0.01960000  0.23390000  0.29600000  1
  C  C41  1  0.03580000  0.74180000  0.54709000  1
  C  C42  1  0.04120000  0.75030000  0.04681000  1
  C  C43  1  0.09070000  0.72700000  0.20258000  1
  C  C44  1  0.09240000  0.89720000  0.70106000  1
  C  C45  1  0.12930000  0.87500000  0.62616000  1
  C  C46  1  0.12960000  0.96570000  0.73709000  1
  C  C47  1  0.15140000  0.87090000  0.55043000  1
  C  C48  1  0.15150000  0.88150000  0.04982000  1
  C  C49  1  0.15560000  0.95200000  0.66423000  1
  C  C50  1  0.18380000  0.95170000  0.01397000  1
  C  C51  1  0.18570000  0.93860000  0.58687000  1
  C  C52  1  0.20140000  0.85860000  0.12433000  1
  C  C53  1  0.20580000  0.85700000  0.20029000  1
  C  C54  1  0.21790000  0.92630000  0.51430000  1
  C  C55  1  0.21870000  0.93630000  0.08634000  1
  C  C56  1  0.23060000  0.08620000  0.73667000  1
  C  C57  1  0.24670000  0.92330000  0.16372000  1
  C  C58  1  0.25330000  0.07670000  0.66372000  1
  C  C59  1  0.26940000  0.91380000  0.23667000  1
  C  C60  1  0.28130000  0.06370000  0.58634000  1
  C  C61  1  0.28210000  0.07370000  0.01430000  1
  C  C62  1  0.29420000  0.14300000  0.70029000  1
  C  C63  1  0.29860000  0.14140000  0.62433000  1
  C  C64  1  0.31430000  0.06140000  0.08687000  1
  C  C65  1  0.31620000  0.04830000  0.51397000  1
  C  C66  1  0.34440000  0.04800000  0.16423000  1
  C  C67  1  0.34850000  0.11850000  0.54982000  1
  C  C68  1  0.34860000  0.12910000  0.05043000  1
  C  C69  1  0.37040000  0.03430000  0.23709000  1
  C  C70  1  0.37070000  0.12500000  0.12616000  1
  C  C71  1  0.40760000  0.10280000  0.20106000  1
  C  C72  1  0.40930000  0.27300000  0.70258000  1
  C  C73  1  0.45880000  0.24970000  0.54681000  1
  C  C74  1  0.46420000  0.25820000  0.04709000  1
  C  C75  1  0.48040000  0.76610000  0.79600000  1
  C  C76  1  0.51960000  0.23390000  0.20400000  1
  C  C77  1  0.53580000  0.74180000  0.95291000  1
  C  C78  1  0.54120000  0.75030000  0.45319000  1
  C  C79  1  0.59070000  0.72700000  0.29742000  1
  C  C80  1  0.59240000  0.89720000  0.79894000  1
  C  C81  1  0.62930000  0.87500000  0.87384000  1
  C  C82  1  0.62960000  0.96570000  0.76291000  1
  C  C83  1  0.65140000  0.87090000  0.94957000  1
  C  C84  1  0.65150000  0.88150000  0.45018000  1
  C  C85  1  0.65560000  0.95200000  0.83577000  1
  C  C86  1  0.68380000  0.95170000  0.48603000  1
  C  C87  1  0.68570000  0.93860000  0.91313000  1
  C  C88  1  0.70140000  0.85860000  0.37567000  1
  C  C89  1  0.70580000  0.85700000  0.29971000  1
  C  C90  1  0.71790000  0.92630000  0.98570000  1
  C  C91  1  0.71870000  0.93630000  0.41366000  1
  C  C92  1  0.73060000  0.08620000  0.76333000  1
  C  C93  1  0.74670000  0.92330000  0.33628000  1
  C  C94  1  0.75330000  0.07670000  0.83628000  1
  C  C95  1  0.76940000  0.91380000  0.26333000  1
  C  C96  1  0.78130000  0.06370000  0.91366000  1
  C  C97  1  0.78210000  0.07370000  0.48570000  1
  C  C98  1  0.79420000  0.14300000  0.79971000  1
  C  C99  1  0.79860000  0.14140000  0.87567000  1
  C  C100  1  0.81430000  0.06140000  0.41313000  1
  C  C101  1  0.81620000  0.04830000  0.98603000  1
  C  C102  1  0.84440000  0.04800000  0.33577000  1
  C  C103  1  0.84850000  0.11850000  0.95018000  1
  C  C104  1  0.84860000  0.12910000  0.44957000  1
  C  C105  1  0.87040000  0.03430000  0.26291000  1
  C  C106  1  0.87070000  0.12500000  0.37384000  1
  C  C107  1  0.90760000  0.10280000  0.29894000  1
  C  C108  1  0.90930000  0.27300000  0.79742000  1
  C  C109  1  0.95880000  0.24970000  0.95319000  1
  C  C110  1  0.96420000  0.25820000  0.45291000  1
  C  C111  1  0.98040000  0.76610000  0.70400000  1
  O  O112  1  0.05600000  0.67760000  0.71804000  1
  O  O113  1  0.06280000  0.28480000  0.80666000  1
  O  O114  1  0.07120000  0.76090000  0.62746000  1
  O  O115  1  0.10920000  0.26540000  0.94059000  1
  O  O116  1  0.10950000  0.64820000  0.53595000  1
  O  O117  1  0.11110000  0.66610000  0.02821000  1
  O  O118  1  0.11990000  0.26580000  0.44847000  1
  O  O119  1  0.16000000  0.74160000  0.12229000  1
  O  O120  1  0.16260000  0.63790000  0.21745000  1
  O  O121  1  0.17380000  0.24640000  0.30451000  1
  O  O122  1  0.19630000  0.51920000  0.77842000  1
  O  O123  1  0.24760000  0.49460000  0.97135000  1
  O  O124  1  0.25240000  0.50540000  0.47135000  1
  O  O125  1  0.30370000  0.48080000  0.27842000  1
  O  O126  1  0.32620000  0.75360000  0.80451000  1
  O  O127  1  0.33740000  0.36210000  0.71745000  1
  O  O128  1  0.34000000  0.25840000  0.62229000  1
  O  O129  1  0.38010000  0.73420000  0.94847000  1
  O  O130  1  0.38890000  0.33390000  0.52821000  1
  O  O131  1  0.39050000  0.35180000  0.03595000  1
  O  O132  1  0.39080000  0.73460000  0.44059000  1
  O  O133  1  0.42880000  0.23910000  0.12746000  1
  O  O134  1  0.43720000  0.71520000  0.30666000  1
  O  O135  1  0.44400000  0.32240000  0.21804000  1
  O  O136  1  0.55600000  0.67760000  0.78196000  1
  O  O137  1  0.56280000  0.28480000  0.69334000  1
  O  O138  1  0.57120000  0.76090000  0.87254000  1
  O  O139  1  0.60920000  0.26540000  0.55941000  1
  O  O140  1  0.60950000  0.64820000  0.96405000  1
  O  O141  1  0.61110000  0.66610000  0.47179000  1
  O  O142  1  0.61990000  0.26580000  0.05153000  1
  O  O143  1  0.66000000  0.74160000  0.37771000  1
  O  O144  1  0.66260000  0.63790000  0.28255000  1
  O  O145  1  0.67380000  0.24640000  0.19549000  1
  O  O146  1  0.69630000  0.51920000  0.72158000  1
  O  O147  1  0.74760000  0.49460000  0.52865000  1
  O  O148  1  0.75240000  0.50540000  0.02865000  1
  O  O149  1  0.80370000  0.48080000  0.22158000  1
  O  O150  1  0.82620000  0.75360000  0.69549000  1
  O  O151  1  0.83740000  0.36210000  0.78255000  1
  O  O152  1  0.84000000  0.25840000  0.87771000  1
  O  O153  1  0.88010000  0.73420000  0.55153000  1
  O  O154  1  0.88890000  0.33390000  0.97179000  1
  O  O155  1  0.89050000  0.35180000  0.46405000  1
  O  O156  1  0.89080000  0.73460000  0.05941000  1
  O  O157  1  0.92880000  0.23910000  0.37254000  1
  O  O158  1  0.93720000  0.71520000  0.19334000  1
  O  O159  1  0.94400000  0.32240000  0.28196000  1
