# generated using pymatgen
data_InH4C8O5
_symmetry_space_group_name_H-M   'P 1'
_cell_length_a   12.30090000
_cell_length_b   12.55733185
_cell_length_c   12.55733185
_cell_angle_alpha   76.11972697
_cell_angle_beta   60.67324931
_cell_angle_gamma   60.67324931
_symmetry_Int_Tables_number   1
_chemical_formula_structural   InH4C8O5
_chemical_formula_sum   'In4 H16 C32 O20'
_cell_volume   1474.36801211
_cell_formula_units_Z   4
loop_
 _symmetry_equiv_pos_site_id
 _symmetry_equiv_pos_as_xyz
  1  'x, y, z'
loop_
 _atom_site_type_symbol
 _atom_site_label
 _atom_site_symmetry_multiplicity
 _atom_site_fract_x
 _atom_site_fract_y
 _atom_site_fract_z
 _atom_site_occupancy
  C  C0  1  0.78960000  0.00000000  0.00000000  1
  C  C1  1  0.55880000  0.00000000  0.00000000  1
  C  C2  1  0.44120000  0.00000000  0.00000000  1
  C  C3  1  0.21040000  0.00000000  0.00000000  1
  C  C4  1  0.96040000  0.50000000  0.50000000  1
  C  C5  1  0.53960000  0.50000000  0.50000000  1
  C  C6  1  0.30880000  0.50000000  0.50000000  1
  C  C7  1  0.19120000  0.50000000  0.50000000  1
  C  C8  1  0.17511000  0.39079000  0.52599000  1
  C  C9  1  0.05971000  0.39079000  0.52599000  1
  C  C10  1  0.77351000  0.02599000  0.89079000  1
  C  C11  1  0.65811000  0.02599000  0.89079000  1
  C  C12  1  0.54950000  0.39079000  0.47401000  1
  C  C13  1  0.43410000  0.39079000  0.47401000  1
  C  C14  1  0.45110000  0.97401000  0.89079000  1
  C  C15  1  0.33570000  0.97401000  0.89079000  1
  C  C16  1  0.04400000  0.27890000  0.55150000  1
  C  C17  1  0.87560000  0.05150000  0.77890000  1
  C  C18  1  0.67710000  0.27890000  0.44850000  1
  C  C19  1  0.34550000  0.94850000  0.77890000  1
  C  C20  1  0.07290000  0.05150000  0.22110000  1
  C  C21  1  0.40450000  0.72110000  0.55150000  1
  C  C22  1  0.70600000  0.94850000  0.22110000  1
  C  C23  1  0.87440000  0.72110000  0.44850000  1
  C  C24  1  0.31590000  0.02599000  0.10921000  1
  C  C25  1  0.20050000  0.02599000  0.10921000  1
  C  C26  1  0.41430000  0.60921000  0.52599000  1
  C  C27  1  0.29890000  0.60921000  0.52599000  1
  C  C28  1  0.69029000  0.97401000  0.10921000  1
  C  C29  1  0.57489000  0.97401000  0.10921000  1
  C  C30  1  0.09189000  0.60921000  0.47401000  1
  C  C31  1  0.97649000  0.60921000  0.47401000  1
  H  H32  1  0.87270000  0.00000000  0.00000000  1
  H  H33  1  0.12730000  0.00000000  0.00000000  1
  H  H34  1  0.87730000  0.50000000  0.50000000  1
  H  H35  1  0.62270000  0.50000000  0.50000000  1
  H  H36  1  0.24660000  0.31210000  0.54470000  1
  H  H37  1  0.64660000  0.04470000  0.81210000  1
  H  H38  1  0.44130000  0.31210000  0.45530000  1
  H  H39  1  0.54130000  0.95530000  0.81210000  1
  H  H40  1  0.56200000  0.06300000  0.56300000  1
  H  H41  1  0.37500000  0.06300000  0.43700000  1
  H  H42  1  0.87500000  0.93700000  0.56300000  1
  H  H43  1  0.18800000  0.93700000  0.43700000  1
  H  H44  1  0.30870000  0.04470000  0.18790000  1
  H  H45  1  0.20870000  0.68790000  0.54470000  1
  H  H46  1  0.50340000  0.95530000  0.18790000  1
  H  H47  1  0.10340000  0.68790000  0.45530000  1
  In  In48  1  0.93330000  0.13340000  0.50000000  1
  In  In49  1  0.18330000  0.00000000  0.63340000  1
  In  In50  1  0.81670000  0.00000000  0.36660000  1
  In  In51  1  0.56670000  0.86660000  0.50000000  1
  O  O52  1  0.09830000  0.19890000  0.61450000  1
  O  O53  1  0.83830000  0.11450000  0.69890000  1
  O  O54  1  0.97680000  0.26780000  0.50920000  1
  O  O55  1  0.99620000  0.00920000  0.76780000  1
  O  O56  1  0.75540000  0.26780000  0.49080000  1
  O  O57  1  0.23600000  0.99080000  0.76780000  1
  O  O58  1  0.70280000  0.19890000  0.38550000  1
  O  O59  1  0.46280000  0.88550000  0.69890000  1
  O  O60  1  0.62010000  0.00490000  0.50490000  1
  O  O61  1  0.37500000  0.00490000  0.49510000  1
  O  O62  1  0.87500000  0.99510000  0.50490000  1
  O  O63  1  0.12990000  0.99510000  0.49510000  1
  O  O64  1  0.04720000  0.11450000  0.30110000  1
  O  O65  1  0.28720000  0.80110000  0.61450000  1
  O  O66  1  0.99460000  0.00920000  0.23220000  1
  O  O67  1  0.51400000  0.73220000  0.50920000  1
  O  O68  1  0.77320000  0.99080000  0.23220000  1
  O  O69  1  0.75380000  0.73220000  0.49080000  1
  O  O70  1  0.65170000  0.88550000  0.30110000  1
  O  O71  1  0.91170000  0.80110000  0.38550000  1
