# generated using pymatgen
data_Co3H10C20O11
_symmetry_space_group_name_H-M   'P 1'
_cell_length_a   10.80600000
_cell_length_b   24.32900000
_cell_length_c   28.55400000
_cell_angle_alpha   90.00000000
_cell_angle_beta   90.00000000
_cell_angle_gamma   93.65800000
_symmetry_Int_Tables_number   1
_chemical_formula_structural   Co3H10C20O11
_chemical_formula_sum   'Co24 H80 C160 O88'
_cell_volume   7491.52902462
_cell_formula_units_Z   8
loop_
 _symmetry_equiv_pos_site_id
 _symmetry_equiv_pos_as_xyz
  1  'x, y, z'
loop_
 _atom_site_type_symbol
 _atom_site_label
 _atom_site_symmetry_multiplicity
 _atom_site_fract_x
 _atom_site_fract_y
 _atom_site_fract_z
 _atom_site_occupancy
  Co  Co0  1  0.29020000  0.46327000  0.63391000  1
  Co  Co1  1  0.29020000  0.96327000  0.86609000  1
  Co  Co2  1  0.30214000  0.03656000  0.63449000  1
  Co  Co3  1  0.30214000  0.53656000  0.86551000  1
  Co  Co4  1  0.41930000  0.41781000  0.08870000  1
  Co  Co5  1  0.41930000  0.91781000  0.41130000  1
  Co  Co6  1  0.42827000  0.46651000  0.95483000  1
  Co  Co7  1  0.42827000  0.96651000  0.54517000  1
  Co  Co8  1  0.43782000  0.03438000  0.95492000  1
  Co  Co9  1  0.43782000  0.53438000  0.54508000  1
  Co  Co10  1  0.44155000  0.08015000  0.08935000  1
  Co  Co11  1  0.44155000  0.58015000  0.41065000  1
  Co  Co12  1  0.55845000  0.41985000  0.58935000  1
  Co  Co13  1  0.55845000  0.91985000  0.91065000  1
  Co  Co14  1  0.56218000  0.46562000  0.45492000  1
  Co  Co15  1  0.56218000  0.96562000  0.04508000  1
  Co  Co16  1  0.57173000  0.03349000  0.45483000  1
  Co  Co17  1  0.57173000  0.53349000  0.04517000  1
  Co  Co18  1  0.58070000  0.08219000  0.58870000  1
  Co  Co19  1  0.58070000  0.58219000  0.91130000  1
  Co  Co20  1  0.69786000  0.46344000  0.13449000  1
  Co  Co21  1  0.69786000  0.96344000  0.36551000  1
  Co  Co22  1  0.70980000  0.03673000  0.13391000  1
  Co  Co23  1  0.70980000  0.53673000  0.36609000  1
  H  H24  1  0.05950000  0.48980000  0.07470000  1
  H  H25  1  0.05950000  0.98980000  0.42530000  1
  H  H26  1  0.06710000  0.00820000  0.07560000  1
  H  H27  1  0.06710000  0.50820000  0.42440000  1
  H  H28  1  0.07240000  0.35250000  0.51380000  1
  H  H29  1  0.07240000  0.85250000  0.98620000  1
  H  H30  1  0.08500000  0.38290000  0.98860000  1
  H  H31  1  0.08500000  0.88290000  0.51140000  1
  H  H32  1  0.11870000  0.14780000  0.51270000  1
  H  H33  1  0.11870000  0.64780000  0.98730000  1
  H  H34  1  0.12210000  0.11590000  0.99110000  1
  H  H35  1  0.12210000  0.61590000  0.50890000  1
  H  H36  1  0.23700000  0.31750000  0.29560000  1
  H  H37  1  0.23700000  0.81750000  0.20440000  1
  H  H38  1  0.25640000  0.39930000  0.49710000  1
  H  H39  1  0.25640000  0.89930000  0.00290000  1
  H  H40  1  0.26560000  0.17040000  0.29480000  1
  H  H41  1  0.26560000  0.67040000  0.20520000  1
  H  H42  1  0.28180000  0.34420000  0.21900000  1
  H  H43  1  0.28180000  0.84420000  0.28100000  1
  H  H44  1  0.28580000  0.10140000  0.49400000  1
  H  H45  1  0.28580000  0.60140000  0.00600000  1
  H  H46  1  0.31860000  0.15180000  0.22010000  1
  H  H47  1  0.31860000  0.65180000  0.27990000  1
  H  H48  1  0.34190000  0.35740000  0.35690000  1
  H  H49  1  0.34190000  0.85740000  0.14310000  1
  H  H50  1  0.36870000  0.13520000  0.35610000  1
  H  H51  1  0.36870000  0.63520000  0.14390000  1
  H  H52  1  0.41650000  0.44080000  0.76540000  1
  H  H53  1  0.41650000  0.94080000  0.73460000  1
  H  H54  1  0.42900000  0.24880000  0.04270000  1
  H  H55  1  0.42900000  0.74880000  0.45730000  1
  H  H56  1  0.43870000  0.05740000  0.76520000  1
  H  H57  1  0.43870000  0.55740000  0.73480000  1
  H  H58  1  0.47200000  0.32890000  0.42790000  1
  H  H59  1  0.47200000  0.82890000  0.07210000  1
  H  H60  1  0.47240000  0.24880000  0.88230000  1
  H  H61  1  0.47240000  0.74880000  0.61770000  1
  H  H62  1  0.48460000  0.33300000  0.92310000  1
  H  H63  1  0.48460000  0.83300000  0.57690000  1
  H  H64  1  0.51540000  0.16700000  0.42310000  1
  H  H65  1  0.51540000  0.66700000  0.07690000  1
  H  H66  1  0.52760000  0.25120000  0.38230000  1
  H  H67  1  0.52760000  0.75120000  0.11770000  1
  H  H68  1  0.52800000  0.17110000  0.92790000  1
  H  H69  1  0.52800000  0.67110000  0.57210000  1
  H  H70  1  0.56130000  0.44260000  0.26520000  1
  H  H71  1  0.56130000  0.94260000  0.23480000  1
  H  H72  1  0.57100000  0.25120000  0.54270000  1
  H  H73  1  0.57100000  0.75120000  0.95730000  1
  H  H74  1  0.58350000  0.05920000  0.26540000  1
  H  H75  1  0.58350000  0.55920000  0.23460000  1
  H  H76  1  0.63130000  0.36480000  0.85610000  1
  H  H77  1  0.63130000  0.86480000  0.64390000  1
  H  H78  1  0.65810000  0.14260000  0.85690000  1
  H  H79  1  0.65810000  0.64260000  0.64310000  1
  H  H80  1  0.68140000  0.34820000  0.72010000  1
  H  H81  1  0.68140000  0.84820000  0.77990000  1
  H  H82  1  0.71420000  0.39860000  0.99400000  1
  H  H83  1  0.71420000  0.89860000  0.50600000  1
  H  H84  1  0.71820000  0.15580000  0.71900000  1
  H  H85  1  0.71820000  0.65580000  0.78100000  1
  H  H86  1  0.73440000  0.32960000  0.79480000  1
  H  H87  1  0.73440000  0.82960000  0.70520000  1
  H  H88  1  0.74360000  0.10070000  0.99710000  1
  H  H89  1  0.74360000  0.60070000  0.50290000  1
  H  H90  1  0.76300000  0.18250000  0.79560000  1
  H  H91  1  0.76300000  0.68250000  0.70440000  1
  H  H92  1  0.87790000  0.38410000  0.49110000  1
  H  H93  1  0.87790000  0.88410000  0.00890000  1
  H  H94  1  0.88130000  0.35220000  0.01270000  1
  H  H95  1  0.88130000  0.85220000  0.48730000  1
  H  H96  1  0.91500000  0.11710000  0.48860000  1
  H  H97  1  0.91500000  0.61710000  0.01140000  1
  H  H98  1  0.92760000  0.14750000  0.01380000  1
  H  H99  1  0.92760000  0.64750000  0.48620000  1
  H  H100  1  0.93290000  0.49180000  0.57560000  1
  H  H101  1  0.93290000  0.99180000  0.92440000  1
  H  H102  1  0.94050000  0.01020000  0.57470000  1
  H  H103  1  0.94050000  0.51020000  0.92530000  1
  C  C104  1  0.01640000  0.40180000  0.98020000  1
  C  C105  1  0.01640000  0.90180000  0.51980000  1
  C  C106  1  0.02720000  0.44830000  0.95250000  1
  C  C107  1  0.02720000  0.94830000  0.54750000  1
  C  C108  1  0.04780000  0.05180000  0.95340000  1
  C  C109  1  0.04780000  0.55180000  0.54660000  1
  C  C110  1  0.04840000  0.09730000  0.98180000  1
  C  C111  1  0.04840000  0.59730000  0.51820000  1
  C  C112  1  0.06700000  0.47730000  0.44360000  1
  C  C113  1  0.06700000  0.97730000  0.05640000  1
  C  C114  1  0.07140000  0.38490000  0.49660000  1
  C  C115  1  0.07140000  0.88490000  0.00340000  1
  C  C116  1  0.07160000  0.02150000  0.44340000  1
  C  C117  1  0.07160000  0.52150000  0.05660000  1
  C  C118  1  0.10740000  0.11570000  0.49520000  1
  C  C119  1  0.10740000  0.61570000  0.00480000  1
  C  C120  1  0.15730000  0.46770000  0.93870000  1
  C  C121  1  0.15730000  0.96770000  0.56130000  1
  C  C122  1  0.16330000  0.03280000  0.94160000  1
  C  C123  1  0.16330000  0.53280000  0.55840000  1
  C  C124  1  0.17630000  0.46230000  0.46090000  1
  C  C125  1  0.17630000  0.96230000  0.03910000  1
  C  C126  1  0.18160000  0.41220000  0.48720000  1
  C  C127  1  0.18160000  0.91220000  0.01280000  1
  C  C128  1  0.19090000  0.03630000  0.46020000  1
  C  C129  1  0.19090000  0.53630000  0.03980000  1
  C  C130  1  0.20700000  0.08770000  0.48500000  1
  C  C131  1  0.20700000  0.58770000  0.01500000  1
  C  C132  1  0.29170000  0.49460000  0.45290000  1
  C  C133  1  0.29170000  0.99460000  0.04710000  1
  C  C134  1  0.29310000  0.00410000  0.45250000  1
  C  C135  1  0.29310000  0.50410000  0.04750000  1
  C  C136  1  0.30080000  0.34410000  0.28990000  1
  C  C137  1  0.30080000  0.84410000  0.21010000  1
  C  C138  1  0.33010000  0.14780000  0.28920000  1
  C  C139  1  0.33010000  0.64780000  0.21080000  1
  C  C140  1  0.33030000  0.35870000  0.24350000  1
  C  C141  1  0.33030000  0.85870000  0.25650000  1
  C  C142  1  0.36220000  0.13700000  0.24460000  1
  C  C143  1  0.36220000  0.63700000  0.25540000  1
  C  C144  1  0.36260000  0.36780000  0.32640000  1
  C  C145  1  0.36260000  0.86780000  0.17360000  1
  C  C146  1  0.39010000  0.12620000  0.32560000  1
  C  C147  1  0.39010000  0.62620000  0.17440000  1
  C  C148  1  0.42710000  0.39320000  0.23450000  1
  C  C149  1  0.42710000  0.89320000  0.26550000  1
  C  C150  1  0.43420000  0.35130000  0.01300000  1
  C  C151  1  0.43420000  0.85130000  0.48700000  1
  C  C152  1  0.44310000  0.24920000  0.01060000  1
  C  C153  1  0.44310000  0.74920000  0.48940000  1
  C  C154  1  0.44590000  0.29920000  0.98660000  1
  C  C155  1  0.44590000  0.79920000  0.51340000  1
  C  C156  1  0.45180000  0.43610000  0.85700000  1
  C  C157  1  0.45180000  0.93610000  0.64300000  1
  C  C158  1  0.45700000  0.40780000  0.31840000  1
  C  C159  1  0.45700000  0.90780000  0.18160000  1
  C  C160  1  0.45710000  0.10480000  0.23500000  1
  C  C161  1  0.45710000  0.60480000  0.26500000  1
  C  C162  1  0.46090000  0.20020000  0.98780000  1
  C  C163  1  0.46090000  0.70020000  0.51220000  1
  C  C164  1  0.46200000  0.14800000  0.01410000  1
  C  C165  1  0.46200000  0.64800000  0.48590000  1
  C  C166  1  0.46360000  0.40830000  0.18630000  1
  C  C167  1  0.46360000  0.90830000  0.31370000  1
  C  C168  1  0.47180000  0.06350000  0.85650000  1
  C  C169  1  0.47180000  0.56350000  0.64350000  1
  C  C170  1  0.47200000  0.29970000  0.93880000  1
  C  C171  1  0.47200000  0.79970000  0.56120000  1
  C  C172  1  0.47840000  0.25020000  0.91480000  1
  C  C173  1  0.47840000  0.75020000  0.58520000  1
  C  C174  1  0.48160000  0.41870000  0.77160000  1
  C  C175  1  0.48160000  0.91870000  0.72840000  1
  C  C176  1  0.48330000  0.09070000  0.31780000  1
  C  C177  1  0.48330000  0.59070000  0.18220000  1
  C  C178  1  0.49300000  0.41850000  0.27140000  1
  C  C179  1  0.49300000  0.91850000  0.22860000  1
  C  C180  1  0.49460000  0.09280000  0.18650000  1
  C  C181  1  0.49460000  0.59280000  0.31350000  1
  C  C182  1  0.49470000  0.20150000  0.94160000  1
  C  C183  1  0.49470000  0.70150000  0.55840000  1
  C  C184  1  0.50530000  0.29850000  0.44160000  1
  C  C185  1  0.50530000  0.79850000  0.05840000  1
  C  C186  1  0.50540000  0.40720000  0.68650000  1
  C  C187  1  0.50540000  0.90720000  0.81350000  1
  C  C188  1  0.50700000  0.08150000  0.77140000  1
  C  C189  1  0.50700000  0.58150000  0.72860000  1
  C  C190  1  0.51670000  0.40930000  0.81780000  1
  C  C191  1  0.51670000  0.90930000  0.68220000  1
  C  C192  1  0.51840000  0.08130000  0.27160000  1
  C  C193  1  0.51840000  0.58130000  0.22840000  1
  C  C194  1  0.52160000  0.24980000  0.41480000  1
  C  C195  1  0.52160000  0.74980000  0.08520000  1
  C  C196  1  0.52800000  0.20030000  0.43880000  1
  C  C197  1  0.52800000  0.70030000  0.06120000  1
  C  C198  1  0.52820000  0.43650000  0.35650000  1
  C  C199  1  0.52820000  0.93650000  0.14350000  1
  C  C200  1  0.53640000  0.09170000  0.68630000  1
  C  C201  1  0.53640000  0.59170000  0.81370000  1
  C  C202  1  0.53800000  0.35200000  0.51410000  1
  C  C203  1  0.53800000  0.85200000  0.98590000  1
  C  C204  1  0.53910000  0.29980000  0.48780000  1
  C  C205  1  0.53910000  0.79980000  0.01220000  1
  C  C206  1  0.54290000  0.39520000  0.73500000  1
  C  C207  1  0.54290000  0.89520000  0.76500000  1
  C  C208  1  0.54300000  0.09220000  0.81840000  1
  C  C209  1  0.54300000  0.59220000  0.68160000  1
  C  C210  1  0.54820000  0.06390000  0.35700000  1
  C  C211  1  0.54820000  0.56390000  0.14300000  1
  C  C212  1  0.55410000  0.20080000  0.48660000  1
  C  C213  1  0.55410000  0.70080000  0.01340000  1
  C  C214  1  0.55690000  0.25080000  0.51060000  1
  C  C215  1  0.55690000  0.75080000  0.98940000  1
  C  C216  1  0.56580000  0.14870000  0.51300000  1
  C  C217  1  0.56580000  0.64870000  0.98700000  1
  C  C218  1  0.57290000  0.10680000  0.73450000  1
  C  C219  1  0.57290000  0.60680000  0.76550000  1
  C  C220  1  0.60990000  0.37380000  0.82560000  1
  C  C221  1  0.60990000  0.87380000  0.67440000  1
  C  C222  1  0.63740000  0.13220000  0.82640000  1
  C  C223  1  0.63740000  0.63220000  0.67360000  1
  C  C224  1  0.63780000  0.36300000  0.74460000  1
  C  C225  1  0.63780000  0.86300000  0.75540000  1
  C  C226  1  0.66970000  0.14130000  0.74350000  1
  C  C227  1  0.66970000  0.64130000  0.75650000  1
  C  C228  1  0.66990000  0.35220000  0.78920000  1
  C  C229  1  0.66990000  0.85220000  0.71080000  1
  C  C230  1  0.69920000  0.15590000  0.78990000  1
  C  C231  1  0.69920000  0.65590000  0.71010000  1
  C  C232  1  0.70690000  0.49590000  0.95250000  1
  C  C233  1  0.70690000  0.99590000  0.54750000  1
  C  C234  1  0.70830000  0.00540000  0.95290000  1
  C  C235  1  0.70830000  0.50540000  0.54710000  1
  C  C236  1  0.79300000  0.41230000  0.98500000  1
  C  C237  1  0.79300000  0.91230000  0.51500000  1
  C  C238  1  0.80910000  0.46370000  0.96020000  1
  C  C239  1  0.80910000  0.96370000  0.53980000  1
  C  C240  1  0.81840000  0.08780000  0.98720000  1
  C  C241  1  0.81840000  0.58780000  0.51280000  1
  C  C242  1  0.82370000  0.03770000  0.96090000  1
  C  C243  1  0.82370000  0.53770000  0.53910000  1
  C  C244  1  0.83670000  0.46720000  0.44160000  1
  C  C245  1  0.83670000  0.96720000  0.05840000  1
  C  C246  1  0.84270000  0.03230000  0.43870000  1
  C  C247  1  0.84270000  0.53230000  0.06130000  1
  C  C248  1  0.89260000  0.38430000  0.99520000  1
  C  C249  1  0.89260000  0.88430000  0.50480000  1
  C  C250  1  0.92840000  0.47850000  0.94340000  1
  C  C251  1  0.92840000  0.97850000  0.55660000  1
  C  C252  1  0.92860000  0.11510000  0.99660000  1
  C  C253  1  0.92860000  0.61510000  0.50340000  1
  C  C254  1  0.93300000  0.02270000  0.94360000  1
  C  C255  1  0.93300000  0.52270000  0.55640000  1
  C  C256  1  0.95160000  0.40270000  0.48180000  1
  C  C257  1  0.95160000  0.90270000  0.01820000  1
  C  C258  1  0.95220000  0.44820000  0.45340000  1
  C  C259  1  0.95220000  0.94820000  0.04660000  1
  C  C260  1  0.97280000  0.05170000  0.45250000  1
  C  C261  1  0.97280000  0.55170000  0.04750000  1
  C  C262  1  0.98360000  0.09820000  0.48020000  1
  C  C263  1  0.98360000  0.59820000  0.01980000  1
  O  O264  1  0.15820000  0.49340000  0.59230000  1
  O  O265  1  0.15820000  0.99340000  0.90770000  1
  O  O266  1  0.16120000  0.00840000  0.59290000  1
  O  O267  1  0.16120000  0.50840000  0.90710000  1
  O  O268  1  0.24760000  0.44570000  0.95210000  1
  O  O269  1  0.24760000  0.94570000  0.54790000  1
  O  O270  1  0.26340000  0.05620000  0.95260000  1
  O  O271  1  0.26340000  0.55620000  0.54740000  1
  O  O272  1  0.28390000  0.46490000  0.07680000  1
  O  O273  1  0.28390000  0.96490000  0.42320000  1
  O  O274  1  0.29230000  0.03280000  0.07830000  1
  O  O275  1  0.29230000  0.53280000  0.42170000  1
  O  O276  1  0.36050000  0.45960000  0.84660000  1
  O  O277  1  0.36050000  0.95960000  0.65340000  1
  O  O278  1  0.37790000  0.03860000  0.84610000  1
  O  O279  1  0.37790000  0.53860000  0.65390000  1
  O  O280  1  0.38540000  0.48750000  0.47890000  1
  O  O281  1  0.38540000  0.98750000  0.02110000  1
  O  O282  1  0.38940000  0.01130000  0.47860000  1
  O  O283  1  0.38940000  0.51130000  0.02140000  1
  O  O284  1  0.39410000  0.39620000  0.15410000  1
  O  O285  1  0.39410000  0.89620000  0.34590000  1
  O  O286  1  0.40420000  0.42850000  0.68110000  1
  O  O287  1  0.40420000  0.92850000  0.81890000  1
  O  O288  1  0.40660000  0.34660000  0.05580000  1
  O  O289  1  0.40660000  0.84660000  0.44420000  1
  O  O290  1  0.40840000  0.45760000  0.57660000  1
  O  O291  1  0.40840000  0.95760000  0.92340000  1
  O  O292  1  0.41860000  0.04330000  0.57630000  1
  O  O293  1  0.41860000  0.54330000  0.92370000  1
  O  O294  1  0.42190000  0.09960000  0.15550000  1
  O  O295  1  0.42190000  0.59960000  0.34450000  1
  O  O296  1  0.43280000  0.06720000  0.68150000  1
  O  O297  1  0.43280000  0.56720000  0.81850000  1
  O  O298  1  0.43920000  0.15140000  0.05690000  1
  O  O299  1  0.43920000  0.65140000  0.44310000  1
  O  O300  1  0.45200000  0.39400000  0.99240000  1
  O  O301  1  0.45200000  0.89400000  0.50760000  1
  O  O302  1  0.48160000  0.10500000  0.99360000  1
  O  O303  1  0.48160000  0.60500000  0.50640000  1
  O  O304  1  0.48300000  0.43170000  0.39710000  1
  O  O305  1  0.48300000  0.93170000  0.10290000  1
  O  O306  1  0.49900000  0.43370000  0.89700000  1
  O  O307  1  0.49900000  0.93370000  0.60300000  1
  O  O308  1  0.50100000  0.06630000  0.39700000  1
  O  O309  1  0.50100000  0.56630000  0.10300000  1
  O  O310  1  0.51700000  0.06830000  0.89710000  1
  O  O311  1  0.51700000  0.56830000  0.60290000  1
  O  O312  1  0.51840000  0.39500000  0.49360000  1
  O  O313  1  0.51840000  0.89500000  0.00640000  1
  O  O314  1  0.54800000  0.10600000  0.49240000  1
  O  O315  1  0.54800000  0.60600000  0.00760000  1
  O  O316  1  0.56080000  0.34860000  0.55690000  1
  O  O317  1  0.56080000  0.84860000  0.94310000  1
  O  O318  1  0.56720000  0.43280000  0.18150000  1
  O  O319  1  0.56720000  0.93280000  0.31850000  1
  O  O320  1  0.57810000  0.40040000  0.65550000  1
  O  O321  1  0.57810000  0.90040000  0.84450000  1
  O  O322  1  0.58140000  0.45670000  0.07630000  1
  O  O323  1  0.58140000  0.95670000  0.42370000  1
  O  O324  1  0.59160000  0.04240000  0.07660000  1
  O  O325  1  0.59160000  0.54240000  0.42340000  1
  O  O326  1  0.59340000  0.15340000  0.55580000  1
  O  O327  1  0.59340000  0.65340000  0.94420000  1
  O  O328  1  0.59580000  0.07150000  0.18110000  1
  O  O329  1  0.59580000  0.57150000  0.31890000  1
  O  O330  1  0.60590000  0.10380000  0.65410000  1
  O  O331  1  0.60590000  0.60380000  0.84590000  1
  O  O332  1  0.61060000  0.48870000  0.97860000  1
  O  O333  1  0.61060000  0.98870000  0.52140000  1
  O  O334  1  0.61460000  0.01250000  0.97890000  1
  O  O335  1  0.61460000  0.51250000  0.52110000  1
  O  O336  1  0.62210000  0.46140000  0.34610000  1
  O  O337  1  0.62210000  0.96140000  0.15390000  1
  O  O338  1  0.63950000  0.04040000  0.34660000  1
  O  O339  1  0.63950000  0.54040000  0.15340000  1
  O  O340  1  0.70770000  0.46720000  0.57830000  1
  O  O341  1  0.70770000  0.96720000  0.92170000  1
  O  O342  1  0.71610000  0.03510000  0.57680000  1
  O  O343  1  0.71610000  0.53510000  0.92320000  1
  O  O344  1  0.73660000  0.44380000  0.45260000  1
  O  O345  1  0.73660000  0.94380000  0.04740000  1
  O  O346  1  0.75240000  0.05430000  0.45210000  1
  O  O347  1  0.75240000  0.55430000  0.04790000  1
  O  O348  1  0.83880000  0.49160000  0.09290000  1
  O  O349  1  0.83880000  0.99160000  0.40710000  1
  O  O350  1  0.84180000  0.00660000  0.09230000  1
  O  O351  1  0.84180000  0.50660000  0.40770000  1
