# generated using pymatgen
data_InH6C12(NO2)2
_symmetry_space_group_name_H-M   'P 1'
_cell_length_a   14.12270000
_cell_length_b   18.73910000
_cell_length_c   18.73922877
_cell_angle_alpha   113.91233778
_cell_angle_beta   104.54998584
_cell_angle_gamma   104.54900000
_symmetry_Int_Tables_number   1
_chemical_formula_structural   InH6C12(NO2)2
_chemical_formula_sum   'In6 H36 C72 N12 O24'
_cell_volume   4023.80318983
_cell_formula_units_Z   6
loop_
 _symmetry_equiv_pos_site_id
 _symmetry_equiv_pos_as_xyz
  1  'x, y, z'
loop_
 _atom_site_type_symbol
 _atom_site_label
 _atom_site_symmetry_multiplicity
 _atom_site_fract_x
 _atom_site_fract_y
 _atom_site_fract_z
 _atom_site_occupancy
  In  In0  1  0.66726000  0.48778000  0.56611000  1
  In  In1  1  0.60115000  0.92167000  0.43389000  1
  In  In2  1  0.10115000  0.43389000  0.92167000  1
  In  In3  1  0.67948000  0.51222000  0.07833000  1
  In  In4  1  0.17948000  0.07833000  0.51222000  1
  In  In5  1  0.16726000  0.56611000  0.48778000  1
  H  H6  1  0.21040000  0.90890000  0.20810000  1
  H  H7  1  0.88840000  0.11110000  0.75300000  1
  H  H8  1  0.82830000  0.44450000  0.67980000  1
  H  H9  1  0.30780000  0.83430000  0.15160000  1
  H  H10  1  0.30150000  0.29920000  0.09110000  1
  H  H11  1  0.38840000  0.75300000  0.11110000  1
  H  H12  1  0.00230000  0.79190000  0.70080000  1
  H  H13  1  0.47350000  0.31730000  0.16570000  1
  H  H14  1  0.97350000  0.07470000  0.66250000  1
  H  H15  1  0.64850000  0.76470000  0.32020000  1
  H  H16  1  0.14850000  0.32020000  0.76470000  1
  H  H17  1  0.63540000  0.35810000  0.24700000  1
  H  H18  1  0.47350000  0.66250000  0.07470000  1
  H  H19  1  0.42540000  0.44750000  0.00880000  1
  H  H20  1  0.97790000  0.56130000  0.55250000  1
  H  H21  1  0.81100000  0.41220000  0.33750000  1
  H  H22  1  0.15620000  0.84840000  0.68270000  1
  H  H23  1  0.92540000  0.00880000  0.44750000  1
  H  H24  1  0.80150000  0.09110000  0.29920000  1
  H  H25  1  0.27730000  0.88890000  0.64190000  1
  H  H26  1  0.88380000  0.55550000  0.23530000  1
  H  H27  1  0.97350000  0.16570000  0.31730000  1
  H  H28  1  0.50230000  0.70080000  0.79190000  1
  H  H29  1  0.13540000  0.24700000  0.35810000  1
  H  H30  1  0.71040000  0.20810000  0.90890000  1
  H  H31  1  0.65620000  0.68270000  0.84840000  1
  H  H32  1  0.39880000  0.92530000  0.58780000  1
  H  H33  1  0.38380000  0.23530000  0.55550000  1
  H  H34  1  0.32830000  0.67980000  0.44450000  1
  H  H35  1  0.77730000  0.64190000  0.88890000  1
  H  H36  1  0.31100000  0.33750000  0.41220000  1
  H  H37  1  0.47790000  0.55250000  0.56130000  1
  H  H38  1  0.91660000  0.43870000  0.99120000  1
  H  H39  1  0.80780000  0.15160000  0.83430000  1
  H  H40  1  0.89880000  0.58780000  0.92530000  1
  H  H41  1  0.41660000  0.99120000  0.43870000  1
  C  C42  1  0.39268000  0.95817000  0.37987000  1
  C  C43  1  0.27030000  0.90990000  0.24400000  1
  C  C44  1  0.91345000  0.26580000  0.86605000  1
  C  C45  1  0.87460000  0.50860000  0.80560000  1
  C  C46  1  0.81830000  0.48500000  0.72300000  1
  C  C47  1  0.32740000  0.86460000  0.21010000  1
  C  C48  1  0.94710000  0.46710000  0.82310000  1
  C  C49  1  0.41345000  0.86605000  0.26580000  1
  C  C50  1  0.96980000  0.23700000  0.81100000  1
  C  C51  1  0.94180000  0.15340000  0.75450000  1
  C  C52  1  0.46980000  0.81100000  0.23700000  1
  C  C53  1  0.86910000  0.63100000  0.63100000  1
  C  C54  1  0.23810000  0.36900000  1.00000000  1
  C  C55  1  0.36040000  0.33410000  0.09010000  1
  C  C56  1  0.44180000  0.75450000  0.15340000  1
  C  C57  1  0.99170000  0.13150000  0.70050000  1
  C  C58  1  0.34670000  0.37420000  0.04430000  1
  C  C59  1  0.59530000  0.76200000  0.27700000  1
  C  C60  1  0.46280000  0.34550000  0.13540000  1
  C  C61  1  0.09533333  0.27700000  0.76200000  1
  C  C62  1  0.97250000  0.67010000  0.62580000  1
  C  C63  1  0.49170000  0.70050000  0.13150000  1
  C  C64  1  0.02630000  0.75600000  0.66590000  1
  C  C65  1  0.06900000  0.19440000  0.70300000  1
  C  C66  1  0.73810000  1.00000000  0.36900000  1
  C  C67  1  0.56900000  0.70300000  0.19440000  1
  C  C68  1  0.43451000  0.42170000  0.04183000  1
  C  C69  1  0.54740000  0.39975000  0.13395000  1
  C  C70  1  0.01281000  0.62013000  0.57830000  1
  C  C71  1  0.68730000  0.39890000  0.24550000  1
  C  C72  1  0.62400000  0.64400000  0.17690000  1
  C  C73  1  0.11730000  0.78990000  0.65450000  1
  C  C74  1  0.65880000  0.42600000  0.18900000  1
  C  C75  1  0.84670000  0.04430000  0.37420000  1
  C  C76  1  0.12400000  0.17690000  0.64400000  1
  C  C77  1  0.79120000  0.43100000  0.29950000  1
  C  C78  1  0.93451000  0.04183000  0.42170000  1
  C  C79  1  0.86040000  0.09010000  0.33410000  1
  C  C80  1  0.14765000  0.73420000  0.60025000  1
  C  C81  1  0.86600000  0.49140000  0.29700000  1
  C  C82  1  0.83330000  0.51500000  0.23800000  1
  C  C83  1  0.96280000  0.13540000  0.34550000  1
  C  C84  1  0.98000000  0.53290000  0.35600000  1
  C  C85  1  0.04740000  0.13395000  0.39975000  1
  C  C86  1  0.23280000  0.76300000  0.57400000  1
  C  C87  1  0.28840000  0.84660000  0.60110000  1
  C  C88  1  0.15880000  0.18900000  0.42600000  1
  C  C89  1  0.36910000  0.63100000  0.63100000  1
  C  C90  1  0.73810000  0.36900000  1.00000000  1
  C  C91  1  0.52630000  0.66590000  0.75600000  1
  C  C92  1  0.18730000  0.24550000  0.39890000  1
  C  C93  1  0.36020000  0.86850000  0.56900000  1
  C  C94  1  0.47250000  0.62580000  0.67010000  1
  C  C95  1  0.33330000  0.23800000  0.51500000  1
  C  C96  1  0.61730000  0.65450000  0.78990000  1
  C  C97  1  0.31830000  0.72300000  0.48500000  1
  C  C98  1  0.80240000  0.32990000  0.95570000  1
  C  C99  1  0.29120000  0.29950000  0.43100000  1
  C  C100  1  0.77030000  0.24400000  0.90990000  1
  C  C101  1  0.37460000  0.80560000  0.50860000  1
  C  C102  1  0.23810000  1.00000000  0.36900000  1
  C  C103  1  0.36600000  0.29700000  0.49140000  1
  C  C104  1  0.51281000  0.57830000  0.62013000  1
  C  C105  1  0.64765000  0.60025000  0.73420000  1
  C  C106  1  0.89268000  0.37987000  0.95817000  1
  C  C107  1  0.78840000  0.60110000  0.84660000  1
  C  C108  1  0.48000000  0.35600000  0.53290000  1
  C  C109  1  0.82740000  0.21010000  0.86460000  1
  C  C110  1  0.73280000  0.57400000  0.76300000  1
  C  C111  1  0.30240000  0.95570000  0.32990000  1
  C  C112  1  0.44710000  0.82310000  0.46710000  1
  C  C113  1  0.86020000  0.56900000  0.86850000  1
  N  N114  1  0.94835000  0.34911000  0.91594000  1
  N  N115  1  0.74939000  0.51786000  0.70211000  1
  N  N116  1  0.44835000  0.91594000  0.34911000  1
  N  N117  1  0.04728000  0.29789000  0.81575000  1
  N  N118  1  0.54728000  0.81575000  0.29789000  1
  N  N119  1  0.53241000  0.43317000  0.08406000  1
  N  N120  1  0.09924000  0.65089000  0.56683000  1
  N  N121  1  0.73153000  0.48214000  0.18425000  1
  N  N122  1  0.03241000  0.08406000  0.43317000  1
  N  N123  1  0.24939000  0.70211000  0.51786000  1
  N  N124  1  0.23153000  0.18425000  0.48214000  1
  N  N125  1  0.59924000  0.56683000  0.65089000  1
  O  O126  1  0.51055000  0.90045000  0.50210000  1
  O  O127  1  0.50845000  0.39835000  0.49790000  1
  O  O128  1  0.44280000  0.76720000  0.40330000  1
  O  O129  1  0.01055000  0.50210000  0.90045000  1
  O  O130  1  0.83690000  0.67490000  0.67770000  1
  O  O131  1  0.15920000  0.32230000  0.99720000  1
  O  O132  1  0.94280000  0.40330000  0.76720000  1
  O  O133  1  0.82221000  0.55206000  0.58187000  1
  O  O134  1  0.24034000  0.41813000  0.97019000  1
  O  O135  1  0.74034000  0.97019000  0.41813000  1
  O  O136  1  0.65920000  0.99720000  0.32230000  1
  O  O137  1  0.67560000  0.63610000  0.23280000  1
  O  O138  1  0.11010000  0.09955000  0.60165000  1
  O  O139  1  0.61010000  0.60165000  0.09955000  1
  O  O140  1  0.17560000  0.23280000  0.63610000  1
  O  O141  1  0.00845000  0.49790000  0.39835000  1
  O  O142  1  0.66200000  0.32510000  0.00280000  1
  O  O143  1  0.33690000  0.67770000  0.67490000  1
  O  O144  1  0.03950000  0.59670000  0.36390000  1
  O  O145  1  0.77015000  0.44794000  0.02981000  1
  O  O146  1  0.32221000  0.58187000  0.55206000  1
  O  O147  1  0.27015000  0.02981000  0.44794000  1
  O  O148  1  0.16200000  0.00280000  0.32510000  1
  O  O149  1  0.53950000  0.36390000  0.59670000  1
