# generated using pymatgen
data_Cd2SiH16(C7O2)4
_symmetry_space_group_name_H-M   'P 1'
_cell_length_a   13.28100000
_cell_length_b   14.22630651
_cell_length_c   14.72295508
_cell_angle_alpha   116.47112364
_cell_angle_beta   114.26656729
_cell_angle_gamma   94.75481740
_symmetry_Int_Tables_number   1
_chemical_formula_structural   Cd2SiH16(C7O2)4
_chemical_formula_sum   'Cd4 Si2 H32 C56 O16'
_cell_volume   2146.02784546
_cell_formula_units_Z   2
loop_
 _symmetry_equiv_pos_site_id
 _symmetry_equiv_pos_as_xyz
  1  'x, y, z'
loop_
 _atom_site_type_symbol
 _atom_site_label
 _atom_site_symmetry_multiplicity
 _atom_site_fract_x
 _atom_site_fract_y
 _atom_site_fract_z
 _atom_site_occupancy
  C  C0  1  0.76676000  0.91626000  0.80618000  1
  C  C1  1  0.46058000  0.11008000  0.19382000  1
  C  C2  1  0.36666000  0.84356000  0.62812000  1
  C  C3  1  0.23854000  0.21544000  0.37188000  1
  C  C4  1  0.85461000  0.85931000  0.65144000  1
  C  C5  1  0.70317000  0.20787000  0.34856000  1
  C  C6  1  0.48522000  0.89092000  0.70384000  1
  C  C7  1  0.28138000  0.18708000  0.29616000  1
  C  C8  1  0.89960000  0.83130000  0.56760000  1
  C  C9  1  0.83200000  0.26370000  0.43240000  1
  C  C10  1  0.86217000  0.98927000  0.82914000  1
  C  C11  1  0.53303000  0.16013000  0.17086000  1
  C  C12  1  0.90556000  0.96156000  0.75332000  1
  C  C13  1  0.65224000  0.20824000  0.24668000  1
  C  C14  1  0.74378000  0.10538000  0.99960000  1
  C  C15  1  0.24418000  0.10578000  0.00040000  1
  C  C16  1  0.25629000  0.06599000  0.90086000  1
  C  C17  1  0.85543000  0.16513000  0.09914000  1
  C  C18  1  0.88768000  0.77628000  0.23394000  1
  C  C19  1  0.15374000  0.54234000  0.76606000  1
  C  C20  1  0.66950000  0.16530000  0.97972000  1
  C  C21  1  0.18978000  0.18558000  0.02028000  1
  C  C22  1  0.21441000  0.10481000  0.82578000  1
  C  C23  1  0.88863000  0.27903000  0.17422000  1
  C  C24  1  0.84085000  0.81705000  0.15232000  1
  C  C25  1  0.18853000  0.66473000  0.84768000  1
  C  C26  1  0.85155000  0.77535000  0.05336000  1
  C  C27  1  0.29819000  0.72199000  0.94664000  1
  C  C28  1  0.14845000  0.22465000  0.94664000  1
  C  C29  1  0.70181000  0.27801000  0.05336000  1
  C  C30  1  0.15915000  0.18295000  0.84768000  1
  C  C31  1  0.81147000  0.33527000  0.15232000  1
  C  C32  1  0.78559000  0.89519000  0.17422000  1
  C  C33  1  0.11137000  0.72097000  0.82578000  1
  C  C34  1  0.33050000  0.83470000  0.02028000  1
  C  C35  1  0.81022000  0.81442000  0.97972000  1
  C  C36  1  0.11232000  0.22372000  0.76606000  1
  C  C37  1  0.84626000  0.45766000  0.23394000  1
  C  C38  1  0.74371000  0.93401000  0.09914000  1
  C  C39  1  0.14457000  0.83487000  0.90086000  1
  C  C40  1  0.25622000  0.89462000  0.00040000  1
  C  C41  1  0.75582000  0.89422000  0.99960000  1
  C  C42  1  0.09444000  0.03844000  0.24668000  1
  C  C43  1  0.34776000  0.79176000  0.75332000  1
  C  C44  1  0.13783000  0.01073000  0.17086000  1
  C  C45  1  0.46697000  0.83987000  0.82914000  1
  C  C46  1  0.10040000  0.16870000  0.43240000  1
  C  C47  1  0.16800000  0.73630000  0.56760000  1
  C  C48  1  0.51478000  0.10908000  0.29616000  1
  C  C49  1  0.71862000  0.81292000  0.70384000  1
  C  C50  1  0.14539000  0.14069000  0.34856000  1
  C  C51  1  0.29683000  0.79213000  0.65144000  1
  C  C52  1  0.63334000  0.15644000  0.37188000  1
  C  C53  1  0.76146000  0.78456000  0.62812000  1
  C  C54  1  0.23324000  0.08374000  0.19382000  1
  C  C55  1  0.53942000  0.88992000  0.80618000  1
  Cd  Cd56  1  0.93380000  0.68380000  0.36760000  1
  Cd  Cd57  1  0.06620000  0.31620000  0.63240000  1
  Cd  Cd58  1  1.00000000  0.00000000  0.50000000  1
  Cd  Cd59  1  1.00000000  0.50000000  0.50000000  1
  H  H60  1  0.33330000  0.84630000  0.56040000  1
  H  H61  1  0.27290000  0.28590000  0.43960000  1
  H  H62  1  0.29300000  0.01270000  0.88480000  1
  H  H63  1  0.90820000  0.12790000  0.11520000  1
  H  H64  1  0.53080000  0.92490000  0.68580000  1
  H  H65  1  0.34500000  0.23910000  0.31420000  1
  H  H66  1  0.89800000  0.05900000  0.89760000  1
  H  H67  1  0.50040000  0.16140000  0.10240000  1
  H  H68  1  0.96990000  0.01270000  0.77160000  1
  H  H69  1  0.69830000  0.24110000  0.22840000  1
  H  H70  1  0.59500000  0.12790000  0.91400000  1
  H  H71  1  0.18100000  0.21390000  0.08600000  1
  H  H72  1  0.22380000  0.07780000  0.76040000  1
  H  H73  1  0.96340000  0.31740000  0.23960000  1
  H  H74  1  0.88690000  0.72090000  0.03660000  1
  H  H75  1  0.35030000  0.68430000  0.96340000  1
  H  H76  1  0.11310000  0.27910000  0.96340000  1
  H  H77  1  0.64970000  0.31570000  0.03660000  1
  H  H78  1  0.77620000  0.92220000  0.23960000  1
  H  H79  1  0.03660000  0.68260000  0.76040000  1
  H  H80  1  0.40500000  0.87210000  0.08600000  1
  H  H81  1  0.81900000  0.78610000  0.91400000  1
  H  H82  1  0.03010000  0.98730000  0.22840000  1
  H  H83  1  0.30170000  0.75890000  0.77160000  1
  H  H84  1  0.10200000  0.94100000  0.10240000  1
  H  H85  1  0.49960000  0.83860000  0.89760000  1
  H  H86  1  0.46920000  0.07510000  0.31420000  1
  H  H87  1  0.65500000  0.76090000  0.68580000  1
  H  H88  1  0.70700000  0.98730000  0.11520000  1
  H  H89  1  0.09180000  0.87210000  0.88480000  1
  H  H90  1  0.66670000  0.15370000  0.43960000  1
  H  H91  1  0.72710000  0.71410000  0.56040000  1
  O  O92  1  0.12520000  0.75263000  0.48388000  1
  O  O93  1  0.14132000  0.26875000  0.51612000  1
  O  O94  1  0.92210000  0.69490000  0.20680000  1
  O  O95  1  0.21530000  0.48810000  0.79320000  1
  O  O96  1  0.97347000  0.90592000  0.58372000  1
  O  O97  1  0.88975000  0.32220000  0.41628000  1
  O  O98  1  0.88962000  0.82569000  0.33132000  1
  O  O99  1  0.05830000  0.49437000  0.66868000  1
  O  O100  1  0.11038000  0.17431000  0.66868000  1
  O  O101  1  0.94170000  0.50563000  0.33132000  1
  O  O102  1  0.02653000  0.09408000  0.41628000  1
  O  O103  1  0.11025000  0.67780000  0.58372000  1
  O  O104  1  0.07790000  0.30510000  0.79320000  1
  O  O105  1  0.78470000  0.51190000  0.20680000  1
  O  O106  1  0.87480000  0.24737000  0.51612000  1
  O  O107  1  0.85868000  0.73125000  0.48388000  1
  Si  Si108  1  0.70157000  0.95157000  0.90314000  1
  Si  Si109  1  0.29843000  0.04843000  0.09686000  1
