# generated using pymatgen
data_In2H20C37O20
_symmetry_space_group_name_H-M   'P 1'
_cell_length_a   12.26200000
_cell_length_b   13.57200000
_cell_length_c   24.93400000
_cell_angle_alpha   90.00000000
_cell_angle_beta   90.00000000
_cell_angle_gamma   90.00000000
_symmetry_Int_Tables_number   1
_chemical_formula_structural   In2H20C37O20
_chemical_formula_sum   'In4 H40 C74 O40'
_cell_volume   4149.51288898
_cell_formula_units_Z   2
loop_
 _symmetry_equiv_pos_site_id
 _symmetry_equiv_pos_as_xyz
  1  'x, y, z'
loop_
 _atom_site_type_symbol
 _atom_site_label
 _atom_site_symmetry_multiplicity
 _atom_site_fract_x
 _atom_site_fract_y
 _atom_site_fract_z
 _atom_site_occupancy
  In  In0  1  0.00587000  0.00000000  0.50000000  1
  In  In1  1  0.50000000  0.08757000  0.75000000  1
  In  In2  1  0.50000000  0.91243000  0.25000000  1
  In  In3  1  0.99413000  0.00000000  0.00000000  1
  H  H4  1  0.00350000  0.30020000  0.61130000  1
  H  H5  1  0.00350000  0.69980000  0.38870000  1
  H  H6  1  0.02560000  0.35750000  0.19440000  1
  H  H7  1  0.02560000  0.64250000  0.80560000  1
  H  H8  1  0.04970000  0.26620000  0.36510000  1
  H  H9  1  0.04970000  0.73380000  0.63490000  1
  H  H10  1  0.05940000  0.43480000  0.32740000  1
  H  H11  1  0.05940000  0.56520000  0.67260000  1
  H  H12  1  0.12050000  0.42240000  0.74180000  1
  H  H13  1  0.12050000  0.57760000  0.25820000  1
  H  H14  1  0.15340000  0.49070000  0.21920000  1
  H  H15  1  0.15340000  0.50930000  0.78080000  1
  H  H16  1  0.23510000  0.34580000  0.77820000  1
  H  H17  1  0.23510000  0.65420000  0.22180000  1
  H  H18  1  0.25210000  0.03900000  0.36610000  1
  H  H19  1  0.25210000  0.96100000  0.63390000  1
  H  H20  1  0.26580000  0.22650000  0.24630000  1
  H  H21  1  0.26580000  0.77350000  0.75370000  1
  H  H22  1  0.26860000  0.13470000  0.89450000  1
  H  H23  1  0.26860000  0.86530000  0.10550000  1
  H  H24  1  0.73140000  0.13470000  0.60550000  1
  H  H25  1  0.73140000  0.86530000  0.39450000  1
  H  H26  1  0.73420000  0.22650000  0.25370000  1
  H  H27  1  0.73420000  0.77350000  0.74630000  1
  H  H28  1  0.74790000  0.03900000  0.13390000  1
  H  H29  1  0.74790000  0.96100000  0.86610000  1
  H  H30  1  0.76490000  0.34580000  0.72180000  1
  H  H31  1  0.76490000  0.65420000  0.27820000  1
  H  H32  1  0.84660000  0.49070000  0.28080000  1
  H  H33  1  0.84660000  0.50930000  0.71920000  1
  H  H34  1  0.87950000  0.42240000  0.75820000  1
  H  H35  1  0.87950000  0.57760000  0.24180000  1
  H  H36  1  0.94060000  0.43480000  0.17260000  1
  H  H37  1  0.94060000  0.56520000  0.82740000  1
  H  H38  1  0.95030000  0.26620000  0.13490000  1
  H  H39  1  0.95030000  0.73380000  0.86510000  1
  H  H40  1  0.97440000  0.35750000  0.30560000  1
  H  H41  1  0.97440000  0.64250000  0.69440000  1
  H  H42  1  0.99650000  0.30020000  0.88870000  1
  H  H43  1  0.99650000  0.69980000  0.11130000  1
  C  C44  1  0.00000000  0.47470000  0.25000000  1
  C  C45  1  0.00000000  0.52530000  0.75000000  1
  C  C46  1  0.03520000  0.39950000  0.29580000  1
  C  C47  1  0.03520000  0.60050000  0.70420000  1
  C  C48  1  0.06340000  0.28340000  0.87370000  1
  C  C49  1  0.06340000  0.71660000  0.12630000  1
  C  C50  1  0.07810000  0.13400000  0.93790000  1
  C  C51  1  0.07810000  0.86600000  0.06210000  1
  C  C52  1  0.08880000  0.10630000  0.42040000  1
  C  C53  1  0.08880000  0.89370000  0.57960000  1
  C  C54  1  0.09410000  0.46690000  0.76930000  1
  C  C55  1  0.09410000  0.53310000  0.23070000  1
  C  C56  1  0.10650000  0.23180000  0.34890000  1
  C  C57  1  0.10650000  0.76820000  0.65110000  1
  C  C58  1  0.10730000  0.34410000  0.82720000  1
  C  C59  1  0.10730000  0.65590000  0.17280000  1
  C  C60  1  0.12000000  0.20410000  0.89430000  1
  C  C61  1  0.12000000  0.79590000  0.10570000  1
  C  C62  1  0.14500000  0.14460000  0.37170000  1
  C  C63  1  0.14500000  0.85540000  0.62830000  1
  C  C64  1  0.15210000  0.26630000  0.30310000  1
  C  C65  1  0.15210000  0.73370000  0.69690000  1
  C  C66  1  0.20280000  0.31180000  0.80650000  1
  C  C67  1  0.20280000  0.68820000  0.19350000  1
  C  C68  1  0.22430000  0.17840000  0.87580000  1
  C  C69  1  0.22430000  0.82160000  0.12420000  1
  C  C70  1  0.22490000  0.09490000  0.34920000  1
  C  C71  1  0.22490000  0.90510000  0.65080000  1
  C  C72  1  0.23510000  0.20670000  0.27860000  1
  C  C73  1  0.23510000  0.79330000  0.72140000  1
  C  C74  1  0.25740000  0.22090000  0.82900000  1
  C  C75  1  0.25740000  0.77910000  0.17100000  1
  C  C76  1  0.26850000  0.12400000  0.30160000  1
  C  C77  1  0.26850000  0.87600000  0.69840000  1
  C  C78  1  0.35260000  0.18100000  0.79900000  1
  C  C79  1  0.35260000  0.81900000  0.20100000  1
  C  C80  1  0.35710000  0.03890000  0.27940000  1
  C  C81  1  0.35710000  0.96110000  0.72060000  1
  C  C82  1  0.64290000  0.03890000  0.22060000  1
  C  C83  1  0.64290000  0.96110000  0.77940000  1
  C  C84  1  0.64740000  0.18100000  0.70100000  1
  C  C85  1  0.64740000  0.81900000  0.29900000  1
  C  C86  1  0.73150000  0.12400000  0.19840000  1
  C  C87  1  0.73150000  0.87600000  0.80160000  1
  C  C88  1  0.74260000  0.22090000  0.67100000  1
  C  C89  1  0.74260000  0.77910000  0.32900000  1
  C  C90  1  0.76490000  0.20670000  0.22140000  1
  C  C91  1  0.76490000  0.79330000  0.77860000  1
  C  C92  1  0.77510000  0.09490000  0.15080000  1
  C  C93  1  0.77510000  0.90510000  0.84920000  1
  C  C94  1  0.77570000  0.17840000  0.62420000  1
  C  C95  1  0.77570000  0.82160000  0.37580000  1
  C  C96  1  0.79720000  0.31180000  0.69350000  1
  C  C97  1  0.79720000  0.68820000  0.30650000  1
  C  C98  1  0.84790000  0.26630000  0.19690000  1
  C  C99  1  0.84790000  0.73370000  0.80310000  1
  C  C100  1  0.85500000  0.14460000  0.12830000  1
  C  C101  1  0.85500000  0.85540000  0.87170000  1
  C  C102  1  0.88000000  0.20410000  0.60570000  1
  C  C103  1  0.88000000  0.79590000  0.39430000  1
  C  C104  1  0.89270000  0.34410000  0.67280000  1
  C  C105  1  0.89270000  0.65590000  0.32720000  1
  C  C106  1  0.89350000  0.23180000  0.15110000  1
  C  C107  1  0.89350000  0.76820000  0.84890000  1
  C  C108  1  0.90590000  0.46690000  0.73070000  1
  C  C109  1  0.90590000  0.53310000  0.26930000  1
  C  C110  1  0.91120000  0.10630000  0.07960000  1
  C  C111  1  0.91120000  0.89370000  0.92040000  1
  C  C112  1  0.92190000  0.13400000  0.56210000  1
  C  C113  1  0.92190000  0.86600000  0.43790000  1
  C  C114  1  0.93660000  0.28340000  0.62630000  1
  C  C115  1  0.93660000  0.71660000  0.37370000  1
  C  C116  1  0.96480000  0.39950000  0.20420000  1
  C  C117  1  0.96480000  0.60050000  0.79580000  1
  O  O118  1  0.00260000  0.12470000  0.06703000  1
  O  O119  1  0.00260000  0.87530000  0.93297000  1
  O  O120  1  0.02790000  0.14910000  0.55333000  1
  O  O121  1  0.02790000  0.85090000  0.44667000  1
  O  O122  1  0.04930000  0.41460000  0.81290000  1
  O  O123  1  0.04930000  0.58540000  0.18710000  1
  O  O124  1  0.11850000  0.07110000  0.95310000  1
  O  O125  1  0.11850000  0.92890000  0.04690000  1
  O  O126  1  0.12340000  0.34130000  0.27370000  1
  O  O127  1  0.12340000  0.65870000  0.72630000  1
  O  O128  1  0.13940000  0.04180000  0.44960000  1
  O  O129  1  0.13940000  0.95820000  0.55040000  1
  O  O130  1  0.37640000  0.21230000  0.74300000  1
  O  O131  1  0.37640000  0.78770000  0.25700000  1
  O  O132  1  0.38840000  0.08250000  0.23070000  1
  O  O133  1  0.38840000  0.91750000  0.76930000  1
  O  O134  1  0.39970000  0.00650000  0.69730000  1
  O  O135  1  0.39970000  0.99350000  0.30270000  1
  O  O136  1  0.41770000  0.12420000  0.82460000  1
  O  O137  1  0.41770000  0.87580000  0.17540000  1
  O  O138  1  0.58230000  0.12420000  0.67540000  1
  O  O139  1  0.58230000  0.87580000  0.32460000  1
  O  O140  1  0.60030000  0.00650000  0.80270000  1
  O  O141  1  0.60030000  0.99350000  0.19730000  1
  O  O142  1  0.61160000  0.08250000  0.26930000  1
  O  O143  1  0.61160000  0.91750000  0.73070000  1
  O  O144  1  0.62360000  0.21230000  0.75700000  1
  O  O145  1  0.62360000  0.78770000  0.24300000  1
  O  O146  1  0.86060000  0.04180000  0.05040000  1
  O  O147  1  0.86060000  0.95820000  0.94960000  1
  O  O148  1  0.87660000  0.34130000  0.22630000  1
  O  O149  1  0.87660000  0.65870000  0.77370000  1
  O  O150  1  0.88150000  0.07110000  0.54690000  1
  O  O151  1  0.88150000  0.92890000  0.45310000  1
  O  O152  1  0.95070000  0.41460000  0.68710000  1
  O  O153  1  0.95070000  0.58540000  0.31290000  1
  O  O154  1  0.97210000  0.14910000  0.94667000  1
  O  O155  1  0.97210000  0.85090000  0.05333000  1
  O  O156  1  0.99740000  0.12470000  0.43297000  1
  O  O157  1  0.99740000  0.87530000  0.56703000  1
