# generated using pymatgen
data_SmCd5H120(C11O3)16
_symmetry_space_group_name_H-M   'P 1'
_cell_length_a   15.81300000
_cell_length_b   18.21300000
_cell_length_c   27.96100000
_cell_angle_alpha   104.73600000
_cell_angle_beta   91.53800000
_cell_angle_gamma   107.95500000
_symmetry_Int_Tables_number   1
_chemical_formula_structural   SmCd5H120(C11O3)16
_chemical_formula_sum   'Sm1 Cd5 H120 C176 O48'
_cell_volume   7360.03059239
_cell_formula_units_Z   1
loop_
 _symmetry_equiv_pos_site_id
 _symmetry_equiv_pos_as_xyz
  1  'x, y, z'
loop_
 _atom_site_type_symbol
 _atom_site_label
 _atom_site_symmetry_multiplicity
 _atom_site_fract_x
 _atom_site_fract_y
 _atom_site_fract_z
 _atom_site_occupancy
  Sm  Sm0  1  0.83018000  0.76644000  0.26823000  1
  Cd  Cd1  1  0.02269000  0.36610000  0.78257000  1
  Cd  Cd2  1  0.16982000  0.23356000  0.73177000  1
  Cd  Cd3  1  0.35875000  0.14671000  0.74135000  1
  Cd  Cd4  1  0.64125000  0.85329000  0.25865000  1
  Cd  Cd5  1  0.97731000  0.63390000  0.21743000  1
  H  H6  1  0.01160000  0.90180000  0.12790000  1
  H  H7  1  0.01490000  0.84920000  0.91270000  1
  H  H8  1  0.02030000  0.92860000  0.89900000  1
  H  H9  1  0.03190000  0.09260000  0.05680000  1
  H  H10  1  0.03610000  0.12550000  0.20910000  1
  H  H11  1  0.05290000  0.95370000  0.25620000  1
  H  H12  1  0.05810000  0.32170000  0.93530000  1
  H  H13  1  0.09400000  0.92490000  0.75640000  1
  H  H14  1  0.10510000  0.54120000  0.34470000  1
  H  H15  1  0.10770000  0.28860000  0.33170000  1
  H  H16  1  0.11340000  0.31460000  0.01210000  1
  H  H17  1  0.11500000  0.14930000  0.83690000  1
  H  H18  1  0.15600000  0.07840000  0.28790000  1
  H  H19  1  0.16840000  0.96390000  0.16440000  1
  H  H20  1  0.16900000  0.32850000  0.29590000  1
  H  H21  1  0.17490000  0.04230000  0.97810000  1
  H  H22  1  0.18000000  0.25240000  0.30820000  1
  H  H23  1  0.19250000  0.11080000  0.95150000  1
  H  H24  1  0.21220000  0.49090000  0.37460000  1
  H  H25  1  0.22000000  0.85800000  0.30960000  1
  H  H26  1  0.22090000  0.53250000  0.21780000  1
  H  H27  1  0.24690000  0.25860000  0.20670000  1
  H  H28  1  0.25390000  0.26150000  0.60200000  1
  H  H29  1  0.25470000  0.36450000  0.67600000  1
  H  H30  1  0.26220000  0.28160000  0.87660000  1
  H  H31  1  0.26870000  0.10940000  0.98790000  1
  H  H32  1  0.26950000  0.28220000  0.52570000  1
  H  H33  1  0.27950000  0.58450000  0.75580000  1
  H  H34  1  0.28870000  0.08800000  0.42260000  1
  H  H35  1  0.29010000  0.99040000  0.22150000  1
  H  H36  1  0.29530000  0.35100000  0.21620000  1
  H  H37  1  0.30000000  0.38660000  0.46450000  1
  H  H38  1  0.30910000  0.98590000  0.35410000  1
  H  H39  1  0.31660000  0.26470000  0.94690000  1
  H  H40  1  0.32920000  0.48860000  0.24950000  1
  H  H41  1  0.33140000  0.30280000  0.24620000  1
  H  H42  1  0.33270000  0.40350000  0.06200000  1
  H  H43  1  0.34000000  0.50340000  0.13970000  1
  H  H44  1  0.36310000  0.17280000  0.23680000  1
  H  H45  1  0.36950000  0.56890000  0.59850000  1
  H  H46  1  0.37060000  0.65040000  0.58900000  1
  H  H47  1  0.37320000  0.44110000  0.50900000  1
  H  H48  1  0.37990000  0.12750000  0.27500000  1
  H  H49  1  0.38320000  0.48230000  0.79240000  1
  H  H50  1  0.38470000  0.41160000  0.64150000  1
  H  H51  1  0.38670000  0.93700000  0.25100000  1
  H  H52  1  0.38940000  0.44510000  0.45450000  1
  H  H53  1  0.40040000  0.98410000  0.09660000  1
  H  H54  1  0.40290000  0.11660000  0.57510000  1
  H  H55  1  0.40800000  0.63530000  0.72200000  1
  H  H56  1  0.41140000  0.12960000  0.49600000  1
  H  H57  1  0.43120000  0.21950000  0.28470000  1
  H  H58  1  0.43640000  0.60680000  0.56420000  1
  H  H59  1  0.43990000  0.62480000  0.18410000  1
  H  H60  1  0.44890000  0.51980000  0.31120000  1
  H  H61  1  0.45060000  0.21180000  0.17520000  1
  H  H62  1  0.47710000  0.13370000  0.16650000  1
  H  H63  1  0.48310000  0.80430000  0.86370000  1
  H  H64  1  0.48650000  0.60540000  0.82870000  1
  H  H65  1  0.49820000  0.92390000  0.12390000  1
  H  H66  1  0.50180000  0.07610000  0.87610000  1
  H  H67  1  0.51350000  0.39460000  0.17130000  1
  H  H68  1  0.51690000  0.19570000  0.13630000  1
  H  H69  1  0.52290000  0.86630000  0.83350000  1
  H  H70  1  0.54940000  0.78820000  0.82480000  1
  H  H71  1  0.55110000  0.48020000  0.68880000  1
  H  H72  1  0.56010000  0.37520000  0.81590000  1
  H  H73  1  0.56360000  0.39320000  0.43580000  1
  H  H74  1  0.56880000  0.78050000  0.71530000  1
  H  H75  1  0.58860000  0.87040000  0.50400000  1
  H  H76  1  0.59200000  0.36470000  0.27800000  1
  H  H77  1  0.59710000  0.88340000  0.42490000  1
  H  H78  1  0.59960000  0.01590000  0.90340000  1
  H  H79  1  0.61060000  0.55490000  0.54550000  1
  H  H80  1  0.61330000  0.06300000  0.74900000  1
  H  H81  1  0.61530000  0.58840000  0.35850000  1
  H  H82  1  0.61680000  0.51770000  0.20760000  1
  H  H83  1  0.62010000  0.87250000  0.72500000  1
  H  H84  1  0.62680000  0.55890000  0.49100000  1
  H  H85  1  0.62940000  0.34960000  0.41100000  1
  H  H86  1  0.63050000  0.43110000  0.40150000  1
  H  H87  1  0.63690000  0.82720000  0.76320000  1
  H  H88  1  0.66000000  0.49660000  0.86030000  1
  H  H89  1  0.66730000  0.59650000  0.93800000  1
  H  H90  1  0.66860000  0.69720000  0.75380000  1
  H  H91  1  0.67080000  0.51140000  0.75050000  1
  H  H92  1  0.68340000  0.73530000  0.05310000  1
  H  H93  1  0.69090000  0.01410000  0.64590000  1
  H  H94  1  0.70000000  0.61340000  0.53550000  1
  H  H95  1  0.70470000  0.64900000  0.78380000  1
  H  H96  1  0.70990000  0.00960000  0.77850000  1
  H  H97  1  0.71130000  0.91200000  0.57740000  1
  H  H98  1  0.72050000  0.41550000  0.24420000  1
  H  H99  1  0.73050000  0.71780000  0.47430000  1
  H  H100  1  0.73130000  0.89060000  0.01210000  1
  H  H101  1  0.73780000  0.71840000  0.12340000  1
  H  H102  1  0.74530000  0.63550000  0.32400000  1
  H  H103  1  0.74610000  0.73850000  0.39800000  1
  H  H104  1  0.75310000  0.74140000  0.79330000  1
  H  H105  1  0.77910000  0.46750000  0.78220000  1
  H  H106  1  0.78000000  0.14200000  0.69040000  1
  H  H107  1  0.78780000  0.50910000  0.62540000  1
  H  H108  1  0.80750000  0.88920000  0.04850000  1
  H  H109  1  0.82000000  0.74760000  0.69180000  1
  H  H110  1  0.82510000  0.95770000  0.02190000  1
  H  H111  1  0.83100000  0.67150000  0.70410000  1
  H  H112  1  0.83160000  0.03610000  0.83560000  1
  H  H113  1  0.84400000  0.92160000  0.71210000  1
  H  H114  1  0.88500000  0.85070000  0.16310000  1
  H  H115  1  0.88660000  0.68540000  0.98790000  1
  H  H116  1  0.89230000  0.71140000  0.66830000  1
  H  H117  1  0.89490000  0.45880000  0.65530000  1
  H  H118  1  0.90600000  0.07510000  0.24360000  1
  H  H119  1  0.94190000  0.67830000  0.06470000  1
  H  H120  1  0.94710000  0.04630000  0.74380000  1
  H  H121  1  0.96390000  0.87450000  0.79090000  1
  H  H122  1  0.96810000  0.90740000  0.94320000  1
  H  H123  1  0.97970000  0.07140000  0.10100000  1
  H  H124  1  0.98510000  0.15080000  0.08730000  1
  H  H125  1  0.98840000  0.09820000  0.87210000  1
  C  C126  1  0.00550000  0.07060000  0.20010000  1
  C  C127  1  0.00920000  0.06390000  0.84840000  1
  C  C128  1  0.01680000  0.11430000  0.08920000  1
  C  C129  1  0.03650000  0.01820000  0.16570000  1
  C  C130  1  0.06010000  0.81090000  0.25900000  1
  C  C131  1  0.07200000  0.95980000  0.77890000  1
  C  C132  1  0.08460000  0.09430000  0.82740000  1
  C  C133  1  0.08710000  0.57200000  0.25680000  1
  C  C134  1  0.10620000  0.95960000  0.27400000  1
  C  C135  1  0.11320000  0.31410000  0.93850000  1
  C  C136  1  0.11680000  0.04250000  0.79130000  1
  C  C137  1  0.12550000  0.89170000  0.27850000  1
  C  C138  1  0.12640000  0.04650000  0.14730000  1
  C  C139  1  0.12770000  0.32540000  0.85490000  1
  C  C140  1  0.14530000  0.30760000  0.98480000  1
  C  C141  1  0.14870000  0.52960000  0.32530000  1
  C  C142  1  0.15250000  0.11350000  0.12830000  1
  C  C143  1  0.15400000  0.54110000  0.27710000  1
  C  C144  1  0.16020000  0.30950000  0.89970000  1
  C  C145  1  0.16500000  0.03440000  0.29550000  1
  C  C146  1  0.16660000  0.30110000  0.32120000  1
  C  C147  1  0.17420000  0.43210000  0.74480000  1
  C  C148  1  0.18710000  0.00950000  0.15300000  1
  C  C149  1  0.19960000  0.07530000  0.76960000  1
  C  C150  1  0.20420000  0.90240000  0.30760000  1
  C  C151  1  0.20540000  0.09820000  0.98160000  1
  C  C152  1  0.21400000  0.49890000  0.34300000  1
  C  C153  1  0.21890000  0.52500000  0.24950000  1
  C  C154  1  0.22370000  0.29090000  0.98870000  1
  C  C155  1  0.23170000  0.28960000  0.90440000  1
  C  C156  1  0.23790000  0.21570000  0.05290000  1
  C  C157  1  0.23870000  0.04650000  0.32900000  1
  C  C158  1  0.24170000  0.14120000  0.11600000  1
  C  C159  1  0.25620000  0.46720000  0.71870000  1
  C  C160  1  0.25870000  0.97940000  0.33350000  1
  C  C161  1  0.25930000  0.28660000  0.03850000  1
  C  C162  1  0.26520000  0.27940000  0.94670000  1
  C  C163  1  0.27060000  0.21530000  0.09790000  1
  C  C164  1  0.27550000  0.03520000  0.14290000  1
  C  C165  1  0.27820000  0.48150000  0.31490000  1
  C  C166  1  0.28350000  0.49680000  0.26810000  1
  C  C167  1  0.28650000  0.23560000  0.58070000  1
  C  C168  1  0.28680000  0.41910000  0.68590000  1
  C  C169  1  0.28870000  0.12750000  0.36260000  1
  C  C170  1  0.29460000  0.24730000  0.53500000  1
  C  C171  1  0.29850000  0.09930000  0.12260000  1
  C  C172  1  0.30180000  0.55000000  0.73310000  1
  C  C173  1  0.30300000  0.13490000  0.41260000  1
  C  C174  1  0.30380000  0.30050000  0.21460000  1
  C  C175  1  0.31350000  0.19840000  0.34850000  1
  C  C176  1  0.31440000  0.17310000  0.64730000  1
  C  C177  1  0.31740000  0.38230000  0.35240000  1
  C  C178  1  0.31770000  0.35590000  0.07130000  1
  C  C179  1  0.32540000  0.18580000  0.59710000  1
  C  C180  1  0.32620000  0.28440000  0.12930000  1
  C  C181  1  0.33360000  0.97850000  0.20210000  1
  C  C182  1  0.33700000  0.20680000  0.44860000  1
  C  C183  1  0.33850000  0.99410000  0.15650000  1
  C  C184  1  0.34040000  0.44420000  0.33100000  1
  C  C185  1  0.34140000  0.20630000  0.50130000  1
  C  C186  1  0.35030000  0.27360000  0.38250000  1
  C  C187  1  0.35370000  0.35700000  0.11610000  1
  C  C188  1  0.36000000  0.27710000  0.43220000  1
  C  C189  1  0.36320000  0.41050000  0.47470000  1
  C  C190  1  0.36550000  0.44680000  0.66550000  1
  C  C191  1  0.37410000  0.14830000  0.56470000  1
  C  C192  1  0.37560000  0.17740000  0.27150000  1
  C  C193  1  0.37840000  0.34550000  0.36370000  1
  C  C194  1  0.37930000  0.58000000  0.71370000  1
  C  C195  1  0.38050000  0.15710000  0.51740000  1
  C  C196  1  0.39060000  0.94620000  0.21980000  1
  C  C197  1  0.39470000  0.50520000  0.15390000  1
  C  C198  1  0.39580000  0.33440000  0.77480000  1
  C  C199  1  0.39770000  0.97460000  0.12780000  1
  C  C200  1  0.40680000  0.61830000  0.59340000  1
  C  C201  1  0.41410000  0.43290000  0.14810000  1
  C  C202  1  0.41580000  0.52920000  0.68180000  1
  C  C203  1  0.43120000  0.47510000  0.32340000  1
  C  C204  1  0.43980000  0.48550000  0.80480000  1
  C  C205  1  0.45530000  0.92690000  0.19050000  1
  C  C206  1  0.45550000  0.57850000  0.18010000  1
  C  C207  1  0.45770000  0.93880000  0.14450000  1
  C  C208  1  0.46110000  0.41520000  0.79930000  1
  C  C209  1  0.46500000  0.17110000  0.15080000  1
  C  C210  1  0.46650000  0.37660000  0.35450000  1
  C  C211  1  0.47680000  0.10460000  0.78970000  1
  C  C212  1  0.49510000  0.44140000  0.33350000  1
  C  C213  1  0.49920000  0.44070000  0.17180000  1
  C  C214  1  0.50080000  0.55930000  0.82820000  1
  C  C215  1  0.50490000  0.55860000  0.66650000  1
  C  C216  1  0.52320000  0.89540000  0.21030000  1
  C  C217  1  0.53350000  0.62340000  0.64550000  1
  C  C218  1  0.53500000  0.82890000  0.84920000  1
  C  C219  1  0.53890000  0.58480000  0.20070000  1
  C  C220  1  0.54230000  0.06120000  0.85550000  1
  C  C221  1  0.54450000  0.42150000  0.81990000  1
  C  C222  1  0.54470000  0.07310000  0.80950000  1
  C  C223  1  0.56020000  0.51450000  0.19520000  1
  C  C224  1  0.56880000  0.52490000  0.67660000  1
  C  C225  1  0.58420000  0.47080000  0.31820000  1
  C  C226  1  0.58590000  0.56710000  0.85190000  1
  C  C227  1  0.59320000  0.38170000  0.40660000  1
  C  C228  1  0.60230000  0.02540000  0.87220000  1
  C  C229  1  0.60420000  0.66560000  0.22520000  1
  C  C230  1  0.60530000  0.49480000  0.84610000  1
  C  C231  1  0.60940000  0.05380000  0.78020000  1
  C  C232  1  0.61950000  0.84290000  0.48260000  1
  C  C233  1  0.62070000  0.42000000  0.28630000  1
  C  C234  1  0.62160000  0.65450000  0.63630000  1
  C  C235  1  0.62440000  0.82260000  0.72850000  1
  C  C236  1  0.62590000  0.85170000  0.43530000  1
  C  C237  1  0.63450000  0.55320000  0.33450000  1
  C  C238  1  0.63680000  0.58950000  0.52530000  1
  C  C239  1  0.64000000  0.72290000  0.56780000  1
  C  C240  1  0.64630000  0.64300000  0.88390000  1
  C  C241  1  0.64970000  0.72640000  0.61750000  1
  C  C242  1  0.65860000  0.79370000  0.49870000  1
  C  C243  1  0.65960000  0.55580000  0.66900000  1
  C  C244  1  0.66150000  0.00590000  0.84350000  1
  C  C245  1  0.66300000  0.79320000  0.55140000  1
  C  C246  1  0.66640000  0.02150000  0.79790000  1
  C  C247  1  0.67380000  0.71560000  0.87070000  1
  C  C248  1  0.67460000  0.81420000  0.40290000  1
  C  C249  1  0.68230000  0.64410000  0.92870000  1
  C  C250  1  0.68260000  0.61770000  0.64760000  1
  C  C251  1  0.68560000  0.82690000  0.35270000  1
  C  C252  1  0.68650000  0.80160000  0.65150000  1
  C  C253  1  0.69620000  0.69950000  0.78540000  1
  C  C254  1  0.69700000  0.86510000  0.58740000  1
  C  C255  1  0.69820000  0.45000000  0.26690000  1
  C  C256  1  0.70150000  0.90070000  0.87740000  1
  C  C257  1  0.70540000  0.75270000  0.46500000  1
  C  C258  1  0.71130000  0.87250000  0.63740000  1
  C  C259  1  0.71320000  0.58090000  0.31410000  1
  C  C260  1  0.71350000  0.76440000  0.41930000  1
  C  C261  1  0.71650000  0.50320000  0.73190000  1
  C  C262  1  0.72180000  0.51850000  0.68510000  1
  C  C263  1  0.72450000  0.96480000  0.85710000  1
  C  C264  1  0.72940000  0.78470000  0.90210000  1
  C  C265  1  0.73480000  0.72060000  0.05330000  1
  C  C266  1  0.74070000  0.71340000  0.96150000  1
  C  C267  1  0.74130000  0.02060000  0.66650000  1
  C  C268  1  0.74380000  0.53280000  0.28130000  1
  C  C269  1  0.75830000  0.85880000  0.88400000  1
  C  C270  1  0.76130000  0.95350000  0.67100000  1
  C  C271  1  0.76210000  0.78430000  0.94710000  1
  C  C272  1  0.76830000  0.71040000  0.09560000  1
  C  C273  1  0.77630000  0.70910000  0.01130000  1
  C  C274  1  0.78110000  0.47500000  0.75050000  1
  C  C275  1  0.78600000  0.50110000  0.65700000  1
  C  C276  1  0.79460000  0.90180000  0.01840000  1
  C  C277  1  0.79580000  0.09760000  0.69240000  1
  C  C278  1  0.80040000  0.92470000  0.23040000  1
  C  C279  1  0.81290000  0.99050000  0.84700000  1
  C  C280  1  0.82580000  0.56790000  0.25520000  1
  C  C281  1  0.83340000  0.69890000  0.67880000  1
  C  C282  1  0.83500000  0.96560000  0.70450000  1
  C  C283  1  0.83980000  0.69050000  0.10030000  1
  C  C284  1  0.84600000  0.45890000  0.72290000  1
  C  C285  1  0.84750000  0.88650000  0.87170000  1
  C  C286  1  0.85130000  0.47040000  0.67470000  1
  C  C287  1  0.85470000  0.69240000  0.01520000  1
  C  C288  1  0.87230000  0.67460000  0.14510000  1
  C  C289  1  0.87360000  0.95350000  0.85270000  1
  C  C290  1  0.87450000  0.10830000  0.72150000  1
  C  C291  1  0.88320000  0.95750000  0.20870000  1
  C  C292  1  0.88680000  0.68590000  0.06150000  1
  C  C293  1  0.89380000  0.04040000  0.72600000  1
  C  C294  1  0.91290000  0.42800000  0.74320000  1
  C  C295  1  0.91540000  0.90570000  0.17260000  1
  C  C296  1  0.92800000  0.04020000  0.22110000  1
  C  C297  1  0.93990000  0.18910000  0.74100000  1
  C  C298  1  0.96350000  0.98180000  0.83430000  1
  C  C299  1  0.98320000  0.88570000  0.91080000  1
  C  C300  1  0.99080000  0.93610000  0.15160000  1
  C  C301  1  0.99450000  0.92940000  0.79990000  1
  O  O302  1  0.02060000  0.19570000  0.74890000  1
  O  O303  1  0.03420000  0.59580000  0.28600000  1
  O  O304  1  0.06680000  0.35400000  0.85330000  1
  O  O305  1  0.08460000  0.57270000  0.21220000  1
  O  O306  1  0.08830000  0.75240000  0.24990000  1
  O  O307  1  0.09900000  0.15710000  0.12370000  1
  O  O308  1  0.13810000  0.35560000  0.73202000  1
  O  O309  1  0.14970000  0.47630000  0.77560000  1
  O  O310  1  0.16440000  0.29810000  0.81540000  1
  O  O311  1  0.17600000  0.14510000  0.02150000  1
  O  O312  1  0.22390000  0.15540000  0.77570000  1
  O  O313  1  0.22990000  0.35110000  0.36230000  1
  O  O314  1  0.24300000  0.03280000  0.74710000  1
  O  O315  1  0.27150000  0.21130000  0.67530000  1
  O  O316  1  0.30450000  0.19580000  0.29820000  1
  O  O317  1  0.31490000  0.32690000  0.76580000  1
  O  O318  1  0.35080000  0.12730000  0.65970000  1
  O  O319  1  0.36070000  0.28410000  0.17650000  1
  O  O320  1  0.38670000  0.12720000  0.11040000  1
  O  O321  1  0.40290000  0.34920000  0.46880000  1
  O  O322  1  0.42370000  0.27570000  0.76520000  1
  O  O323  1  0.42590000  0.12970000  0.81650000  1
  O  O324  1  0.47360000  0.66220000  0.63650000  1
  O  O325  1  0.47450000  0.10130000  0.74300000  1
  O  O326  1  0.52550000  0.89870000  0.25700000  1
  O  O327  1  0.52640000  0.33780000  0.36350000  1
  O  O328  1  0.57410000  0.87030000  0.18350000  1
  O  O329  1  0.57630000  0.72430000  0.23480000  1
  O  O330  1  0.59710000  0.65080000  0.53120000  1
  O  O331  1  0.61330000  0.87280000  0.88960000  1
  O  O332  1  0.63930000  0.71590000  0.82350000  1
  O  O333  1  0.64920000  0.87270000  0.34030000  1
  O  O334  1  0.68510000  0.67310000  0.23420000  1
  O  O335  1  0.69550000  0.80420000  0.70180000  1
  O  O336  1  0.72850000  0.78870000  0.32470000  1
  O  O337  1  0.75700000  0.96720000  0.25290000  1
  O  O338  1  0.77010000  0.64890000  0.63770000  1
  O  O339  1  0.77610000  0.84460000  0.22430000  1
  O  O340  1  0.82400000  0.85490000  0.97850000  1
  O  O341  1  0.83560000  0.70190000  0.18460000  1
  O  O342  1  0.85030000  0.52370000  0.22440000  1
  O  O343  1  0.86190000  0.64440000  0.26798000  1
  O  O344  1  0.90100000  0.84290000  0.87630000  1
  O  O345  1  0.91170000  0.24760000  0.75010000  1
  O  O346  1  0.91540000  0.42730000  0.78780000  1
  O  O347  1  0.93320000  0.64600000  0.14670000  1
  O  O348  1  0.96580000  0.40420000  0.71400000  1
  O  O349  1  0.97940000  0.80430000  0.25110000  1
