# generated using pymatgen
data_TbH18C24(NO3)2
_symmetry_space_group_name_H-M   'P 1'
_cell_length_a   10.03890000
_cell_length_b   17.74230000
_cell_length_c   19.74570000
_cell_angle_alpha   90.00000000
_cell_angle_beta   90.00000000
_cell_angle_gamma   90.00000000
_symmetry_Int_Tables_number   1
_chemical_formula_structural   TbH18C24(NO3)2
_chemical_formula_sum   'Tb4 H72 C96 N8 O24'
_cell_volume   3516.96932888
_cell_formula_units_Z   4
loop_
 _symmetry_equiv_pos_site_id
 _symmetry_equiv_pos_as_xyz
  1  'x, y, z'
loop_
 _atom_site_type_symbol
 _atom_site_label
 _atom_site_symmetry_multiplicity
 _atom_site_fract_x
 _atom_site_fract_y
 _atom_site_fract_z
 _atom_site_occupancy
  Tb  Tb0  1  0.03138000  0.75000000  0.25000000  1
  Tb  Tb1  1  0.46862000  0.25000000  0.75000000  1
  Tb  Tb2  1  0.53138000  0.75000000  0.25000000  1
  Tb  Tb3  1  0.96862000  0.25000000  0.75000000  1
  H  H4  1  0.01320000  0.72590000  0.55510000  1
  H  H5  1  0.01320000  0.77410000  0.94490000  1
  H  H6  1  0.02780000  0.24610000  0.94160000  1
  H  H7  1  0.02780000  0.25390000  0.55840000  1
  H  H8  1  0.05160000  0.06230000  0.81450000  1
  H  H9  1  0.05160000  0.43770000  0.68550000  1
  H  H10  1  0.12420000  0.63680000  0.04130000  1
  H  H11  1  0.12420000  0.86320000  0.45870000  1
  H  H12  1  0.12600000  0.50460000  0.59330000  1
  H  H13  1  0.12600000  0.99540000  0.90670000  1
  H  H14  1  0.13630000  0.15970000  0.11970000  1
  H  H15  1  0.13630000  0.34030000  0.38030000  1
  H  H16  1  0.17080000  0.61460000  0.92810000  1
  H  H17  1  0.17080000  0.88540000  0.57190000  1
  H  H18  1  0.19430000  0.56160000  0.50940000  1
  H  H19  1  0.19430000  0.93840000  0.99060000  1
  H  H20  1  0.23740000  0.12950000  0.58270000  1
  H  H21  1  0.23740000  0.37050000  0.91730000  1
  H  H22  1  0.26260000  0.62950000  0.41730000  1
  H  H23  1  0.26260000  0.87050000  0.08270000  1
  H  H24  1  0.30570000  0.06160000  0.49060000  1
  H  H25  1  0.30570000  0.43840000  0.00940000  1
  H  H26  1  0.32920000  0.11460000  0.07190000  1
  H  H27  1  0.32920000  0.38540000  0.42810000  1
  H  H28  1  0.36370000  0.65970000  0.88030000  1
  H  H29  1  0.36370000  0.84030000  0.61970000  1
  H  H30  1  0.37400000  0.00460000  0.40670000  1
  H  H31  1  0.37400000  0.49540000  0.09330000  1
  H  H32  1  0.37580000  0.13680000  0.95870000  1
  H  H33  1  0.37580000  0.36320000  0.54130000  1
  H  H34  1  0.44840000  0.56230000  0.18550000  1
  H  H35  1  0.44840000  0.93770000  0.31450000  1
  H  H36  1  0.47220000  0.74610000  0.05840000  1
  H  H37  1  0.47220000  0.75390000  0.44160000  1
  H  H38  1  0.48680000  0.22590000  0.44490000  1
  H  H39  1  0.48680000  0.27410000  0.05510000  1
  H  H40  1  0.51320000  0.72590000  0.94490000  1
  H  H41  1  0.51320000  0.77410000  0.55510000  1
  H  H42  1  0.52780000  0.24610000  0.55840000  1
  H  H43  1  0.52780000  0.25390000  0.94160000  1
  H  H44  1  0.55160000  0.06230000  0.68550000  1
  H  H45  1  0.55160000  0.43770000  0.81450000  1
  H  H46  1  0.62420000  0.63680000  0.45870000  1
  H  H47  1  0.62420000  0.86320000  0.04130000  1
  H  H48  1  0.62600000  0.50460000  0.90670000  1
  H  H49  1  0.62600000  0.99540000  0.59330000  1
  H  H50  1  0.63630000  0.15970000  0.38030000  1
  H  H51  1  0.63630000  0.34030000  0.11970000  1
  H  H52  1  0.67080000  0.61460000  0.57190000  1
  H  H53  1  0.67080000  0.88540000  0.92810000  1
  H  H54  1  0.69430000  0.56160000  0.99060000  1
  H  H55  1  0.69430000  0.93840000  0.50940000  1
  H  H56  1  0.73740000  0.12950000  0.91730000  1
  H  H57  1  0.73740000  0.37050000  0.58270000  1
  H  H58  1  0.76260000  0.62950000  0.08270000  1
  H  H59  1  0.76260000  0.87050000  0.41730000  1
  H  H60  1  0.80570000  0.06160000  0.00940000  1
  H  H61  1  0.80570000  0.43840000  0.49060000  1
  H  H62  1  0.82920000  0.11460000  0.42810000  1
  H  H63  1  0.82920000  0.38540000  0.07190000  1
  H  H64  1  0.86370000  0.65970000  0.61970000  1
  H  H65  1  0.86370000  0.84030000  0.88030000  1
  H  H66  1  0.87400000  0.00460000  0.09330000  1
  H  H67  1  0.87400000  0.49540000  0.40670000  1
  H  H68  1  0.87580000  0.13680000  0.54130000  1
  H  H69  1  0.87580000  0.36320000  0.95870000  1
  H  H70  1  0.94840000  0.56230000  0.31450000  1
  H  H71  1  0.94840000  0.93770000  0.18550000  1
  H  H72  1  0.97220000  0.74610000  0.44160000  1
  H  H73  1  0.97220000  0.75390000  0.05840000  1
  H  H74  1  0.98680000  0.22590000  0.05510000  1
  H  H75  1  0.98680000  0.27410000  0.44490000  1
  C  C76  1  0.00330000  0.06318000  0.85472000  1
  C  C77  1  0.00330000  0.43682000  0.64528000  1
  C  C78  1  0.02420000  0.52136000  0.47010000  1
  C  C79  1  0.02420000  0.97864000  0.02990000  1
  C  C80  1  0.04710000  0.02255000  0.90990000  1
  C  C81  1  0.04710000  0.47745000  0.59010000  1
  C  C82  1  0.06440000  0.20743000  0.03558000  1
  C  C83  1  0.06440000  0.29257000  0.46442000  1
  C  C84  1  0.08920000  0.21967000  0.96765000  1
  C  C85  1  0.08920000  0.28033000  0.53235000  1
  C  C86  1  0.14180000  0.56198000  0.47062000  1
  C  C87  1  0.14180000  0.93802000  0.02938000  1
  C  C88  1  0.15370000  0.16824000  0.07407000  1
  C  C89  1  0.15370000  0.33176000  0.42593000  1
  C  C90  1  0.18300000  0.60273000  0.41548000  1
  C  C91  1  0.18300000  0.89727000  0.08452000  1
  C  C92  1  0.20340000  0.65409000  0.02241000  1
  C  C93  1  0.20340000  0.84591000  0.47759000  1
  C  C94  1  0.20480000  0.19288000  0.93804000  1
  C  C95  1  0.20480000  0.30712000  0.56196000  1
  C  C96  1  0.22800000  0.20450000  0.86341000  1
  C  C97  1  0.22800000  0.29550000  0.63659000  1
  C  C98  1  0.23100000  0.64145000  0.95453000  1
  C  C99  1  0.23100000  0.85855000  0.54547000  1
  C  C100  1  0.26900000  0.14145000  0.04547000  1
  C  C101  1  0.26900000  0.35855000  0.45453000  1
  C  C102  1  0.27200000  0.70450000  0.13659000  1
  C  C103  1  0.27200000  0.79550000  0.36341000  1
  C  C104  1  0.29520000  0.69288000  0.06196000  1
  C  C105  1  0.29520000  0.80712000  0.43804000  1
  C  C106  1  0.29660000  0.15409000  0.97759000  1
  C  C107  1  0.29660000  0.34591000  0.52241000  1
  C  C108  1  0.31700000  0.10273000  0.58452000  1
  C  C109  1  0.31700000  0.39727000  0.91548000  1
  C  C110  1  0.34630000  0.66824000  0.92593000  1
  C  C111  1  0.34630000  0.83176000  0.57407000  1
  C  C112  1  0.35820000  0.06198000  0.52938000  1
  C  C113  1  0.35820000  0.43802000  0.97062000  1
  C  C114  1  0.41080000  0.71967000  0.03235000  1
  C  C115  1  0.41080000  0.78033000  0.46765000  1
  C  C116  1  0.43560000  0.70743000  0.96442000  1
  C  C117  1  0.43560000  0.79257000  0.53558000  1
  C  C118  1  0.45290000  0.52255000  0.09010000  1
  C  C119  1  0.45290000  0.97745000  0.40990000  1
  C  C120  1  0.47580000  0.02136000  0.52990000  1
  C  C121  1  0.47580000  0.47864000  0.97010000  1
  C  C122  1  0.49670000  0.56318000  0.14528000  1
  C  C123  1  0.49670000  0.93682000  0.35472000  1
  C  C124  1  0.50330000  0.06318000  0.64528000  1
  C  C125  1  0.50330000  0.43682000  0.85472000  1
  C  C126  1  0.52420000  0.52136000  0.02990000  1
  C  C127  1  0.52420000  0.97864000  0.47010000  1
  C  C128  1  0.54710000  0.02255000  0.59010000  1
  C  C129  1  0.54710000  0.47745000  0.90990000  1
  C  C130  1  0.56440000  0.20743000  0.46442000  1
  C  C131  1  0.56440000  0.29257000  0.03558000  1
  C  C132  1  0.58920000  0.21967000  0.53235000  1
  C  C133  1  0.58920000  0.28033000  0.96765000  1
  C  C134  1  0.64180000  0.56198000  0.02938000  1
  C  C135  1  0.64180000  0.93802000  0.47062000  1
  C  C136  1  0.65370000  0.16824000  0.42593000  1
  C  C137  1  0.65370000  0.33176000  0.07407000  1
  C  C138  1  0.68300000  0.60273000  0.08452000  1
  C  C139  1  0.68300000  0.89727000  0.41548000  1
  C  C140  1  0.70340000  0.65409000  0.47759000  1
  C  C141  1  0.70340000  0.84591000  0.02241000  1
  C  C142  1  0.70480000  0.19288000  0.56196000  1
  C  C143  1  0.70480000  0.30712000  0.93804000  1
  C  C144  1  0.72800000  0.20450000  0.63659000  1
  C  C145  1  0.72800000  0.29550000  0.86341000  1
  C  C146  1  0.73100000  0.64145000  0.54547000  1
  C  C147  1  0.73100000  0.85855000  0.95453000  1
  C  C148  1  0.76900000  0.14145000  0.45453000  1
  C  C149  1  0.76900000  0.35855000  0.04547000  1
  C  C150  1  0.77200000  0.70450000  0.36341000  1
  C  C151  1  0.77200000  0.79550000  0.13659000  1
  C  C152  1  0.79520000  0.69288000  0.43804000  1
  C  C153  1  0.79520000  0.80712000  0.06196000  1
  C  C154  1  0.79660000  0.15409000  0.52241000  1
  C  C155  1  0.79660000  0.34591000  0.97759000  1
  C  C156  1  0.81700000  0.10273000  0.91548000  1
  C  C157  1  0.81700000  0.39727000  0.58452000  1
  C  C158  1  0.84630000  0.66824000  0.57407000  1
  C  C159  1  0.84630000  0.83176000  0.92593000  1
  C  C160  1  0.85820000  0.06198000  0.97062000  1
  C  C161  1  0.85820000  0.43802000  0.52938000  1
  C  C162  1  0.91080000  0.71967000  0.46765000  1
  C  C163  1  0.91080000  0.78033000  0.03235000  1
  C  C164  1  0.93560000  0.70743000  0.53558000  1
  C  C165  1  0.93560000  0.79257000  0.96442000  1
  C  C166  1  0.95290000  0.52255000  0.40990000  1
  C  C167  1  0.95290000  0.97745000  0.09010000  1
  C  C168  1  0.97580000  0.02136000  0.97010000  1
  C  C169  1  0.97580000  0.47864000  0.52990000  1
  C  C170  1  0.99670000  0.56318000  0.35472000  1
  C  C171  1  0.99670000  0.93682000  0.14528000  1
  N  N172  1  0.10885000  0.60402000  0.35889000  1
  N  N173  1  0.10885000  0.89598000  0.14111000  1
  N  N174  1  0.39115000  0.10402000  0.64111000  1
  N  N175  1  0.39115000  0.39598000  0.85889000  1
  N  N176  1  0.60885000  0.60402000  0.14111000  1
  N  N177  1  0.60885000  0.89598000  0.35889000  1
  N  N178  1  0.89115000  0.10402000  0.85889000  1
  N  N179  1  0.89115000  0.39598000  0.64111000  1
  O  O180  1  0.12685000  0.21973000  0.82859000  1
  O  O181  1  0.12685000  0.28027000  0.67141000  1
  O  O182  1  0.14915000  0.64460000  0.30523000  1
  O  O183  1  0.14915000  0.85540000  0.19477000  1
  O  O184  1  0.15641000  0.69829000  0.15990000  1
  O  O185  1  0.15641000  0.80171000  0.34010000  1
  O  O186  1  0.34359000  0.19829000  0.84010000  1
  O  O187  1  0.34359000  0.30171000  0.65990000  1
  O  O188  1  0.35085000  0.14460000  0.69477000  1
  O  O189  1  0.35085000  0.35540000  0.80523000  1
  O  O190  1  0.37315000  0.71973000  0.17141000  1
  O  O191  1  0.37315000  0.78027000  0.32859000  1
  O  O192  1  0.62685000  0.21973000  0.67141000  1
  O  O193  1  0.62685000  0.28027000  0.82859000  1
  O  O194  1  0.64915000  0.64460000  0.19477000  1
  O  O195  1  0.64915000  0.85540000  0.30523000  1
  O  O196  1  0.65641000  0.69829000  0.34010000  1
  O  O197  1  0.65641000  0.80171000  0.15990000  1
  O  O198  1  0.84359000  0.19829000  0.65990000  1
  O  O199  1  0.84359000  0.30171000  0.84010000  1
  O  O200  1  0.85085000  0.14460000  0.80523000  1
  O  O201  1  0.85085000  0.35540000  0.69477000  1
  O  O202  1  0.87315000  0.71973000  0.32859000  1
  O  O203  1  0.87315000  0.78027000  0.17141000  1
