# generated using pymatgen
data_ZnPH4C7O5
_symmetry_space_group_name_H-M   'P 1'
_cell_length_a   10.48100000
_cell_length_b   23.98600000
_cell_length_c   23.98600000
_cell_angle_alpha   90.00000000
_cell_angle_beta   90.00000000
_cell_angle_gamma   90.00000000
_symmetry_Int_Tables_number   1
_chemical_formula_structural   ZnPH4C7O5
_chemical_formula_sum   'Zn16 P16 H64 C112 O80'
_cell_volume   6030.01482228
_cell_formula_units_Z   16
loop_
 _symmetry_equiv_pos_site_id
 _symmetry_equiv_pos_as_xyz
  1  'x, y, z'
loop_
 _atom_site_type_symbol
 _atom_site_label
 _atom_site_symmetry_multiplicity
 _atom_site_fract_x
 _atom_site_fract_y
 _atom_site_fract_z
 _atom_site_occupancy
  Zn  Zn0  1  0.11049000  0.07915000  0.97965000  1
  Zn  Zn1  1  0.11049000  0.42085000  0.52035000  1
  Zn  Zn2  1  0.11049000  0.52035000  0.07915000  1
  Zn  Zn3  1  0.11049000  0.97965000  0.42085000  1
  Zn  Zn4  1  0.38951000  0.07915000  0.52035000  1
  Zn  Zn5  1  0.38951000  0.42085000  0.97965000  1
  Zn  Zn6  1  0.38951000  0.52035000  0.42085000  1
  Zn  Zn7  1  0.38951000  0.97965000  0.07915000  1
  Zn  Zn8  1  0.61049000  0.02035000  0.92085000  1
  Zn  Zn9  1  0.61049000  0.47965000  0.57915000  1
  Zn  Zn10  1  0.61049000  0.57915000  0.02035000  1
  Zn  Zn11  1  0.61049000  0.92085000  0.47965000  1
  Zn  Zn12  1  0.88951000  0.02035000  0.57915000  1
  Zn  Zn13  1  0.88951000  0.47965000  0.92085000  1
  Zn  Zn14  1  0.88951000  0.57915000  0.47965000  1
  Zn  Zn15  1  0.88951000  0.92085000  0.02035000  1
  P  P16  1  0.08900000  0.08499000  0.51073000  1
  P  P17  1  0.08900000  0.41501000  0.98927000  1
  P  P18  1  0.08900000  0.51073000  0.41501000  1
  P  P19  1  0.08900000  0.98927000  0.08499000  1
  P  P20  1  0.41100000  0.08499000  0.98927000  1
  P  P21  1  0.41100000  0.41501000  0.51073000  1
  P  P22  1  0.41100000  0.51073000  0.08499000  1
  P  P23  1  0.41100000  0.98927000  0.41501000  1
  P  P24  1  0.58900000  0.01073000  0.58499000  1
  P  P25  1  0.58900000  0.48927000  0.91501000  1
  P  P26  1  0.58900000  0.58499000  0.48927000  1
  P  P27  1  0.58900000  0.91501000  0.01073000  1
  P  P28  1  0.91100000  0.01073000  0.91501000  1
  P  P29  1  0.91100000  0.48927000  0.58499000  1
  P  P30  1  0.91100000  0.58499000  0.01073000  1
  P  P31  1  0.91100000  0.91501000  0.48927000  1
  H  H32  1  0.07230000  0.09420000  0.28860000  1
  H  H33  1  0.07230000  0.21140000  0.09420000  1
  H  H34  1  0.07230000  0.28860000  0.40580000  1
  H  H35  1  0.07230000  0.40580000  0.21140000  1
  H  H36  1  0.08350000  0.19830000  0.54540000  1
  H  H37  1  0.08350000  0.30170000  0.95460000  1
  H  H38  1  0.08350000  0.54540000  0.30170000  1
  H  H39  1  0.08350000  0.95460000  0.19830000  1
  H  H40  1  0.09180000  0.14600000  0.20800000  1
  H  H41  1  0.09180000  0.20800000  0.35400000  1
  H  H42  1  0.09180000  0.29200000  0.14600000  1
  H  H43  1  0.09180000  0.35400000  0.29200000  1
  H  H44  1  0.09480000  0.10200000  0.12290000  1
  H  H45  1  0.09480000  0.12290000  0.39800000  1
  H  H46  1  0.09480000  0.37710000  0.10200000  1
  H  H47  1  0.09480000  0.39800000  0.37710000  1
  H  H48  1  0.40520000  0.10200000  0.37710000  1
  H  H49  1  0.40520000  0.12290000  0.10200000  1
  H  H50  1  0.40520000  0.37710000  0.39800000  1
  H  H51  1  0.40520000  0.39800000  0.12290000  1
  H  H52  1  0.40820000  0.14600000  0.29200000  1
  H  H53  1  0.40820000  0.20800000  0.14600000  1
  H  H54  1  0.40820000  0.29200000  0.35400000  1
  H  H55  1  0.40820000  0.35400000  0.20800000  1
  H  H56  1  0.41650000  0.19830000  0.95460000  1
  H  H57  1  0.41650000  0.30170000  0.54540000  1
  H  H58  1  0.41650000  0.54540000  0.19830000  1
  H  H59  1  0.41650000  0.95460000  0.30170000  1
  H  H60  1  0.42770000  0.09420000  0.21140000  1
  H  H61  1  0.42770000  0.21140000  0.40580000  1
  H  H62  1  0.42770000  0.28860000  0.09420000  1
  H  H63  1  0.42770000  0.40580000  0.28860000  1
  H  H64  1  0.57230000  0.59420000  0.71140000  1
  H  H65  1  0.57230000  0.71140000  0.90580000  1
  H  H66  1  0.57230000  0.78860000  0.59420000  1
  H  H67  1  0.57230000  0.90580000  0.78860000  1
  H  H68  1  0.58350000  0.04540000  0.69830000  1
  H  H69  1  0.58350000  0.45460000  0.80170000  1
  H  H70  1  0.58350000  0.69830000  0.45460000  1
  H  H71  1  0.58350000  0.80170000  0.04540000  1
  H  H72  1  0.59180000  0.64600000  0.79200000  1
  H  H73  1  0.59180000  0.70800000  0.64600000  1
  H  H74  1  0.59180000  0.79200000  0.85400000  1
  H  H75  1  0.59180000  0.85400000  0.70800000  1
  H  H76  1  0.59480000  0.60200000  0.87710000  1
  H  H77  1  0.59480000  0.62290000  0.60200000  1
  H  H78  1  0.59480000  0.87710000  0.89800000  1
  H  H79  1  0.59480000  0.89800000  0.62290000  1
  H  H80  1  0.90520000  0.60200000  0.62290000  1
  H  H81  1  0.90520000  0.62290000  0.89800000  1
  H  H82  1  0.90520000  0.87710000  0.60200000  1
  H  H83  1  0.90520000  0.89800000  0.87710000  1
  H  H84  1  0.90820000  0.64600000  0.70800000  1
  H  H85  1  0.90820000  0.70800000  0.85400000  1
  H  H86  1  0.90820000  0.79200000  0.64600000  1
  H  H87  1  0.90820000  0.85400000  0.79200000  1
  H  H88  1  0.91650000  0.04540000  0.80170000  1
  H  H89  1  0.91650000  0.45460000  0.69830000  1
  H  H90  1  0.91650000  0.69830000  0.04540000  1
  H  H91  1  0.91650000  0.80170000  0.45460000  1
  H  H92  1  0.92770000  0.59420000  0.78860000  1
  H  H93  1  0.92770000  0.71140000  0.59420000  1
  H  H94  1  0.92770000  0.78860000  0.90580000  1
  H  H95  1  0.92770000  0.90580000  0.71140000  1
  C  C96  1  0.07710000  0.19460000  0.98580000  1
  C  C97  1  0.07710000  0.30540000  0.51420000  1
  C  C98  1  0.07710000  0.51420000  0.19460000  1
  C  C99  1  0.07710000  0.98580000  0.30540000  1
  C  C100  1  0.07890000  0.07620000  0.25440000  1
  C  C101  1  0.07890000  0.24560000  0.07620000  1
  C  C102  1  0.07890000  0.25440000  0.42380000  1
  C  C103  1  0.07890000  0.42380000  0.24560000  1
  C  C104  1  0.07970000  0.01950000  0.25260000  1
  C  C105  1  0.07970000  0.24740000  0.01950000  1
  C  C106  1  0.07970000  0.25260000  0.48050000  1
  C  C107  1  0.07970000  0.48050000  0.24740000  1
  C  C108  1  0.08390000  0.20020000  0.50660000  1
  C  C109  1  0.08390000  0.29980000  0.99340000  1
  C  C110  1  0.08390000  0.50660000  0.29980000  1
  C  C111  1  0.08390000  0.99340000  0.20020000  1
  C  C112  1  0.08790000  0.10730000  0.20620000  1
  C  C113  1  0.08790000  0.20620000  0.39270000  1
  C  C114  1  0.08790000  0.29380000  0.10730000  1
  C  C115  1  0.08790000  0.39270000  0.29380000  1
  C  C116  1  0.08860000  0.02360000  0.15200000  1
  C  C117  1  0.08860000  0.15200000  0.47640000  1
  C  C118  1  0.08860000  0.34800000  0.02360000  1
  C  C119  1  0.08860000  0.47640000  0.34800000  1
  C  C120  1  0.09100000  0.08090000  0.15540000  1
  C  C121  1  0.09100000  0.15540000  0.41910000  1
  C  C122  1  0.09100000  0.34460000  0.08090000  1
  C  C123  1  0.09100000  0.41910000  0.34460000  1
  C  C124  1  0.40900000  0.08090000  0.34460000  1
  C  C125  1  0.40900000  0.15540000  0.08090000  1
  C  C126  1  0.40900000  0.34460000  0.41910000  1
  C  C127  1  0.40900000  0.41910000  0.15540000  1
  C  C128  1  0.41140000  0.02360000  0.34800000  1
  C  C129  1  0.41140000  0.15200000  0.02360000  1
  C  C130  1  0.41140000  0.34800000  0.47640000  1
  C  C131  1  0.41140000  0.47640000  0.15200000  1
  C  C132  1  0.41210000  0.10730000  0.29380000  1
  C  C133  1  0.41210000  0.20620000  0.10730000  1
  C  C134  1  0.41210000  0.29380000  0.39270000  1
  C  C135  1  0.41210000  0.39270000  0.20620000  1
  C  C136  1  0.41610000  0.20020000  0.99340000  1
  C  C137  1  0.41610000  0.29980000  0.50660000  1
  C  C138  1  0.41610000  0.50660000  0.20020000  1
  C  C139  1  0.41610000  0.99340000  0.29980000  1
  C  C140  1  0.42030000  0.01950000  0.24740000  1
  C  C141  1  0.42030000  0.24740000  0.48050000  1
  C  C142  1  0.42030000  0.25260000  0.01950000  1
  C  C143  1  0.42030000  0.48050000  0.25260000  1
  C  C144  1  0.42110000  0.07620000  0.24560000  1
  C  C145  1  0.42110000  0.24560000  0.42380000  1
  C  C146  1  0.42110000  0.25440000  0.07620000  1
  C  C147  1  0.42110000  0.42380000  0.25440000  1
  C  C148  1  0.42290000  0.19460000  0.51420000  1
  C  C149  1  0.42290000  0.30540000  0.98580000  1
  C  C150  1  0.42290000  0.51420000  0.30540000  1
  C  C151  1  0.42290000  0.98580000  0.19460000  1
  C  C152  1  0.57710000  0.01420000  0.80540000  1
  C  C153  1  0.57710000  0.48580000  0.69460000  1
  C  C154  1  0.57710000  0.69460000  0.01420000  1
  C  C155  1  0.57710000  0.80540000  0.48580000  1
  C  C156  1  0.57890000  0.57620000  0.74560000  1
  C  C157  1  0.57890000  0.74560000  0.92380000  1
  C  C158  1  0.57890000  0.75440000  0.57620000  1
  C  C159  1  0.57890000  0.92380000  0.75440000  1
  C  C160  1  0.57970000  0.51950000  0.74740000  1
  C  C161  1  0.57970000  0.74740000  0.98050000  1
  C  C162  1  0.57970000  0.75260000  0.51950000  1
  C  C163  1  0.57970000  0.98050000  0.75260000  1
  C  C164  1  0.58390000  0.00660000  0.70020000  1
  C  C165  1  0.58390000  0.49340000  0.79980000  1
  C  C166  1  0.58390000  0.70020000  0.49340000  1
  C  C167  1  0.58390000  0.79980000  0.00660000  1
  C  C168  1  0.58790000  0.60730000  0.79380000  1
  C  C169  1  0.58790000  0.70620000  0.60730000  1
  C  C170  1  0.58790000  0.79380000  0.89270000  1
  C  C171  1  0.58790000  0.89270000  0.70620000  1
  C  C172  1  0.58860000  0.52360000  0.84800000  1
  C  C173  1  0.58860000  0.65200000  0.52360000  1
  C  C174  1  0.58860000  0.84800000  0.97640000  1
  C  C175  1  0.58860000  0.97640000  0.65200000  1
  C  C176  1  0.59100000  0.58090000  0.84460000  1
  C  C177  1  0.59100000  0.65540000  0.58090000  1
  C  C178  1  0.59100000  0.84460000  0.91910000  1
  C  C179  1  0.59100000  0.91910000  0.65540000  1
  C  C180  1  0.90900000  0.58090000  0.65540000  1
  C  C181  1  0.90900000  0.65540000  0.91910000  1
  C  C182  1  0.90900000  0.84460000  0.58090000  1
  C  C183  1  0.90900000  0.91910000  0.84460000  1
  C  C184  1  0.91140000  0.52360000  0.65200000  1
  C  C185  1  0.91140000  0.65200000  0.97640000  1
  C  C186  1  0.91140000  0.84800000  0.52360000  1
  C  C187  1  0.91140000  0.97640000  0.84800000  1
  C  C188  1  0.91210000  0.60730000  0.70620000  1
  C  C189  1  0.91210000  0.70620000  0.89270000  1
  C  C190  1  0.91210000  0.79380000  0.60730000  1
  C  C191  1  0.91210000  0.89270000  0.79380000  1
  C  C192  1  0.91610000  0.00660000  0.79980000  1
  C  C193  1  0.91610000  0.49340000  0.70020000  1
  C  C194  1  0.91610000  0.70020000  0.00660000  1
  C  C195  1  0.91610000  0.79980000  0.49340000  1
  C  C196  1  0.92030000  0.51950000  0.75260000  1
  C  C197  1  0.92030000  0.74740000  0.51950000  1
  C  C198  1  0.92030000  0.75260000  0.98050000  1
  C  C199  1  0.92030000  0.98050000  0.74740000  1
  C  C200  1  0.92110000  0.57620000  0.75440000  1
  C  C201  1  0.92110000  0.74560000  0.57620000  1
  C  C202  1  0.92110000  0.75440000  0.92380000  1
  C  C203  1  0.92110000  0.92380000  0.74560000  1
  C  C204  1  0.92290000  0.01420000  0.69460000  1
  C  C205  1  0.92290000  0.48580000  0.80540000  1
  C  C206  1  0.92290000  0.69460000  0.48580000  1
  C  C207  1  0.92290000  0.80540000  0.01420000  1
  O  O208  1  0.02060000  0.05200000  0.91500000  1
  O  O209  1  0.02060000  0.44800000  0.58500000  1
  O  O210  1  0.02060000  0.58500000  0.05200000  1
  O  O211  1  0.02060000  0.91500000  0.44800000  1
  O  O212  1  0.06400000  0.01240000  0.34930000  1
  O  O213  1  0.06400000  0.15070000  0.01240000  1
  O  O214  1  0.06400000  0.34930000  0.48760000  1
  O  O215  1  0.06400000  0.48760000  0.15070000  1
  O  O216  1  0.07400000  0.03410000  0.04280000  1
  O  O217  1  0.07400000  0.04280000  0.46590000  1
  O  O218  1  0.07400000  0.45720000  0.03410000  1
  O  O219  1  0.07400000  0.46590000  0.45720000  1
  O  O220  1  0.08490000  0.19710000  0.93480000  1
  O  O221  1  0.08490000  0.30290000  0.56520000  1
  O  O222  1  0.08490000  0.56520000  0.19710000  1
  O  O223  1  0.08490000  0.93480000  0.30290000  1
  O  O224  1  0.21250000  0.07920000  0.54300000  1
  O  O225  1  0.21250000  0.42080000  0.95700000  1
  O  O226  1  0.21250000  0.54300000  0.42080000  1
  O  O227  1  0.21250000  0.95700000  0.07920000  1
  O  O228  1  0.28750000  0.07920000  0.95700000  1
  O  O229  1  0.28750000  0.42080000  0.54300000  1
  O  O230  1  0.28750000  0.54300000  0.07920000  1
  O  O231  1  0.28750000  0.95700000  0.42080000  1
  O  O232  1  0.41510000  0.19710000  0.56520000  1
  O  O233  1  0.41510000  0.30290000  0.93480000  1
  O  O234  1  0.41510000  0.56520000  0.30290000  1
  O  O235  1  0.41510000  0.93480000  0.19710000  1
  O  O236  1  0.42600000  0.03410000  0.45720000  1
  O  O237  1  0.42600000  0.04280000  0.03410000  1
  O  O238  1  0.42600000  0.45720000  0.46590000  1
  O  O239  1  0.42600000  0.46590000  0.04280000  1
  O  O240  1  0.43600000  0.01240000  0.15070000  1
  O  O241  1  0.43600000  0.15070000  0.48760000  1
  O  O242  1  0.43600000  0.34930000  0.01240000  1
  O  O243  1  0.43600000  0.48760000  0.34930000  1
  O  O244  1  0.47940000  0.05200000  0.58500000  1
  O  O245  1  0.47940000  0.44800000  0.91500000  1
  O  O246  1  0.47940000  0.58500000  0.44800000  1
  O  O247  1  0.47940000  0.91500000  0.05200000  1
  O  O248  1  0.52060000  0.08500000  0.94800000  1
  O  O249  1  0.52060000  0.41500000  0.55200000  1
  O  O250  1  0.52060000  0.55200000  0.08500000  1
  O  O251  1  0.52060000  0.94800000  0.41500000  1
  O  O252  1  0.56400000  0.51240000  0.65070000  1
  O  O253  1  0.56400000  0.65070000  0.98760000  1
  O  O254  1  0.56400000  0.84930000  0.51240000  1
  O  O255  1  0.56400000  0.98760000  0.84930000  1
  O  O256  1  0.57400000  0.53410000  0.95720000  1
  O  O257  1  0.57400000  0.54280000  0.53410000  1
  O  O258  1  0.57400000  0.95720000  0.96590000  1
  O  O259  1  0.57400000  0.96590000  0.54280000  1
  O  O260  1  0.58490000  0.06520000  0.80290000  1
  O  O261  1  0.58490000  0.43480000  0.69710000  1
  O  O262  1  0.58490000  0.69710000  0.06520000  1
  O  O263  1  0.58490000  0.80290000  0.43480000  1
  O  O264  1  0.71250000  0.04300000  0.57920000  1
  O  O265  1  0.71250000  0.45700000  0.92080000  1
  O  O266  1  0.71250000  0.57920000  0.45700000  1
  O  O267  1  0.71250000  0.92080000  0.04300000  1
  O  O268  1  0.78750000  0.04300000  0.92080000  1
  O  O269  1  0.78750000  0.45700000  0.57920000  1
  O  O270  1  0.78750000  0.57920000  0.04300000  1
  O  O271  1  0.78750000  0.92080000  0.45700000  1
  O  O272  1  0.91510000  0.06520000  0.69710000  1
  O  O273  1  0.91510000  0.43480000  0.80290000  1
  O  O274  1  0.91510000  0.69710000  0.43480000  1
  O  O275  1  0.91510000  0.80290000  0.06520000  1
  O  O276  1  0.92600000  0.53410000  0.54280000  1
  O  O277  1  0.92600000  0.54280000  0.96590000  1
  O  O278  1  0.92600000  0.95720000  0.53410000  1
  O  O279  1  0.92600000  0.96590000  0.95720000  1
  O  O280  1  0.93600000  0.51240000  0.84930000  1
  O  O281  1  0.93600000  0.65070000  0.51240000  1
  O  O282  1  0.93600000  0.84930000  0.98760000  1
  O  O283  1  0.93600000  0.98760000  0.65070000  1
  O  O284  1  0.97940000  0.08500000  0.55200000  1
  O  O285  1  0.97940000  0.41500000  0.94800000  1
  O  O286  1  0.97940000  0.55200000  0.41500000  1
  O  O287  1  0.97940000  0.94800000  0.08500000  1
