# generated using pymatgen
data_AgH8(CN)2
_symmetry_space_group_name_H-M   'P 1'
_cell_length_a   5.96100000
_cell_length_b   13.54817203
_cell_length_c   13.54817203
_cell_angle_alpha   92.44850347
_cell_angle_beta   97.90556353
_cell_angle_gamma   97.90556353
_symmetry_Int_Tables_number   1
_chemical_formula_structural   AgH8(CN)2
_chemical_formula_sum   'Ag8 H64 C16 N16'
_cell_volume   1071.33979970
_cell_formula_units_Z   8
loop_
 _symmetry_equiv_pos_site_id
 _symmetry_equiv_pos_as_xyz
  1  'x, y, z'
loop_
 _atom_site_type_symbol
 _atom_site_label
 _atom_site_symmetry_multiplicity
 _atom_site_fract_x
 _atom_site_fract_y
 _atom_site_fract_z
 _atom_site_occupancy
  Ag  Ag0  1  0.00000000  0.00000000  0.00000000  1
  Ag  Ag1  1  0.50000000  0.00000000  0.00000000  1
  Ag  Ag2  1  0.00000000  0.50000000  0.50000000  1
  Ag  Ag3  1  0.50000000  0.50000000  0.50000000  1
  Ag  Ag4  1  0.50000000  0.00000000  0.50000000  1
  Ag  Ag5  1  1.00000000  0.00000000  0.50000000  1
  Ag  Ag6  1  0.50000000  0.50000000  0.00000000  1
  Ag  Ag7  1  1.00000000  0.50000000  0.00000000  1
  C  C8  1  0.28220000  0.31650000  0.52570000  1
  C  C9  1  0.78220000  0.52570000  0.31650000  1
  C  C10  1  0.77260000  0.01120000  0.79640000  1
  C  C11  1  0.27260000  0.79640000  0.01120000  1
  C  C12  1  0.23240000  0.20600000  0.49740000  1
  C  C13  1  0.73240000  0.49740000  0.20600000  1
  C  C14  1  0.73380000  0.96930000  0.68950000  1
  C  C15  1  0.23380000  0.68950000  0.96930000  1
  C  C16  1  0.26620000  0.03070000  0.31050000  1
  C  C17  1  0.76620000  0.31050000  0.03070000  1
  C  C18  1  0.76760000  0.79400000  0.50260000  1
  C  C19  1  0.26760000  0.50260000  0.79400000  1
  C  C20  1  0.22740000  0.98880000  0.20360000  1
  C  C21  1  0.72740000  0.20360000  0.98880000  1
  C  C22  1  0.71780000  0.68350000  0.47430000  1
  C  C23  1  0.21780000  0.47430000  0.68350000  1
  H  H24  1  0.33610000  0.32690000  0.59670000  1
  H  H25  1  0.83610000  0.59670000  0.32690000  1
  H  H26  1  0.85100000  0.07930000  0.80210000  1
  H  H27  1  0.35100000  0.80210000  0.07930000  1
  H  H28  1  0.14220000  0.34560000  0.51180000  1
  H  H29  1  0.64220000  0.51180000  0.34560000  1
  H  H30  1  0.62910000  0.00970000  0.82270000  1
  H  H31  1  0.12910000  0.82270000  0.00970000  1
  H  H32  1  0.58620000  0.34170000  0.48650000  1
  H  H33  1  0.08620000  0.48650000  0.34170000  1
  H  H34  1  0.13930000  0.15450000  0.62290000  1
  H  H35  1  0.63930000  0.62290000  0.15450000  1
  H  H36  1  0.04730000  0.94180000  0.82160000  1
  H  H37  1  0.54730000  0.82160000  0.94180000  1
  H  H38  1  0.40740000  0.35340000  0.40480000  1
  H  H39  1  0.90740000  0.40480000  0.35340000  1
  H  H40  1  0.62640000  0.09510000  0.65610000  1
  H  H41  1  0.12640000  0.65610000  0.09510000  1
  H  H42  1  0.94400000  0.17890000  0.55570000  1
  H  H43  1  0.44400000  0.55570000  0.17890000  1
  H  H44  1  0.84260000  0.88060000  0.84560000  1
  H  H45  1  0.34260000  0.84560000  0.88060000  1
  H  H46  1  0.43920000  0.01850000  0.67090000  1
  H  H47  1  0.93920000  0.67090000  0.01850000  1
  H  H48  1  0.37510000  0.17840000  0.50520000  1
  H  H49  1  0.87510000  0.50520000  0.17840000  1
  H  H50  1  0.87400000  0.97820000  0.66000000  1
  H  H51  1  0.37400000  0.66000000  0.97820000  1
  H  H52  1  0.16570000  0.19580000  0.42760000  1
  H  H53  1  0.66570000  0.42760000  0.19580000  1
  H  H54  1  0.67060000  0.89910000  0.68410000  1
  H  H55  1  0.17060000  0.68410000  0.89910000  1
  H  H56  1  0.32940000  0.10090000  0.31590000  1
  H  H57  1  0.82940000  0.31590000  0.10090000  1
  H  H58  1  0.83430000  0.80420000  0.57240000  1
  H  H59  1  0.33430000  0.57240000  0.80420000  1
  H  H60  1  0.12600000  0.02180000  0.34000000  1
  H  H61  1  0.62600000  0.34000000  0.02180000  1
  H  H62  1  0.62490000  0.82160000  0.49480000  1
  H  H63  1  0.12490000  0.49480000  0.82160000  1
  H  H64  1  0.56080000  0.98150000  0.32910000  1
  H  H65  1  0.06080000  0.32910000  0.98150000  1
  H  H66  1  0.15740000  0.11940000  0.15440000  1
  H  H67  1  0.65740000  0.15440000  0.11940000  1
  H  H68  1  0.05600000  0.82110000  0.44430000  1
  H  H69  1  0.55600000  0.44430000  0.82110000  1
  H  H70  1  0.37360000  0.90490000  0.34390000  1
  H  H71  1  0.87360000  0.34390000  0.90490000  1
  H  H72  1  0.59260000  0.64660000  0.59520000  1
  H  H73  1  0.09260000  0.59520000  0.64660000  1
  H  H74  1  0.95270000  0.05820000  0.17840000  1
  H  H75  1  0.45270000  0.17840000  0.05820000  1
  H  H76  1  0.86070000  0.84550000  0.37710000  1
  H  H77  1  0.36070000  0.37710000  0.84550000  1
  H  H78  1  0.41380000  0.65830000  0.51350000  1
  H  H79  1  0.91380000  0.51350000  0.65830000  1
  H  H80  1  0.37090000  0.99030000  0.17730000  1
  H  H81  1  0.87090000  0.17730000  0.99030000  1
  H  H82  1  0.85780000  0.65440000  0.48820000  1
  H  H83  1  0.35780000  0.48820000  0.65440000  1
  H  H84  1  0.14900000  0.92070000  0.19790000  1
  H  H85  1  0.64900000  0.19790000  0.92070000  1
  H  H86  1  0.66390000  0.67310000  0.40330000  1
  H  H87  1  0.16390000  0.40330000  0.67310000  1
  N  N88  1  0.45380000  0.36600000  0.47080000  1
  N  N89  1  0.95380000  0.47080000  0.36600000  1
  N  N90  1  0.91840000  0.94310000  0.84930000  1
  N  N91  1  0.41840000  0.84930000  0.94310000  1
  N  N92  1  0.07420000  0.15150000  0.55870000  1
  N  N93  1  0.57420000  0.55870000  0.15150000  1
  N  N94  1  0.56860000  0.03000000  0.64360000  1
  N  N95  1  0.06860000  0.64360000  0.03000000  1
  N  N96  1  0.43140000  0.97000000  0.35640000  1
  N  N97  1  0.93140000  0.35640000  0.97000000  1
  N  N98  1  0.92580000  0.84850000  0.44130000  1
  N  N99  1  0.42580000  0.44130000  0.84850000  1
  N  N100  1  0.08160000  0.05690000  0.15070000  1
  N  N101  1  0.58160000  0.15070000  0.05690000  1
  N  N102  1  0.54620000  0.63400000  0.52920000  1
  N  N103  1  0.04620000  0.52920000  0.63400000  1
