# generated using pymatgen
data_ScH4C8O5
_symmetry_space_group_name_H-M   'P 1'
_cell_length_a   12.38450000
_cell_length_b   12.49440000
_cell_length_c   12.49439187
_cell_angle_alpha   75.78144761
_cell_angle_beta   60.29056534
_cell_angle_gamma   60.29040000
_symmetry_Int_Tables_number   1
_chemical_formula_structural   ScH4C8O5
_chemical_formula_sum   'Sc4 H16 C32 O20'
_cell_volume   1458.47119946
_cell_formula_units_Z   4
loop_
 _symmetry_equiv_pos_site_id
 _symmetry_equiv_pos_as_xyz
  1  'x, y, z'
loop_
 _atom_site_type_symbol
 _atom_site_label
 _atom_site_symmetry_multiplicity
 _atom_site_fract_x
 _atom_site_fract_y
 _atom_site_fract_z
 _atom_site_occupancy
  Sc  Sc0  1  0.43722000  0.12556000  0.50000000  1
  Sc  Sc1  1  0.18722000  0.00000000  0.62556000  1
  Sc  Sc2  1  0.06278000  0.87444000  0.50000000  1
  Sc  Sc3  1  0.81278000  0.00000000  0.37444000  1
  H  H4  1  0.38640000  0.50000000  0.50000000  1
  H  H5  1  0.43326000  0.91947000  0.44174000  1
  H  H6  1  0.86360000  0.00000000  0.00000000  1
  H  H7  1  0.46170000  0.05730000  0.17710000  1
  H  H8  1  0.11360000  0.50000000  0.50000000  1
  H  H9  1  0.36120000  0.94270000  0.17710000  1
  H  H10  1  0.09204000  0.08016000  0.43124000  1
  H  H11  1  0.69610000  0.94270000  0.82290000  1
  H  H12  1  0.88880000  0.32290000  0.55730000  1
  H  H13  1  0.85676000  0.08053000  0.51824000  1
  H  H14  1  0.48100000  0.05730000  0.82290000  1
  H  H15  1  0.78830000  0.32290000  0.44270000  1
  H  H16  1  0.76900000  0.67710000  0.44270000  1
  H  H17  1  0.13640000  0.00000000  0.00000000  1
  H  H18  1  0.64528000  0.91947000  0.47768000  1
  H  H19  1  0.55390000  0.67710000  0.55730000  1
  C  C20  1  0.45066000  0.60663000  0.53113000  1
  C  C21  1  0.46310000  0.50000000  0.50000000  1
  C  C22  1  0.32068000  0.72226000  0.55598000  1
  C  C23  1  0.65108000  0.05598000  0.22226000  1
  C  C24  1  0.78690000  0.00000000  1.00000000  1
  C  C25  1  0.66158000  0.03113000  0.10663000  1
  C  C26  1  0.92932000  0.94402000  0.77774000  1
  C  C27  1  0.79934000  0.96887000  0.89337000  1
  C  C28  1  0.12334000  0.27774000  0.55598000  1
  C  C29  1  0.54817000  0.03308000  0.10524000  1
  C  C30  1  0.68649000  0.96692000  0.89476000  1
  C  C31  1  0.56100000  0.00000000  1.00000000  1
  C  C32  1  0.01821000  0.39337000  0.53113000  1
  C  C33  1  0.03690000  0.50000000  0.50000000  1
  C  C34  1  0.34659000  0.96692000  0.10524000  1
  C  C35  1  0.43900000  0.00000000  1.00000000  1
  C  C36  1  0.90341000  0.39476000  0.53308000  1
  C  C37  1  0.94271000  0.60663000  0.46887000  1
  C  C38  1  0.95706000  0.72226000  0.44402000  1
  C  C39  1  0.12666000  0.94402000  0.22226000  1
  C  C40  1  0.23179000  0.96887000  0.10663000  1
  C  C41  1  0.41875000  0.03308000  0.89476000  1
  C  C42  1  0.81100000  0.50000000  0.50000000  1
  C  C43  1  0.83125000  0.60524000  0.46692000  1
  C  C44  1  0.21310000  0.00000000  1.00000000  1
  C  C45  1  0.30729000  0.03113000  0.89337000  1
  C  C46  1  0.68900000  0.50000000  0.50000000  1
  C  C47  1  0.70183000  0.39476000  0.46692000  1
  C  C48  1  0.56351000  0.60524000  0.53308000  1
  C  C49  1  0.29294000  0.05598000  0.77774000  1
  C  C50  1  0.58842000  0.39337000  0.46887000  1
  C  C51  1  0.59892000  0.27774000  0.44402000  1
  O  O52  1  0.76326000  0.01588000  0.22974000  1
  O  O53  1  0.22086000  0.01588000  0.77026000  1
  O  O54  1  0.48674000  0.27026000  0.48412000  1
  O  O55  1  0.29660000  0.80598000  0.61604000  1
  O  O56  1  0.37296000  0.00204000  0.50204000  1
  O  O57  1  0.53138000  0.11604000  0.30598000  1
  O  O58  1  0.00888000  0.98412000  0.77026000  1
  O  O59  1  0.24300000  0.27026000  0.51588000  1
  O  O60  1  0.24112000  0.72974000  0.51588000  1
  O  O61  1  0.08736000  0.19402000  0.61604000  1
  O  O62  1  0.95340000  0.88396000  0.69402000  1
  O  O63  1  0.12500000  0.99796000  0.50204000  1
  O  O64  1  0.02914000  0.72974000  0.48412000  1
  O  O65  1  0.16264000  0.88396000  0.30598000  1
  O  O66  1  0.87704000  0.99796000  0.49796000  1
  O  O67  1  0.89742000  0.80598000  0.38396000  1
  O  O68  1  0.00700000  0.98412000  0.22974000  1
  O  O69  1  0.62500000  0.00204000  0.49796000  1
  O  O70  1  0.71862000  0.19402000  0.38396000  1
  O  O71  1  0.35258000  0.11604000  0.69402000  1
