# generated using pymatgen
data_CuH13C12(NO2)2
_symmetry_space_group_name_H-M   'P 1'
_cell_length_a   8.59900000
_cell_length_b   13.19100000
_cell_length_c   15.99101862
_cell_angle_alpha   114.35885036
_cell_angle_beta   90.22501197
_cell_angle_gamma   90.00000000
_symmetry_Int_Tables_number   1
_chemical_formula_structural   CuH13C12(NO2)2
_chemical_formula_sum   'Cu4 H52 C48 N8 O16'
_cell_volume   1652.36756136
_cell_formula_units_Z   4
loop_
 _symmetry_equiv_pos_site_id
 _symmetry_equiv_pos_as_xyz
  1  'x, y, z'
loop_
 _atom_site_type_symbol
 _atom_site_label
 _atom_site_symmetry_multiplicity
 _atom_site_fract_x
 _atom_site_fract_y
 _atom_site_fract_z
 _atom_site_occupancy
  C  C0  1  0.89690000  0.59466000  0.90432000  1
  C  C1  1  0.39690000  0.30966000  0.90432000  1
  C  C2  1  0.90010000  0.48242000  0.90404000  1
  C  C3  1  0.40010000  0.42162000  0.90404000  1
  C  C4  1  0.32110000  0.43810000  0.82780000  1
  C  C5  1  0.82110000  0.38970000  0.82780000  1
  C  C6  1  0.31670000  0.53899000  0.82298000  1
  C  C7  1  0.81670000  0.28399000  0.82298000  1
  C  C8  1  0.74750000  0.40568000  0.75716000  1
  C  C9  1  0.24750000  0.35148000  0.75716000  1
  C  C10  1  0.23880000  0.55106000  0.75292000  1
  C  C11  1  0.73880000  0.20186000  0.75292000  1
  C  C12  1  0.17160000  0.37067000  0.68894000  1
  C  C13  1  0.67160000  0.31827000  0.68894000  1
  C  C14  1  0.58480000  0.60149000  0.62298000  1
  C  C15  1  0.08480000  0.02149000  0.62298000  1
  C  C16  1  0.62360000  0.78373000  0.60946000  1
  C  C17  1  0.12360000  0.82573000  0.60946000  1
  C  C18  1  0.51660000  0.68531000  0.58962000  1
  C  C19  1  0.01660000  0.90431000  0.58962000  1
  C  C20  1  0.73800000  0.55548000  0.57776000  1
  C  C21  1  0.23800000  0.02228000  0.57776000  1
  C  C22  1  0.07250000  0.70466000  0.57092000  1
  C  C23  1  0.57250000  0.86626000  0.57092000  1
  C  C24  1  0.92750000  0.29534000  0.42908000  1
  C  C25  1  0.42750000  0.13374000  0.42908000  1
  C  C26  1  0.26200000  0.44452000  0.42224000  1
  C  C27  1  0.76200000  0.97772000  0.42224000  1
  C  C28  1  0.48340000  0.31469000  0.41038000  1
  C  C29  1  0.98340000  0.09569000  0.41038000  1
  C  C30  1  0.37640000  0.21627000  0.39054000  1
  C  C31  1  0.87640000  0.17427000  0.39054000  1
  C  C32  1  0.41520000  0.39851000  0.37702000  1
  C  C33  1  0.91520000  0.97851000  0.37702000  1
  C  C34  1  0.82840000  0.62933000  0.31106000  1
  C  C35  1  0.32840000  0.68173000  0.31106000  1
  C  C36  1  0.76120000  0.44894000  0.24708000  1
  C  C37  1  0.26120000  0.79814000  0.24708000  1
  C  C38  1  0.25250000  0.59432000  0.24284000  1
  C  C39  1  0.75250000  0.64852000  0.24284000  1
  C  C40  1  0.68330000  0.46101000  0.17702000  1
  C  C41  1  0.18330000  0.71601000  0.17702000  1
  C  C42  1  0.67890000  0.56190000  0.17220000  1
  C  C43  1  0.17890000  0.61030000  0.17220000  1
  C  C44  1  0.09990000  0.51758000  0.09596000  1
  C  C45  1  0.59990000  0.57838000  0.09596000  1
  C  C46  1  0.10310000  0.40534000  0.09568000  1
  C  C47  1  0.60310000  0.69034000  0.09568000  1
  Cu  Cu48  1  0.05066000  0.49227000  0.57490000  1
  Cu  Cu49  1  0.55066000  0.08263000  0.57490000  1
  Cu  Cu50  1  0.94934000  0.50773000  0.42510000  1
  Cu  Cu51  1  0.44934000  0.91737000  0.42510000  1
  H  H52  1  0.95150000  0.64600000  0.95740000  1
  H  H53  1  0.45150000  0.31140000  0.95740000  1
  H  H54  1  0.79110000  0.61840000  0.90580000  1
  H  H55  1  0.29110000  0.28740000  0.90580000  1
  H  H56  1  0.36700000  0.59980000  0.86760000  1
  H  H57  1  0.86700000  0.26780000  0.86760000  1
  H  H58  1  0.94630000  0.59250000  0.84980000  1
  H  H59  1  0.44630000  0.25730000  0.84980000  1
  H  H60  1  0.74930000  0.47530000  0.75560000  1
  H  H61  1  0.24930000  0.28030000  0.75560000  1
  H  H62  1  0.23730000  0.62120000  0.75220000  1
  H  H63  1  0.73730000  0.13100000  0.75220000  1
  H  H64  1  0.59970000  0.63740000  0.68900000  1
  H  H65  1  0.09970000  0.05160000  0.68900000  1
  H  H66  1  0.63450000  0.82340000  0.67560000  1
  H  H67  1  0.13450000  0.85220000  0.67560000  1
  H  H68  1  0.62210000  0.33150000  0.64260000  1
  H  H69  1  0.12210000  0.31110000  0.64260000  1
  H  H70  1  0.41750000  0.71160000  0.61940000  1
  H  H71  1  0.91750000  0.90780000  0.61940000  1
  H  H72  1  0.51180000  0.54070000  0.60980000  1
  H  H73  1  0.01180000  0.06910000  0.60980000  1
  H  H74  1  0.72560000  0.75580000  0.58500000  1
  H  H75  1  0.22560000  0.82920000  0.58500000  1
  H  H76  1  0.49780000  0.64850000  0.52400000  1
  H  H77  1  0.99780000  0.87550000  0.52400000  1
  H  H78  1  0.50220000  0.35150000  0.47600000  1
  H  H79  1  0.00220000  0.12450000  0.47600000  1
  H  H80  1  0.27440000  0.24420000  0.41500000  1
  H  H81  1  0.77440000  0.17080000  0.41500000  1
  H  H82  1  0.48820000  0.45930000  0.39020000  1
  H  H83  1  0.98820000  0.93090000  0.39020000  1
  H  H84  1  0.58250000  0.28840000  0.38060000  1
  H  H85  1  0.08250000  0.09220000  0.38060000  1
  H  H86  1  0.37790000  0.66850000  0.35740000  1
  H  H87  1  0.87790000  0.68890000  0.35740000  1
  H  H88  1  0.36550000  0.17660000  0.32440000  1
  H  H89  1  0.86550000  0.14780000  0.32440000  1
  H  H90  1  0.40030000  0.36260000  0.31100000  1
  H  H91  1  0.90030000  0.94840000  0.31100000  1
  H  H92  1  0.76270000  0.37880000  0.24780000  1
  H  H93  1  0.26270000  0.86900000  0.24780000  1
  H  H94  1  0.25070000  0.52470000  0.24440000  1
  H  H95  1  0.75070000  0.71970000  0.24440000  1
  H  H96  1  0.05370000  0.40750000  0.15020000  1
  H  H97  1  0.55370000  0.74270000  0.15020000  1
  H  H98  1  0.63300000  0.40020000  0.13240000  1
  H  H99  1  0.13300000  0.73220000  0.13240000  1
  H  H100  1  0.20890000  0.38160000  0.09420000  1
  H  H101  1  0.70890000  0.71260000  0.09420000  1
  H  H102  1  0.04850000  0.35400000  0.04260000  1
  H  H103  1  0.54850000  0.68860000  0.04260000  1
  N  N104  1  0.46400000  0.50834000  0.96368000  1
  N  N105  1  0.96400000  0.45534000  0.96368000  1
  N  N106  1  0.16550000  0.46950000  0.68620000  1
  N  N107  1  0.66550000  0.21670000  0.68620000  1
  N  N108  1  0.83450000  0.53050000  0.31380000  1
  N  N109  1  0.33450000  0.78330000  0.31380000  1
  N  N110  1  0.53600000  0.49166000  0.03632000  1
  N  N111  1  0.03600000  0.54466000  0.03632000  1
  O  O112  1  0.84000000  0.53490000  0.62540000  1
  O  O113  1  0.34000000  0.09050000  0.62540000  1
  O  O114  1  0.09630000  0.65288000  0.61916000  1
  O  O115  1  0.59630000  0.96628000  0.61916000  1
  O  O116  1  0.98550000  0.33505000  0.50770000  1
  O  O117  1  0.48550000  0.17265000  0.50770000  1
  O  O118  1  0.24580000  0.45893000  0.50386000  1
  O  O119  1  0.74580000  0.04493000  0.50386000  1
  O  O120  1  0.75420000  0.54107000  0.49614000  1
  O  O121  1  0.25420000  0.95507000  0.49614000  1
  O  O122  1  0.01450000  0.66495000  0.49230000  1
  O  O123  1  0.51450000  0.82735000  0.49230000  1
  O  O124  1  0.90370000  0.34712000  0.38084000  1
  O  O125  1  0.40370000  0.03372000  0.38084000  1
  O  O126  1  0.16000000  0.46510000  0.37460000  1
  O  O127  1  0.66000000  0.90950000  0.37460000  1
