# generated using pymatgen
data_CdH36(C4N)12
_symmetry_space_group_name_H-M   'P 1'
_cell_length_a   15.88090000
_cell_length_b   15.88090000
_cell_length_c   21.81000000
_cell_angle_alpha   90.00000000
_cell_angle_beta   90.00000000
_cell_angle_gamma   90.00000000
_symmetry_Int_Tables_number   1
_chemical_formula_structural   CdH36(C4N)12
_chemical_formula_sum   'Cd4 H144 C192 N48'
_cell_volume   5500.54709871
_cell_formula_units_Z   4
loop_
 _symmetry_equiv_pos_site_id
 _symmetry_equiv_pos_as_xyz
  1  'x, y, z'
loop_
 _atom_site_type_symbol
 _atom_site_label
 _atom_site_symmetry_multiplicity
 _atom_site_fract_x
 _atom_site_fract_y
 _atom_site_fract_z
 _atom_site_occupancy
  Cd  Cd0  1  0.05807000  0.05807000  0.50000000  1
  Cd  Cd1  1  0.44193000  0.55807000  0.25000000  1
  Cd  Cd2  1  0.55807000  0.44193000  0.75000000  1
  Cd  Cd3  1  0.94193000  0.94193000  0.00000000  1
  H  H4  1  0.00260000  0.19710000  0.04060000  1
  H  H5  1  0.00890000  0.76320000  0.07320000  1
  H  H6  1  0.02380000  0.25600000  0.85680000  1
  H  H7  1  0.03640000  0.33490000  0.28780000  1
  H  H8  1  0.03650000  0.11220000  0.64980000  1
  H  H9  1  0.04540000  0.87930000  0.70980000  1
  H  H10  1  0.05850000  0.84100000  0.90580000  1
  H  H11  1  0.06290000  0.77000000  0.77820000  1
  H  H12  1  0.08730000  0.21370000  0.71550000  1
  H  H13  1  0.09040000  0.70300000  0.58400000  1
  H  H14  1  0.09960000  0.26010000  0.89660000  1
  H  H15  1  0.10230000  0.65190000  0.06060000  1
  H  H16  1  0.11220000  0.03650000  0.35020000  1
  H  H17  1  0.12070000  0.95460000  0.79020000  1
  H  H18  1  0.13970000  0.80250000  0.38650000  1
  H  H19  1  0.14010000  0.23010000  0.45980000  1
  H  H20  1  0.15190000  0.39770000  0.31060000  1
  H  H21  1  0.15270000  0.73410000  0.89110000  1
  H  H22  1  0.15590000  0.29330000  0.77970000  1
  H  H23  1  0.15900000  0.94150000  0.59420000  1
  H  H24  1  0.16510000  0.53640000  0.03780000  1
  H  H25  1  0.17550000  0.22340000  0.15500000  1
  H  H26  1  0.19710000  0.00260000  0.95940000  1
  H  H27  1  0.19750000  0.86030000  0.11350000  1
  H  H28  1  0.20300000  0.40960000  0.83400000  1
  H  H29  1  0.20670000  0.65590000  0.52970000  1
  H  H30  1  0.21250000  0.74070000  0.14540000  1
  H  H31  1  0.21370000  0.08730000  0.28450000  1
  H  H32  1  0.22340000  0.17550000  0.84500000  1
  H  H33  1  0.23000000  0.93710000  0.72180000  1
  H  H34  1  0.23010000  0.14010000  0.54020000  1
  H  H35  1  0.23410000  0.34730000  0.14110000  1
  H  H36  1  0.23680000  0.99110000  0.42680000  1
  H  H37  1  0.23990000  0.59960000  0.64660000  1
  H  H38  1  0.24070000  0.28750000  0.39540000  1
  H  H39  1  0.24400000  0.52380000  0.60680000  1
  H  H40  1  0.25600000  0.02380000  0.14320000  1
  H  H41  1  0.25930000  0.78750000  0.35460000  1
  H  H42  1  0.26010000  0.09960000  0.10340000  1
  H  H43  1  0.26320000  0.49110000  0.32320000  1
  H  H44  1  0.26590000  0.84730000  0.60890000  1
  H  H45  1  0.26990000  0.64010000  0.20980000  1
  H  H46  1  0.27000000  0.43710000  0.02820000  1
  H  H47  1  0.27660000  0.67550000  0.90500000  1
  H  H48  1  0.28630000  0.58730000  0.46550000  1
  H  H49  1  0.28750000  0.24070000  0.60460000  1
  H  H50  1  0.29330000  0.15590000  0.22030000  1
  H  H51  1  0.29700000  0.90960000  0.91600000  1
  H  H52  1  0.30250000  0.36030000  0.63650000  1
  H  H53  1  0.30290000  0.50260000  0.79060000  1
  H  H54  1  0.32450000  0.72340000  0.59500000  1
  H  H55  1  0.33490000  0.03640000  0.71220000  1
  H  H56  1  0.34100000  0.44150000  0.15580000  1
  H  H57  1  0.34410000  0.79330000  0.97030000  1
  H  H58  1  0.34730000  0.23410000  0.85890000  1
  H  H59  1  0.34810000  0.89770000  0.43940000  1
  H  H60  1  0.35990000  0.73010000  0.29020000  1
  H  H61  1  0.36030000  0.30250000  0.36350000  1
  H  H62  1  0.37930000  0.45460000  0.95980000  1
  H  H63  1  0.38780000  0.53650000  0.39980000  1
  H  H64  1  0.39770000  0.15190000  0.68940000  1
  H  H65  1  0.40040000  0.76010000  0.85340000  1
  H  H66  1  0.40960000  0.20300000  0.16600000  1
  H  H67  1  0.41270000  0.71370000  0.03450000  1
  H  H68  1  0.43710000  0.27000000  0.97180000  1
  H  H69  1  0.44150000  0.34100000  0.84420000  1
  H  H70  1  0.45460000  0.37930000  0.04020000  1
  H  H71  1  0.46350000  0.61220000  0.10020000  1
  H  H72  1  0.46360000  0.83490000  0.46220000  1
  H  H73  1  0.47620000  0.75600000  0.89320000  1
  H  H74  1  0.49110000  0.26320000  0.67680000  1
  H  H75  1  0.49740000  0.69710000  0.70940000  1
  H  H76  1  0.50260000  0.30290000  0.20940000  1
  H  H77  1  0.50890000  0.73680000  0.17680000  1
  H  H78  1  0.52380000  0.24400000  0.39320000  1
  H  H79  1  0.53640000  0.16510000  0.96220000  1
  H  H80  1  0.53650000  0.38780000  0.60020000  1
  H  H81  1  0.54540000  0.62070000  0.54020000  1
  H  H82  1  0.55850000  0.65900000  0.34420000  1
  H  H83  1  0.56290000  0.73000000  0.47180000  1
  H  H84  1  0.58730000  0.28630000  0.53450000  1
  H  H85  1  0.59040000  0.79700000  0.66600000  1
  H  H86  1  0.59960000  0.23990000  0.35340000  1
  H  H87  1  0.60230000  0.84810000  0.18940000  1
  H  H88  1  0.61220000  0.46350000  0.89980000  1
  H  H89  1  0.62070000  0.54540000  0.45980000  1
  H  H90  1  0.63970000  0.69750000  0.86350000  1
  H  H91  1  0.64010000  0.26990000  0.79020000  1
  H  H92  1  0.65190000  0.10230000  0.93940000  1
  H  H93  1  0.65270000  0.76590000  0.35890000  1
  H  H94  1  0.65590000  0.20670000  0.47030000  1
  H  H95  1  0.65900000  0.55850000  0.65580000  1
  H  H96  1  0.66510000  0.96360000  0.21220000  1
  H  H97  1  0.67550000  0.27660000  0.09500000  1
  H  H98  1  0.69710000  0.49740000  0.29060000  1
  H  H99  1  0.69750000  0.63970000  0.13650000  1
  H  H100  1  0.70300000  0.09040000  0.41600000  1
  H  H101  1  0.70670000  0.84410000  0.72030000  1
  H  H102  1  0.71250000  0.75930000  0.10460000  1
  H  H103  1  0.71370000  0.41270000  0.96550000  1
  H  H104  1  0.72340000  0.32450000  0.40500000  1
  H  H105  1  0.73000000  0.56290000  0.52820000  1
  H  H106  1  0.73010000  0.35990000  0.70980000  1
  H  H107  1  0.73410000  0.15270000  0.10890000  1
  H  H108  1  0.73680000  0.50890000  0.82320000  1
  H  H109  1  0.73990000  0.90040000  0.60340000  1
  H  H110  1  0.74070000  0.21250000  0.85460000  1
  H  H111  1  0.74400000  0.97620000  0.64320000  1
  H  H112  1  0.75600000  0.47620000  0.10680000  1
  H  H113  1  0.75930000  0.71250000  0.89540000  1
  H  H114  1  0.76010000  0.40040000  0.14660000  1
  H  H115  1  0.76320000  0.00890000  0.92680000  1
  H  H116  1  0.76590000  0.65270000  0.64110000  1
  H  H117  1  0.76990000  0.85990000  0.04020000  1
  H  H118  1  0.77000000  0.06290000  0.22180000  1
  H  H119  1  0.77660000  0.82450000  0.34500000  1
  H  H120  1  0.78630000  0.91270000  0.78450000  1
  H  H121  1  0.78750000  0.25930000  0.64540000  1
  H  H122  1  0.79330000  0.34410000  0.02970000  1
  H  H123  1  0.79700000  0.59040000  0.33400000  1
  H  H124  1  0.80250000  0.13970000  0.61350000  1
  H  H125  1  0.80290000  0.99740000  0.45940000  1
  H  H126  1  0.82450000  0.77660000  0.65500000  1
  H  H127  1  0.83490000  0.46360000  0.53780000  1
  H  H128  1  0.84100000  0.05850000  0.09420000  1
  H  H129  1  0.84410000  0.70670000  0.27970000  1
  H  H130  1  0.84730000  0.26590000  0.39110000  1
  H  H131  1  0.84810000  0.60230000  0.81060000  1
  H  H132  1  0.85990000  0.76990000  0.95980000  1
  H  H133  1  0.86030000  0.19750000  0.88650000  1
  H  H134  1  0.87930000  0.04540000  0.29020000  1
  H  H135  1  0.88780000  0.96350000  0.85020000  1
  H  H136  1  0.89770000  0.34810000  0.56060000  1
  H  H137  1  0.90040000  0.73990000  0.39660000  1
  H  H138  1  0.90960000  0.29700000  0.08400000  1
  H  H139  1  0.91270000  0.78630000  0.21550000  1
  H  H140  1  0.93710000  0.23000000  0.27820000  1
  H  H141  1  0.94150000  0.15900000  0.40580000  1
  H  H142  1  0.95460000  0.12070000  0.20980000  1
  H  H143  1  0.96350000  0.88780000  0.14980000  1
  H  H144  1  0.96360000  0.66510000  0.78780000  1
  H  H145  1  0.97620000  0.74400000  0.35680000  1
  H  H146  1  0.99110000  0.23680000  0.57320000  1
  H  H147  1  0.99740000  0.80290000  0.54060000  1
  C  C148  1  0.00400000  0.83640000  0.71280000  1
  C  C149  1  0.00490000  0.87290000  0.42950000  1
  C  C150  1  0.01400000  0.77150000  0.75310000  1
  C  C151  1  0.03860000  0.75790000  0.03550000  1
  C  C152  1  0.04420000  0.29140000  0.25850000  1
  C  C153  1  0.04450000  0.78300000  0.51800000  1
  C  C154  1  0.06020000  0.81160000  0.45900000  1
  C  C155  1  0.06800000  0.16100000  0.17580000  1
  C  C156  1  0.06810000  0.80260000  0.93840000  1
  C  C157  1  0.07580000  0.09110000  0.13170000  1
  C  C158  1  0.08680000  0.14100000  0.63910000  1
  C  C159  1  0.09110000  0.07580000  0.86830000  1
  C  C160  1  0.09580000  0.69140000  0.02830000  1
  C  C161  1  0.10030000  0.72350000  0.54370000  1
  C  C162  1  0.11580000  0.29130000  0.22040000  1
  C  C163  1  0.11690000  0.20130000  0.67880000  1
  C  C164  1  0.12480000  0.73920000  0.92940000  1
  C  C165  1  0.12670000  0.22500000  0.18010000  1
  C  C166  1  0.12710000  0.99510000  0.07050000  1
  C  C167  1  0.12890000  0.78190000  0.42670000  1
  C  C168  1  0.14100000  0.08680000  0.36090000  1
  C  C169  1  0.14210000  0.68170000  0.97650000  1
  C  C170  1  0.15680000  0.19930000  0.42440000  1
  C  C171  1  0.16100000  0.06800000  0.82420000  1
  C  C172  1  0.16360000  0.99600000  0.78720000  1
  C  C173  1  0.16890000  0.69470000  0.51130000  1
  C  C174  1  0.18170000  0.35790000  0.22650000  1
  C  C175  1  0.18260000  0.72220000  0.45220000  1
  C  C176  1  0.18840000  0.93980000  0.04100000  1
  C  C177  1  0.19140000  0.40420000  0.27830000  1
  C  C178  1  0.19160000  0.24420000  0.66480000  1
  C  C179  1  0.19470000  0.33110000  0.76130000  1
  C  C180  1  0.19740000  0.93190000  0.56160000  1
  C  C181  1  0.19930000  0.15680000  0.57560000  1
  C  C182  1  0.20130000  0.11690000  0.32120000  1
  C  C183  1  0.20860000  0.54420000  0.00850000  1
  C  C184  1  0.20870000  0.61580000  0.97040000  1
  C  C185  1  0.21700000  0.95550000  0.98200000  1
  C  C186  1  0.21750000  0.23390000  0.38610000  1
  C  C187  1  0.21810000  0.87110000  0.07330000  1
  C  C188  1  0.22220000  0.31740000  0.70220000  1
  C  C189  1  0.22350000  0.39970000  0.79370000  1
  C  C190  1  0.22500000  0.12670000  0.81990000  1
  C  C191  1  0.22850000  0.98600000  0.74690000  1
  C  C192  1  0.23390000  0.21750000  0.61390000  1
  C  C193  1  0.23920000  0.37520000  0.17940000  1
  C  C194  1  0.24210000  0.96140000  0.46450000  1
  C  C195  1  0.24420000  0.19160000  0.33520000  1
  C  C196  1  0.25580000  0.69160000  0.41480000  1
  C  C197  1  0.25790000  0.46140000  0.28550000  1
  C  C198  1  0.26080000  0.87520000  0.57060000  1
  C  C199  1  0.26610000  0.71750000  0.13610000  1
  C  C200  1  0.27150000  0.48600000  0.00310000  1
  C  C201  1  0.27500000  0.62670000  0.93010000  1
  C  C202  1  0.27650000  0.89970000  0.95630000  1
  C  C203  1  0.27780000  0.81740000  0.04780000  1
  C  C204  1  0.28190000  0.37110000  0.67670000  1
  C  C205  1  0.28250000  0.73390000  0.36390000  1
  C  C206  1  0.28300000  0.45550000  0.76800000  1
  C  C207  1  0.29130000  0.11580000  0.77960000  1
  C  C208  1  0.29140000  0.04420000  0.74150000  1
  C  C209  1  0.29870000  0.61690000  0.42880000  1
  C  C210  1  0.30070000  0.65680000  0.17440000  1
  C  C211  1  0.30260000  0.43190000  0.18840000  1
  C  C212  1  0.30530000  0.83110000  0.98870000  1
  C  C213  1  0.30840000  0.74420000  0.08520000  1
  C  C214  1  0.30860000  0.90420000  0.47170000  1
  C  C215  1  0.31160000  0.43980000  0.70900000  1
  C  C216  1  0.31740000  0.22220000  0.29780000  1
  C  C217  1  0.31830000  0.85790000  0.52350000  1
  C  C218  1  0.33110000  0.19470000  0.23870000  1
  C  C219  1  0.33640000  0.49600000  0.96280000  1
  C  C220  1  0.33900000  0.56800000  0.92580000  1
  C  C221  1  0.34320000  0.69930000  0.32560000  1
  C  C222  1  0.35790000  0.18170000  0.77350000  1
  C  C223  1  0.35900000  0.58680000  0.38910000  1
  C  C224  1  0.37110000  0.28190000  0.32330000  1
  C  C225  1  0.37290000  0.49510000  0.67950000  1
  C  C226  1  0.37330000  0.72500000  0.56990000  1
  C  C227  1  0.37520000  0.23920000  0.82060000  1
  C  C228  1  0.38310000  0.70130000  0.07120000  1
  C  C229  1  0.38420000  0.79130000  0.52960000  1
  C  C230  1  0.39970000  0.22350000  0.20630000  1
  C  C231  1  0.40420000  0.19140000  0.72170000  1
  C  C232  1  0.40890000  0.57580000  0.88170000  1
  C  C233  1  0.41320000  0.64100000  0.11090000  1
  C  C234  1  0.42420000  0.59110000  0.61830000  1
  C  C235  1  0.43190000  0.30260000  0.81160000  1
  C  C236  1  0.43200000  0.66100000  0.57420000  1
  C  C237  1  0.43980000  0.31160000  0.29100000  1
  C  C238  1  0.45550000  0.28300000  0.23200000  1
  C  C239  1  0.45580000  0.79140000  0.49150000  1
  C  C240  1  0.46140000  0.25790000  0.71450000  1
  C  C241  1  0.48600000  0.27150000  0.99690000  1
  C  C242  1  0.49510000  0.37290000  0.32050000  1
  C  C243  1  0.49600000  0.33640000  0.03720000  1
  C  C244  1  0.50400000  0.66360000  0.53720000  1
  C  C245  1  0.50490000  0.62710000  0.82050000  1
  C  C246  1  0.51400000  0.72850000  0.49690000  1
  C  C247  1  0.53860000  0.74210000  0.21450000  1
  C  C248  1  0.54420000  0.20860000  0.99150000  1
  C  C249  1  0.54450000  0.71700000  0.73200000  1
  C  C250  1  0.56020000  0.68840000  0.79100000  1
  C  C251  1  0.56800000  0.33900000  0.07420000  1
  C  C252  1  0.56810000  0.69740000  0.31160000  1
  C  C253  1  0.57580000  0.40890000  0.11830000  1
  C  C254  1  0.58680000  0.35900000  0.61090000  1
  C  C255  1  0.59110000  0.42420000  0.38170000  1
  C  C256  1  0.59580000  0.80860000  0.22170000  1
  C  C257  1  0.60030000  0.77650000  0.70630000  1
  C  C258  1  0.61580000  0.20870000  0.02960000  1
  C  C259  1  0.61690000  0.29870000  0.57120000  1
  C  C260  1  0.62480000  0.76080000  0.32060000  1
  C  C261  1  0.62670000  0.27500000  0.06990000  1
  C  C262  1  0.62710000  0.50490000  0.17950000  1
  C  C263  1  0.62890000  0.71810000  0.82330000  1
  C  C264  1  0.64100000  0.41320000  0.88910000  1
  C  C265  1  0.64210000  0.81830000  0.27350000  1
  C  C266  1  0.65680000  0.30070000  0.82560000  1
  C  C267  1  0.66100000  0.43200000  0.42580000  1
  C  C268  1  0.66360000  0.50400000  0.46280000  1
  C  C269  1  0.66890000  0.80530000  0.73870000  1
  C  C270  1  0.68170000  0.14210000  0.02350000  1
  C  C271  1  0.68260000  0.77780000  0.79780000  1
  C  C272  1  0.68840000  0.56020000  0.20900000  1
  C  C273  1  0.69140000  0.09580000  0.97170000  1
  C  C274  1  0.69160000  0.25580000  0.58520000  1
  C  C275  1  0.69470000  0.16890000  0.48870000  1
  C  C276  1  0.69740000  0.56810000  0.68840000  1
  C  C277  1  0.69930000  0.34320000  0.67440000  1
  C  C278  1  0.70130000  0.38310000  0.92880000  1
  C  C279  1  0.70860000  0.95580000  0.24150000  1
  C  C280  1  0.70870000  0.88420000  0.27960000  1
  C  C281  1  0.71700000  0.54450000  0.26800000  1
  C  C282  1  0.71750000  0.26610000  0.86390000  1
  C  C283  1  0.71810000  0.62890000  0.17670000  1
  C  C284  1  0.72220000  0.18260000  0.54780000  1
  C  C285  1  0.72350000  0.10030000  0.45630000  1
  C  C286  1  0.72500000  0.37330000  0.43010000  1
  C  C287  1  0.72850000  0.51400000  0.50310000  1
  C  C288  1  0.73390000  0.28250000  0.63610000  1
  C  C289  1  0.73920000  0.12480000  0.07060000  1
  C  C290  1  0.74210000  0.53860000  0.78550000  1
  C  C291  1  0.74420000  0.30840000  0.91480000  1
  C  C292  1  0.75580000  0.80840000  0.83520000  1
  C  C293  1  0.75790000  0.03860000  0.96450000  1
  C  C294  1  0.76080000  0.62480000  0.67940000  1
  C  C295  1  0.76610000  0.78250000  0.11390000  1
  C  C296  1  0.77150000  0.01400000  0.24690000  1
  C  C297  1  0.77500000  0.87330000  0.31990000  1
  C  C298  1  0.77650000  0.60030000  0.29370000  1
  C  C299  1  0.77780000  0.68260000  0.20220000  1
  C  C300  1  0.78190000  0.12890000  0.57330000  1
  C  C301  1  0.78250000  0.76610000  0.88610000  1
  C  C302  1  0.78300000  0.04450000  0.48200000  1
  C  C303  1  0.79130000  0.38420000  0.47040000  1
  C  C304  1  0.79140000  0.45580000  0.50850000  1
  C  C305  1  0.79870000  0.88310000  0.82120000  1
  C  C306  1  0.80070000  0.84320000  0.07560000  1
  C  C307  1  0.80260000  0.06810000  0.06160000  1
  C  C308  1  0.80530000  0.66890000  0.26130000  1
  C  C309  1  0.80840000  0.75580000  0.16480000  1
  C  C310  1  0.80860000  0.59580000  0.77830000  1
  C  C311  1  0.81160000  0.06020000  0.54100000  1
  C  C312  1  0.81740000  0.27780000  0.95220000  1
  C  C313  1  0.81830000  0.64210000  0.72650000  1
  C  C314  1  0.83110000  0.30530000  0.01130000  1
  C  C315  1  0.83640000  0.00400000  0.28720000  1
  C  C316  1  0.83900000  0.93200000  0.32420000  1
  C  C317  1  0.84320000  0.80070000  0.92440000  1
  C  C318  1  0.85790000  0.31830000  0.47650000  1
  C  C319  1  0.85900000  0.91320000  0.86090000  1
  C  C320  1  0.87110000  0.21810000  0.92670000  1
  C  C321  1  0.87290000  0.00490000  0.57050000  1
  C  C322  1  0.87330000  0.77500000  0.68010000  1
  C  C323  1  0.87520000  0.26080000  0.42940000  1
  C  C324  1  0.88310000  0.79870000  0.17880000  1
  C  C325  1  0.88420000  0.70870000  0.72040000  1
  C  C326  1  0.89970000  0.27650000  0.04370000  1
  C  C327  1  0.90420000  0.30860000  0.52830000  1
  C  C328  1  0.90890000  0.92420000  0.36830000  1
  C  C329  1  0.91320000  0.85900000  0.13910000  1
  C  C330  1  0.92420000  0.90890000  0.63170000  1
  C  C331  1  0.93190000  0.19740000  0.43840000  1
  C  C332  1  0.93200000  0.83900000  0.67580000  1
  C  C333  1  0.93980000  0.18840000  0.95900000  1
  C  C334  1  0.95550000  0.21700000  0.01800000  1
  C  C335  1  0.95580000  0.70860000  0.75850000  1
  C  C336  1  0.96140000  0.24210000  0.53550000  1
  C  C337  1  0.98600000  0.22850000  0.25310000  1
  C  C338  1  0.99510000  0.12710000  0.92950000  1
  C  C339  1  0.99600000  0.16360000  0.21280000  1
  N  N340  1  0.00600000  0.95600000  0.43400000  1
  N  N341  1  0.01170000  0.05570000  0.10470000  1
  N  N342  1  0.02480000  0.81370000  0.99120000  1
  N  N343  1  0.04400000  0.99400000  0.06600000  1
  N  N344  1  0.05530000  0.14900000  0.88910000  1
  N  N345  1  0.05570000  0.01170000  0.89530000  1
  N  N346  1  0.07300000  0.23000000  0.86690000  1
  N  N347  1  0.12070000  0.12420000  0.41370000  1
  N  N348  1  0.12420000  0.12070000  0.58630000  1
  N  N349  1  0.14900000  0.05530000  0.11090000  1
  N  N350  1  0.18630000  0.97520000  0.50880000  1
  N  N351  1  0.23000000  0.07300000  0.13310000  1
  N  N352  1  0.27000000  0.57300000  0.61690000  1
  N  N353  1  0.31370000  0.47520000  0.24120000  1
  N  N354  1  0.35100000  0.55530000  0.63910000  1
  N  N355  1  0.37580000  0.62070000  0.16370000  1
  N  N356  1  0.37930000  0.62420000  0.33630000  1
  N  N357  1  0.42700000  0.73000000  0.88310000  1
  N  N358  1  0.44430000  0.51170000  0.85470000  1
  N  N359  1  0.44470000  0.64900000  0.86090000  1
  N  N360  1  0.45600000  0.49400000  0.68400000  1
  N  N361  1  0.47520000  0.31370000  0.75880000  1
  N  N362  1  0.48830000  0.55570000  0.64530000  1
  N  N363  1  0.49400000  0.45600000  0.31600000  1
  N  N364  1  0.50600000  0.54400000  0.81600000  1
  N  N365  1  0.51170000  0.44430000  0.14530000  1
  N  N366  1  0.52480000  0.68630000  0.25880000  1
  N  N367  1  0.54400000  0.50600000  0.18400000  1
  N  N368  1  0.55530000  0.35100000  0.36090000  1
  N  N369  1  0.55570000  0.48830000  0.35470000  1
  N  N370  1  0.57300000  0.27000000  0.38310000  1
  N  N371  1  0.62070000  0.37580000  0.83630000  1
  N  N372  1  0.62420000  0.37930000  0.66370000  1
  N  N373  1  0.64900000  0.44470000  0.13910000  1
  N  N374  1  0.68630000  0.52480000  0.74120000  1
  N  N375  1  0.73000000  0.42700000  0.11690000  1
  N  N376  1  0.77000000  0.92700000  0.63310000  1
  N  N377  1  0.81370000  0.02480000  0.00880000  1
  N  N378  1  0.85100000  0.94470000  0.61090000  1
  N  N379  1  0.87580000  0.87930000  0.08630000  1
  N  N380  1  0.87930000  0.87580000  0.91370000  1
  N  N381  1  0.92700000  0.77000000  0.36690000  1
  N  N382  1  0.94430000  0.98830000  0.39530000  1
  N  N383  1  0.94470000  0.85100000  0.38910000  1
  N  N384  1  0.95600000  0.00600000  0.56600000  1
  N  N385  1  0.97520000  0.18630000  0.49120000  1
  N  N386  1  0.98830000  0.94430000  0.60470000  1
  N  N387  1  0.99400000  0.04400000  0.93400000  1
