# generated using pymatgen
data_CoH6C8O5
_symmetry_space_group_name_H-M   'P 1'
_cell_length_a   7.87580000
_cell_length_b   9.18770000
_cell_length_c   11.34270000
_cell_angle_alpha   112.88300000
_cell_angle_beta   91.05700000
_cell_angle_gamma   105.87700000
_symmetry_Int_Tables_number   1
_chemical_formula_structural   CoH6C8O5
_chemical_formula_sum   'Co2 H12 C16 O10'
_cell_volume   720.07089189
_cell_formula_units_Z   2
loop_
 _symmetry_equiv_pos_site_id
 _symmetry_equiv_pos_as_xyz
  1  'x, y, z'
loop_
 _atom_site_type_symbol
 _atom_site_label
 _atom_site_symmetry_multiplicity
 _atom_site_fract_x
 _atom_site_fract_y
 _atom_site_fract_z
 _atom_site_occupancy
  Co  Co0  1  0.00000000  0.00000000  0.50000000  1
  Co  Co1  1  0.50000000  0.00000000  0.50000000  1
  H  H2  1  0.21650000  0.70540000  0.16470000  1
  H  H3  1  0.28900000  0.18700000  0.60120000  1
  H  H4  1  0.29910000  0.54120000  0.97910000  1
  H  H5  1  0.31900000  0.15900000  0.47100000  1
  H  H6  1  0.38460000  0.21300000  0.11170000  1
  H  H7  1  0.42130000  0.15140000  0.89790000  1
  H  H8  1  0.57870000  0.84860000  0.10210000  1
  H  H9  1  0.61540000  0.78700000  0.88830000  1
  H  H10  1  0.68100000  0.84100000  0.52900000  1
  H  H11  1  0.70090000  0.45880000  0.02090000  1
  H  H12  1  0.71100000  0.81300000  0.39880000  1
  H  H13  1  0.78350000  0.29460000  0.83530000  1
  C  C14  1  0.05010000  0.39770000  0.88640000  1
  C  C15  1  0.10540000  0.29360000  0.76410000  1
  C  C16  1  0.12900000  0.62310000  0.09850000  1
  C  C17  1  0.17870000  0.52410000  0.98730000  1
  C  C18  1  0.43110000  0.12730000  0.06710000  1
  C  C19  1  0.45240000  0.07450000  0.26920000  1
  C  C20  1  0.45300000  0.09030000  0.93860000  1
  C  C21  1  0.47760000  0.03780000  0.12960000  1
  C  C22  1  0.52240000  0.96220000  0.87040000  1
  C  C23  1  0.54700000  0.90970000  0.06140000  1
  C  C24  1  0.54760000  0.92550000  0.73080000  1
  C  C25  1  0.56890000  0.87270000  0.93290000  1
  C  C26  1  0.82130000  0.47590000  0.01270000  1
  C  C27  1  0.87100000  0.37690000  0.90150000  1
  C  C28  1  0.89460000  0.70640000  0.23590000  1
  C  C29  1  0.94990000  0.60230000  0.11360000  1
  O  O30  1  0.01810000  0.82010000  0.32210000  1
  O  O31  1  0.26710000  0.32380000  0.75390000  1
  O  O32  1  0.28400000  0.11080000  0.52290000  1
  O  O33  1  0.38510000  0.18690000  0.32750000  1
  O  O34  1  0.49970000  0.01390000  0.68440000  1
  O  O35  1  0.50030000  0.98610000  0.31560000  1
  O  O36  1  0.61490000  0.81310000  0.67250000  1
  O  O37  1  0.71600000  0.88920000  0.47710000  1
  O  O38  1  0.73290000  0.67620000  0.24610000  1
  O  O39  1  0.98190000  0.17990000  0.67790000  1
