# generated using pymatgen
data_Zn2P3(HO3)4
_symmetry_space_group_name_H-M   'P 1'
_cell_length_a   9.50750000
_cell_length_b   9.80650000
_cell_length_c   9.89272003
_cell_angle_alpha   101.10055974
_cell_angle_beta   118.72003109
_cell_angle_gamma   90.00000000
_symmetry_Int_Tables_number   1
_chemical_formula_structural   Zn2P3(HO3)4
_chemical_formula_sum   'Zn4 P6 H8 O24'
_cell_volume   789.14765488
_cell_formula_units_Z   2
loop_
 _symmetry_equiv_pos_site_id
 _symmetry_equiv_pos_as_xyz
  1  'x, y, z'
loop_
 _atom_site_type_symbol
 _atom_site_label
 _atom_site_symmetry_multiplicity
 _atom_site_fract_x
 _atom_site_fract_y
 _atom_site_fract_z
 _atom_site_occupancy
  H  H0  1  0.13390000  0.62830000  0.06140000  1
  H  H1  1  0.92750000  0.12830000  0.06140000  1
  H  H2  1  0.26820000  0.64920000  0.14260000  1
  H  H3  1  0.87440000  0.14920000  0.14260000  1
  H  H4  1  0.73180000  0.35080000  0.85740000  1
  H  H5  1  0.12560000  0.85080000  0.85740000  1
  H  H6  1  0.86610000  0.37170000  0.93860000  1
  H  H7  1  0.07250000  0.87170000  0.93860000  1
  O  O8  1  0.06320000  0.87960000  0.01780000  1
  O  O9  1  0.95460000  0.37960000  0.01780000  1
  O  O10  1  0.20922000  0.26530000  0.14824000  1
  O  O11  1  0.93902000  0.76530000  0.14824000  1
  O  O12  1  0.36130000  0.65010000  0.21280000  1
  O  O13  1  0.85150000  0.15010000  0.21280000  1
  O  O14  1  0.24880000  0.57350000  0.37380000  1
  O  O15  1  0.12500000  0.07350000  0.37380000  1
  O  O16  1  0.31720000  0.82820000  0.40600000  1
  O  O17  1  0.08880000  0.32820000  0.40600000  1
  O  O18  1  0.54070000  0.68070000  0.49880000  1
  O  O19  1  0.95810000  0.18070000  0.49880000  1
  O  O20  1  0.45930000  0.31930000  0.50120000  1
  O  O21  1  0.04190000  0.81930000  0.50120000  1
  O  O22  1  0.68280000  0.17180000  0.59400000  1
  O  O23  1  0.91120000  0.67180000  0.59400000  1
  O  O24  1  0.75120000  0.42650000  0.62620000  1
  O  O25  1  0.87500000  0.92650000  0.62620000  1
  O  O26  1  0.63870000  0.34990000  0.78720000  1
  O  O27  1  0.14850000  0.84990000  0.78720000  1
  O  O28  1  0.79078000  0.73470000  0.85176000  1
  O  O29  1  0.06098000  0.23470000  0.85176000  1
  O  O30  1  0.93680000  0.12040000  0.98220000  1
  O  O31  1  0.04540000  0.62040000  0.98220000  1
  P  P32  1  0.04456000  0.25000000  1.00000000  1
  P  P33  1  0.95544000  0.75000000  0.00000000  1
  P  P34  1  0.36744000  0.68124000  0.37914000  1
  P  P35  1  0.01170000  0.18124000  0.37914000  1
  P  P36  1  0.63256000  0.31876000  0.62086000  1
  P  P37  1  0.98830000  0.81876000  0.62086000  1
  Zn  Zn38  1  0.25842000  0.37523000  0.35784000  1
  Zn  Zn39  1  0.09942000  0.87523000  0.35784000  1
  Zn  Zn40  1  0.74158000  0.62477000  0.64216000  1
  Zn  Zn41  1  0.90058000  0.12477000  0.64216000  1
