# generated using pymatgen
data_CuHC4O3
_symmetry_space_group_name_H-M   'P 1'
_cell_length_a   6.26310000
_cell_length_b   15.08222281
_cell_length_c   15.08222281
_cell_angle_alpha   118.11607411
_cell_angle_beta   97.95650056
_cell_angle_gamma   97.95650056
_symmetry_Int_Tables_number   1
_chemical_formula_structural   CuHC4O3
_chemical_formula_sum   'Cu6 H6 C24 O18'
_cell_volume   1210.17633545
_cell_formula_units_Z   6
loop_
 _symmetry_equiv_pos_site_id
 _symmetry_equiv_pos_as_xyz
  1  'x, y, z'
loop_
 _atom_site_type_symbol
 _atom_site_label
 _atom_site_symmetry_multiplicity
 _atom_site_fract_x
 _atom_site_fract_y
 _atom_site_fract_z
 _atom_site_occupancy
  C  C0  1  0.87070000  0.46400000  0.55010000  1
  C  C1  1  0.70220000  0.42580000  0.59280000  1
  C  C2  1  0.92860000  0.56640000  0.46840000  1
  C  C3  1  0.82100000  0.53840000  0.52760000  1
  C  C4  1  0.10940000  0.40720000  0.83300000  1
  C  C5  1  0.72360000  0.83300000  0.42580000  1
  C  C6  1  0.36220000  0.90200000  0.43360000  1
  C  C7  1  0.32060000  0.44990000  0.91390000  1
  C  C8  1  0.53980000  0.46840000  0.90200000  1
  C  C9  1  0.59330000  0.91390000  0.46400000  1
  C  C10  1  0.28260000  0.98920000  0.46160000  1
  C  C11  1  0.29340000  0.47240000  0.01080000  1
  C  C12  1  0.70660000  0.52760000  0.98920000  1
  C  C13  1  0.71740000  0.01080000  0.53840000  1
  C  C14  1  0.40670000  0.08610000  0.53600000  1
  C  C15  1  0.46020000  0.53160000  0.09800000  1
  C  C16  1  0.67940000  0.55010000  0.08610000  1
  C  C17  1  0.63780000  0.09800000  0.56640000  1
  C  C18  1  0.27640000  0.16700000  0.57420000  1
  C  C19  1  0.89060000  0.59280000  0.16700000  1
  C  C20  1  0.17900000  0.46160000  0.47240000  1
  C  C21  1  0.07140000  0.43360000  0.53160000  1
  C  C22  1  0.29780000  0.57420000  0.40720000  1
  C  C23  1  0.12930000  0.53600000  0.44990000  1
  Cu  Cu24  1  0.67080000  0.31660000  0.73810000  1
  Cu  Cu25  1  0.35420000  0.42150000  0.68340000  1
  Cu  Cu26  1  0.06730000  0.73810000  0.42150000  1
  Cu  Cu27  1  0.93270000  0.26190000  0.57850000  1
  Cu  Cu28  1  0.64580000  0.57850000  0.31660000  1
  Cu  Cu29  1  0.32920000  0.68340000  0.26190000  1
  H  H30  1  0.66800000  0.56670000  0.54730000  1
  H  H31  1  0.10130000  0.98060000  0.43330000  1
  H  H32  1  0.12070000  0.45270000  0.01940000  1
  H  H33  1  0.87930000  0.54730000  0.98060000  1
  H  H34  1  0.89870000  0.01940000  0.56670000  1
  H  H35  1  0.33200000  0.43330000  0.45270000  1
  O  O36  1  0.27900000  0.65920000  0.40680000  1
  O  O37  1  0.88420000  0.64200000  0.44560000  1
  O  O38  1  0.61980000  0.74760000  0.34080000  1
  O  O39  1  0.58140000  0.48290000  0.64430000  1
  O  O40  1  0.12780000  0.40680000  0.74760000  1
  O  O41  1  0.24220000  0.80360000  0.35800000  1
  O  O42  1  0.93710000  0.35570000  0.83860000  1
  O  O43  1  0.56140000  0.44560000  0.80360000  1
  O  O44  1  0.90150000  0.83860000  0.48290000  1
  O  O45  1  0.09850000  0.16140000  0.51710000  1
  O  O46  1  0.43860000  0.55440000  0.19640000  1
  O  O47  1  0.06290000  0.64430000  0.16140000  1
  O  O48  1  0.75780000  0.19640000  0.64200000  1
  O  O49  1  0.87220000  0.59320000  0.25240000  1
  O  O50  1  0.41860000  0.51710000  0.35570000  1
  O  O51  1  0.38020000  0.25240000  0.65920000  1
  O  O52  1  0.11580000  0.35800000  0.55440000  1
  O  O53  1  0.72100000  0.34080000  0.59320000  1
