# generated using pymatgen
data_H14Pb(C3O)6
_symmetry_space_group_name_H-M   'P 1'
_cell_length_a   10.07310000
_cell_length_b   10.23940000
_cell_length_c   37.78630000
_cell_angle_alpha   90.00000000
_cell_angle_beta   90.00000000
_cell_angle_gamma   97.14400000
_symmetry_Int_Tables_number   1
_chemical_formula_structural   H14Pb(C3O)6
_chemical_formula_sum   'H112 Pb8 C144 O48'
_cell_volume   3867.11707569
_cell_formula_units_Z   8
loop_
 _symmetry_equiv_pos_site_id
 _symmetry_equiv_pos_as_xyz
  1  'x, y, z'
loop_
 _atom_site_type_symbol
 _atom_site_label
 _atom_site_symmetry_multiplicity
 _atom_site_fract_x
 _atom_site_fract_y
 _atom_site_fract_z
 _atom_site_occupancy
  H  H0  1  0.13760000  0.02990000  0.11050000  1
  H  H1  1  0.63760000  0.02990000  0.38950000  1
  H  H2  1  0.19600000  0.04120000  0.19770000  1
  H  H3  1  0.69600000  0.04120000  0.30230000  1
  H  H4  1  0.13760000  0.04880000  0.72830000  1
  H  H5  1  0.63760000  0.04880000  0.77170000  1
  H  H6  1  0.82370000  0.07030000  0.56210000  1
  H  H7  1  0.32370000  0.07030000  0.93790000  1
  H  H8  1  0.87660000  0.07290000  0.16900000  1
  H  H9  1  0.37660000  0.07290000  0.33100000  1
  H  H10  1  0.80840000  0.09110000  0.65030000  1
  H  H11  1  0.30840000  0.09110000  0.84970000  1
  H  H12  1  0.94400000  0.09180000  0.69920000  1
  H  H13  1  0.44400000  0.09180000  0.80080000  1
  H  H14  1  0.78070000  0.09310000  0.02600000  1
  H  H15  1  0.28070000  0.09310000  0.47400000  1
  H  H16  1  0.09930000  0.10560000  0.14520000  1
  H  H17  1  0.59930000  0.10560000  0.35480000  1
  H  H18  1  0.22350000  0.13780000  0.58230000  1
  H  H19  1  0.72350000  0.13780000  0.91770000  1
  H  H20  1  0.89400000  0.15430000  0.61760000  1
  H  H21  1  0.39400000  0.15430000  0.88240000  1
  H  H22  1  0.07000000  0.16280000  0.58410000  1
  H  H23  1  0.57000000  0.16280000  0.91590000  1
  H  H24  1  0.13470000  0.17060000  0.06250000  1
  H  H25  1  0.63470000  0.17060000  0.43750000  1
  H  H26  1  0.91990000  0.22850000  0.16870000  1
  H  H27  1  0.41990000  0.22850000  0.33130000  1
  H  H28  1  0.14130000  0.25220000  0.18660000  1
  H  H29  1  0.64130000  0.25220000  0.31340000  1
  H  H30  1  0.85330000  0.30110000  0.04920000  1
  H  H31  1  0.35330000  0.30110000  0.45080000  1
  H  H32  1  0.92670000  0.34950000  0.57560000  1
  H  H33  1  0.42670000  0.34950000  0.92440000  1
  H  H34  1  0.08540000  0.35870000  0.61350000  1
  H  H35  1  0.58540000  0.35870000  0.88650000  1
  H  H36  1  0.77070000  0.36550000  0.57480000  1
  H  H37  1  0.27070000  0.36550000  0.92520000  1
  H  H38  1  0.19420000  0.36770000  0.03360000  1
  H  H39  1  0.69420000  0.36770000  0.46640000  1
  H  H40  1  0.93350000  0.38840000  0.12820000  1
  H  H41  1  0.43350000  0.38840000  0.37180000  1
  H  H42  1  0.98820000  0.38840000  0.69260000  1
  H  H43  1  0.48820000  0.38840000  0.80740000  1
  H  H44  1  0.14090000  0.40050000  0.17330000  1
  H  H45  1  0.64090000  0.40050000  0.32670000  1
  H  H46  1  0.15220000  0.41240000  0.64980000  1
  H  H47  1  0.65220000  0.41240000  0.85020000  1
  H  H48  1  0.78140000  0.42030000  0.71560000  1
  H  H49  1  0.28140000  0.42030000  0.78440000  1
  H  H50  1  0.87710000  0.45250000  0.09370000  1
  H  H51  1  0.37710000  0.45250000  0.40630000  1
  H  H52  1  0.18170000  0.45850000  0.56240000  1
  H  H53  1  0.68170000  0.45850000  0.93760000  1
  H  H54  1  0.86570000  0.47460000  0.18190000  1
  H  H55  1  0.36570000  0.47460000  0.31810000  1
  H  H56  1  0.63430000  0.52540000  0.68190000  1
  H  H57  1  0.13430000  0.52540000  0.81810000  1
  H  H58  1  0.31830000  0.54150000  0.06240000  1
  H  H59  1  0.81830000  0.54150000  0.43760000  1
  H  H60  1  0.62290000  0.54750000  0.59370000  1
  H  H61  1  0.12290000  0.54750000  0.90630000  1
  H  H62  1  0.71860000  0.57970000  0.21560000  1
  H  H63  1  0.21860000  0.57970000  0.28440000  1
  H  H64  1  0.34780000  0.58760000  0.14980000  1
  H  H65  1  0.84780000  0.58760000  0.35020000  1
  H  H66  1  0.35910000  0.59950000  0.67330000  1
  H  H67  1  0.85910000  0.59950000  0.82670000  1
  H  H68  1  0.51180000  0.61160000  0.19260000  1
  H  H69  1  0.01180000  0.61160000  0.30740000  1
  H  H70  1  0.56650000  0.61160000  0.62820000  1
  H  H71  1  0.06650000  0.61160000  0.87180000  1
  H  H72  1  0.30580000  0.63230000  0.53360000  1
  H  H73  1  0.80580000  0.63230000  0.96640000  1
  H  H74  1  0.72930000  0.63450000  0.07480000  1
  H  H75  1  0.22930000  0.63450000  0.42520000  1
  H  H76  1  0.41460000  0.64130000  0.11350000  1
  H  H77  1  0.91460000  0.64130000  0.38650000  1
  H  H78  1  0.57330000  0.65050000  0.07560000  1
  H  H79  1  0.07330000  0.65050000  0.42440000  1
  H  H80  1  0.64670000  0.69890000  0.54920000  1
  H  H81  1  0.14670000  0.69890000  0.95080000  1
  H  H82  1  0.35870000  0.74780000  0.68660000  1
  H  H83  1  0.85870000  0.74780000  0.81340000  1
  H  H84  1  0.58010000  0.77150000  0.66870000  1
  H  H85  1  0.08010000  0.77150000  0.83130000  1
  H  H86  1  0.36530000  0.82940000  0.56250000  1
  H  H87  1  0.86530000  0.82940000  0.93750000  1
  H  H88  1  0.43000000  0.83720000  0.08410000  1
  H  H89  1  0.93000000  0.83720000  0.41590000  1
  H  H90  1  0.60600000  0.84570000  0.11760000  1
  H  H91  1  0.10600000  0.84570000  0.38240000  1
  H  H92  1  0.27650000  0.86220000  0.08230000  1
  H  H93  1  0.77650000  0.86220000  0.41770000  1
  H  H94  1  0.40070000  0.89440000  0.64520000  1
  H  H95  1  0.90070000  0.89440000  0.85480000  1
  H  H96  1  0.71930000  0.90690000  0.52600000  1
  H  H97  1  0.21930000  0.90690000  0.97400000  1
  H  H98  1  0.55600000  0.90820000  0.19920000  1
  H  H99  1  0.05600000  0.90820000  0.30080000  1
  H  H100  1  0.69160000  0.90890000  0.15030000  1
  H  H101  1  0.19160000  0.90890000  0.34970000  1
  H  H102  1  0.62340000  0.92710000  0.66900000  1
  H  H103  1  0.12340000  0.92710000  0.83100000  1
  H  H104  1  0.67630000  0.92970000  0.06210000  1
  H  H105  1  0.17630000  0.92970000  0.43790000  1
  H  H106  1  0.36240000  0.95120000  0.22830000  1
  H  H107  1  0.86240000  0.95120000  0.27170000  1
  H  H108  1  0.30400000  0.95880000  0.69770000  1
  H  H109  1  0.80400000  0.95880000  0.80230000  1
  H  H110  1  0.36240000  0.97010000  0.61050000  1
  H  H111  1  0.86240000  0.97010000  0.88950000  1
  Pb  Pb112  1  0.50576000  0.24821000  0.03078000  1
  Pb  Pb113  1  0.00577000  0.24821000  0.46922000  1
  Pb  Pb114  1  0.52425000  0.26797000  0.21713000  1
  Pb  Pb115  1  0.02425000  0.26797000  0.28287000  1
  Pb  Pb116  1  0.97575000  0.73203000  0.71713000  1
  Pb  Pb117  1  0.47575000  0.73203000  0.78287000  1
  Pb  Pb118  1  0.99423000  0.75179000  0.53078000  1
  Pb  Pb119  1  0.49424000  0.75179000  0.96922000  1
  C  C120  1  0.39510000  0.00460000  0.13136000  1
  C  C121  1  0.89510000  0.00460000  0.36864000  1
  C  C122  1  0.70830000  0.01310000  0.07197000  1
  C  C123  1  0.20830000  0.01310000  0.42803000  1
  C  C124  1  0.27210000  0.01880000  0.18531000  1
  C  C125  1  0.77210000  0.01880000  0.31469000  1
  C  C126  1  0.12820000  0.03250000  0.70363000  1
  C  C127  1  0.62820000  0.03250000  0.79637000  1
  C  C128  1  0.69270000  0.03430000  0.10798000  1
  C  C129  1  0.19270000  0.03430000  0.39202000  1
  C  C130  1  0.28150000  0.03830000  0.14882000  1
  C  C131  1  0.78150000  0.03830000  0.35118000  1
  C  C132  1  0.00050000  0.04260000  0.64969000  1
  C  C133  1  0.50050000  0.04260000  0.85031000  1
  C  C134  1  0.01400000  0.06030000  0.68616000  1
  C  C135  1  0.51400000  0.06030000  0.81384000  1
  C  C136  1  0.87320000  0.07300000  0.63179000  1
  C  C137  1  0.37320000  0.07300000  0.86821000  1
  C  C138  1  0.12020000  0.08440000  0.53626000  1
  C  C139  1  0.62020000  0.08440000  0.96374000  1
  C  C140  1  0.17320000  0.09460000  0.12864000  1
  C  C141  1  0.67320000  0.09460000  0.37136000  1
  C  C142  1  0.13110000  0.10000000  0.57613000  1
  C  C143  1  0.63110000  0.10000000  0.92387000  1
  C  C144  1  0.76900000  0.11000000  0.05046000  1
  C  C145  1  0.26900000  0.11000000  0.44954000  1
  C  C146  1  0.73980000  0.15780000  0.12181000  1
  C  C147  1  0.23980000  0.15780000  0.37819000  1
  C  C148  1  0.84880000  0.15850000  0.17616000  1
  C  C149  1  0.34880000  0.15850000  0.32384000  1
  C  C150  1  0.83620000  0.16180000  0.21635000  1
  C  C151  1  0.33620000  0.16180000  0.28365000  1
  C  C152  1  0.21460000  0.22460000  0.11060000  1
  C  C153  1  0.71460000  0.22460000  0.38940000  1
  C  C154  1  0.81350000  0.23340000  0.06440000  1
  C  C155  1  0.31350000  0.23340000  0.43560000  1
  C  C156  1  0.18290000  0.24180000  0.07503000  1
  C  C157  1  0.68290000  0.24180000  0.42497000  1
  C  C158  1  0.80050000  0.25930000  0.10050000  1
  C  C159  1  0.30050000  0.25930000  0.39950000  1
  C  C160  1  0.28370000  0.33340000  0.12769000  1
  C  C161  1  0.78370000  0.33340000  0.37231000  1
  C  C162  1  0.19580000  0.33940000  0.18507000  1
  C  C163  1  0.69580000  0.33940000  0.31493000  1
  C  C164  1  0.21930000  0.35850000  0.05760000  1
  C  C165  1  0.71930000  0.35850000  0.44240000  1
  C  C166  1  0.22940000  0.38860000  0.22182000  1
  C  C167  1  0.72940000  0.38860000  0.27818000  1
  C  C168  1  0.85150000  0.39460000  0.11417000  1
  C  C169  1  0.35150000  0.39460000  0.38583000  1
  C  C170  1  0.86090000  0.40810000  0.56807000  1
  C  C171  1  0.36090000  0.40810000  0.93193000  1
  C  C172  1  0.86740000  0.42330000  0.52854000  1
  C  C173  1  0.36740000  0.42330000  0.97146000  1
  C  C174  1  0.92640000  0.42610000  0.67803000  1
  C  C175  1  0.42640000  0.42610000  0.82197000  1
  C  C176  1  0.09720000  0.43560000  0.62958000  1
  C  C177  1  0.59720000  0.43560000  0.87042000  1
  C  C178  1  0.80430000  0.44710000  0.69205000  1
  C  C179  1  0.30430000  0.44710000  0.80795000  1
  C  C180  1  0.32630000  0.45040000  0.11011000  1
  C  C181  1  0.82630000  0.45040000  0.38989000  1
  C  C182  1  0.96180000  0.45820000  0.64338000  1
  C  C183  1  0.46180000  0.45820000  0.85662000  1
  C  C184  1  0.75400000  0.45930000  0.13689000  1
  C  C185  1  0.25400000  0.45930000  0.36311000  1
  C  C186  1  0.29160000  0.46170000  0.07478000  1
  C  C187  1  0.79160000  0.46170000  0.42522000  1
  C  C188  1  0.63400000  0.48960000  0.12278000  1
  C  C189  1  0.13400000  0.48960000  0.37722000  1
  C  C190  1  0.78360000  0.49310000  0.17184000  1
  C  C191  1  0.28360000  0.49310000  0.32816000  1
  C  C192  1  0.71640000  0.50690000  0.67184000  1
  C  C193  1  0.21640000  0.50690000  0.82816000  1
  C  C194  1  0.86600000  0.51040000  0.62278000  1
  C  C195  1  0.36600000  0.51040000  0.87722000  1
  C  C196  1  0.20840000  0.53830000  0.57478000  1
  C  C197  1  0.70840000  0.53830000  0.92522000  1
  C  C198  1  0.74600000  0.54070000  0.63689000  1
  C  C199  1  0.24600000  0.54070000  0.86311000  1
  C  C200  1  0.53820000  0.54180000  0.14338000  1
  C  C201  1  0.03820000  0.54180000  0.35662000  1
  C  C202  1  0.17370000  0.54960000  0.61011000  1
  C  C203  1  0.67370000  0.54960000  0.88989000  1
  C  C204  1  0.69570000  0.55290000  0.19205000  1
  C  C205  1  0.19570000  0.55290000  0.30795000  1
  C  C206  1  0.40280000  0.56440000  0.12958000  1
  C  C207  1  0.90280000  0.56440000  0.37042000  1
  C  C208  1  0.57360000  0.57390000  0.17803000  1
  C  C209  1  0.07360000  0.57390000  0.32197000  1
  C  C210  1  0.63260000  0.57670000  0.02854000  1
  C  C211  1  0.13260000  0.57670000  0.47146000  1
  C  C212  1  0.63910000  0.59190000  0.06807000  1
  C  C213  1  0.13910000  0.59190000  0.43193000  1
  C  C214  1  0.64850000  0.60540000  0.61417000  1
  C  C215  1  0.14850000  0.60540000  0.88583000  1
  C  C216  1  0.27060000  0.61140000  0.72182000  1
  C  C217  1  0.77060000  0.61140000  0.77818000  1
  C  C218  1  0.28070000  0.64150000  0.55760000  1
  C  C219  1  0.78070000  0.64150000  0.94240000  1
  C  C220  1  0.30420000  0.66060000  0.68507000  1
  C  C221  1  0.80420000  0.66060000  0.81493000  1
  C  C222  1  0.21630000  0.66666667  0.62769000  1
  C  C223  1  0.71630000  0.66666667  0.87231000  1
  C  C224  1  0.69950000  0.74070000  0.60050000  1
  C  C225  1  0.19950000  0.74070000  0.89950000  1
  C  C226  1  0.31710000  0.75820000  0.57503000  1
  C  C227  1  0.81710000  0.75820000  0.92497000  1
  C  C228  1  0.68650000  0.76660000  0.56440000  1
  C  C229  1  0.18650000  0.76660000  0.93560000  1
  C  C230  1  0.28540000  0.77540000  0.61060000  1
  C  C231  1  0.78540000  0.77540000  0.88940000  1
  C  C232  1  0.66380000  0.83820000  0.71635000  1
  C  C233  1  0.16380000  0.83820000  0.78365000  1
  C  C234  1  0.65120000  0.84150000  0.67616000  1
  C  C235  1  0.15120000  0.84150000  0.82384000  1
  C  C236  1  0.76020000  0.84220000  0.62181000  1
  C  C237  1  0.26020000  0.84220000  0.87819000  1
  C  C238  1  0.73100000  0.89000000  0.55046000  1
  C  C239  1  0.23100000  0.89000000  0.94954000  1
  C  C240  1  0.36890000  0.90000000  0.07613000  1
  C  C241  1  0.86890000  0.90000000  0.42387000  1
  C  C242  1  0.32680000  0.90540000  0.62864000  1
  C  C243  1  0.82680000  0.90540000  0.87136000  1
  C  C244  1  0.37980000  0.91560000  0.03626000  1
  C  C245  1  0.87980000  0.91560000  0.46374000  1
  C  C246  1  0.62680000  0.92700000  0.13179000  1
  C  C247  1  0.12680000  0.92700000  0.36821000  1
  C  C248  1  0.48600000  0.93970000  0.18616000  1
  C  C249  1  0.98600000  0.93970000  0.31384000  1
  C  C250  1  0.49950000  0.95740000  0.14969000  1
  C  C251  1  0.99950000  0.95740000  0.35031000  1
  C  C252  1  0.21850000  0.96170000  0.64882000  1
  C  C253  1  0.71850000  0.96170000  0.85118000  1
  C  C254  1  0.80730000  0.96570000  0.60798000  1
  C  C255  1  0.30730000  0.96570000  0.89202000  1
  C  C256  1  0.37180000  0.96750000  0.20363000  1
  C  C257  1  0.87180000  0.96750000  0.29637000  1
  C  C258  1  0.22790000  0.98120000  0.68531000  1
  C  C259  1  0.72790000  0.98120000  0.81469000  1
  C  C260  1  0.79170000  0.98690000  0.57197000  1
  C  C261  1  0.29170000  0.98690000  0.92803000  1
  C  C262  1  0.10490000  0.99540000  0.63136000  1
  C  C263  1  0.60490000  0.99540000  0.86864000  1
  O  O264  1  0.40100000  0.02160000  0.09461000  1
  O  O265  1  0.90100000  0.02160000  0.40539000  1
  O  O266  1  0.37880000  0.02470000  0.02210000  1
  O  O267  1  0.87880000  0.02470000  0.47790000  1
  O  O268  1  0.95000000  0.15990000  0.23080000  1
  O  O269  1  0.45000000  0.15990000  0.26920000  1
  O  O270  1  0.72800000  0.16250000  0.23138000  1
  O  O271  1  0.22800000  0.16250000  0.26862000  1
  O  O272  1  0.72720000  0.17640000  0.15808000  1
  O  O273  1  0.22720000  0.17640000  0.34192000  1
  O  O274  1  0.11760000  0.19360000  0.52076000  1
  O  O275  1  0.61760000  0.19360000  0.97924000  1
  O  O276  1  0.86440000  0.31290000  0.51300000  1
  O  O277  1  0.36440000  0.31290000  0.98700000  1
  O  O278  1  0.31140000  0.32790000  0.16390000  1
  O  O279  1  0.81140000  0.32790000  0.33610000  1
  O  O280  1  0.12670000  0.40750000  0.23967000  1
  O  O281  1  0.62670000  0.40750000  0.26033000  1
  O  O282  1  0.34730000  0.40850000  0.23240000  1
  O  O283  1  0.84730000  0.40850000  0.26760000  1
  O  O284  1  0.62980000  0.46790000  0.01395000  1
  O  O285  1  0.12980000  0.46790000  0.48605000  1
  O  O286  1  0.61260000  0.46970000  0.08628000  1
  O  O287  1  0.11260000  0.46970000  0.41372000  1
  O  O288  1  0.88740000  0.53030000  0.58628000  1
  O  O289  1  0.38740000  0.53030000  0.91372000  1
  O  O290  1  0.87020000  0.53210000  0.51395000  1
  O  O291  1  0.37020000  0.53210000  0.98605000  1
  O  O292  1  0.15270000  0.59150000  0.73240000  1
  O  O293  1  0.65270000  0.59150000  0.76760000  1
  O  O294  1  0.37330000  0.59250000  0.73967000  1
  O  O295  1  0.87330000  0.59250000  0.76033000  1
  O  O296  1  0.18860000  0.67210000  0.66390000  1
  O  O297  1  0.68860000  0.67210000  0.83610000  1
  O  O298  1  0.63560000  0.68710000  0.01300000  1
  O  O299  1  0.13560000  0.68710000  0.48700000  1
  O  O300  1  0.38240000  0.80640000  0.02076000  1
  O  O301  1  0.88240000  0.80640000  0.47924000  1
  O  O302  1  0.77280000  0.82360000  0.65808000  1
  O  O303  1  0.27280000  0.82360000  0.84192000  1
  O  O304  1  0.77200000  0.83750000  0.73138000  1
  O  O305  1  0.27200000  0.83750000  0.76862000  1
  O  O306  1  0.55000000  0.84010000  0.73080000  1
  O  O307  1  0.05000000  0.84010000  0.76920000  1
  O  O308  1  0.12120000  0.97530000  0.52210000  1
  O  O309  1  0.62120000  0.97530000  0.97790000  1
  O  O310  1  0.09900000  0.97840000  0.59461000  1
  O  O311  1  0.59900000  0.97840000  0.90539000  1
