# generated using pymatgen
data_Pr2Cu3H54C36(NO4)6
_symmetry_space_group_name_H-M   'P 1'
_cell_length_a   7.41470000
_cell_length_b   13.66140000
_cell_length_c   13.66140000
_cell_angle_alpha   120.00000000
_cell_angle_beta   90.00000000
_cell_angle_gamma   90.00000000
_symmetry_Int_Tables_number   1
_chemical_formula_structural   Pr2Cu3H54C36(NO4)6
_chemical_formula_sum   'Pr2 Cu3 H54 C36 N6 O24'
_cell_volume   1198.43540494
_cell_formula_units_Z   1
loop_
 _symmetry_equiv_pos_site_id
 _symmetry_equiv_pos_as_xyz
  1  'x, y, z'
loop_
 _atom_site_type_symbol
 _atom_site_label
 _atom_site_symmetry_multiplicity
 _atom_site_fract_x
 _atom_site_fract_y
 _atom_site_fract_z
 _atom_site_occupancy
  Pr  Pr0  1  0.34005000  0.33333333  0.66666667  1
  Pr  Pr1  1  0.65995000  0.66666667  0.33333333  1
  Cu  Cu2  1  1.00000000  0.50000000  0.00000000  1
  Cu  Cu3  1  0.00000000  0.00000000  0.50000000  1
  Cu  Cu4  1  1.00000000  0.50000000  0.50000000  1
  H  H5  1  0.00470000  0.79310000  0.78700000  1
  H  H6  1  0.00470000  0.21300000  0.00610000  1
  H  H7  1  0.00470000  0.99390000  0.20690000  1
  H  H8  1  0.04760000  0.34480000  0.20170000  1
  H  H9  1  0.04760000  0.85690000  0.65520000  1
  H  H10  1  0.04760000  0.79830000  0.14310000  1
  H  H11  1  0.11430000  0.13440000  0.89620000  1
  H  H12  1  0.11430000  0.10380000  0.23820000  1
  H  H13  1  0.11430000  0.76180000  0.86560000  1
  H  H14  1  0.14020000  0.02920000  0.67480000  1
  H  H15  1  0.14020000  0.64560000  0.97080000  1
  H  H16  1  0.14020000  0.32520000  0.35440000  1
  H  H17  1  0.20140000  0.24600000  0.99180000  1
  H  H18  1  0.20140000  0.00820000  0.25420000  1
  H  H19  1  0.20140000  0.74580000  0.75400000  1
  H  H20  1  0.23250000  0.45230000  0.26970000  1
  H  H21  1  0.23250000  0.81740000  0.54770000  1
  H  H22  1  0.23250000  0.73030000  0.18260000  1
  H  H23  1  0.36070000  0.28160000  0.21420000  1
  H  H24  1  0.36070000  0.93260000  0.71840000  1
  H  H25  1  0.36070000  0.78580000  0.06740000  1
  H  H26  1  0.46040000  0.33200000  0.33070000  1
  H  H27  1  0.46040000  0.99870000  0.66800000  1
  H  H28  1  0.46040000  0.66930000  0.00130000  1
  H  H29  1  0.49420000  0.24790000  0.87120000  1
  H  H30  1  0.49420000  0.12880000  0.37670000  1
  H  H31  1  0.49420000  0.62330000  0.75210000  1
  H  H32  1  0.50580000  0.37670000  0.24790000  1
  H  H33  1  0.50580000  0.87120000  0.62330000  1
  H  H34  1  0.50580000  0.75210000  0.12880000  1
  H  H35  1  0.53960000  0.33070000  0.99870000  1
  H  H36  1  0.53960000  0.00130000  0.33200000  1
  H  H37  1  0.53960000  0.66800000  0.66930000  1
  H  H38  1  0.63930000  0.21420000  0.93260000  1
  H  H39  1  0.63930000  0.06740000  0.28160000  1
  H  H40  1  0.63930000  0.71840000  0.78580000  1
  H  H41  1  0.76750000  0.26970000  0.81740000  1
  H  H42  1  0.76750000  0.18260000  0.45230000  1
  H  H43  1  0.76750000  0.54770000  0.73030000  1
  H  H44  1  0.79860000  0.25420000  0.24600000  1
  H  H45  1  0.79860000  0.99180000  0.74580000  1
  H  H46  1  0.79860000  0.75400000  0.00820000  1
  H  H47  1  0.85980000  0.67480000  0.64560000  1
  H  H48  1  0.85980000  0.35440000  0.02920000  1
  H  H49  1  0.85980000  0.97080000  0.32520000  1
  H  H50  1  0.88570000  0.23820000  0.13440000  1
  H  H51  1  0.88570000  0.89620000  0.76180000  1
  H  H52  1  0.88570000  0.86560000  0.10380000  1
  H  H53  1  0.95240000  0.20170000  0.85690000  1
  H  H54  1  0.95240000  0.14310000  0.34480000  1
  H  H55  1  0.95240000  0.65520000  0.79830000  1
  H  H56  1  0.99530000  0.00610000  0.79310000  1
  H  H57  1  0.99530000  0.78700000  0.99390000  1
  H  H58  1  0.99530000  0.20690000  0.21300000  1
  C  C59  1  0.03330000  0.26155000  0.90980000  1
  C  C60  1  0.03330000  0.09020000  0.35175000  1
  C  C61  1  0.03330000  0.64825000  0.73845000  1
  C  C62  1  0.09120000  0.21140000  0.95300000  1
  C  C63  1  0.09120000  0.04700000  0.25840000  1
  C  C64  1  0.09120000  0.74160000  0.78860000  1
  C  C65  1  0.13740000  0.27563000  0.82064000  1
  C  C66  1  0.13740000  0.17936000  0.45499000  1
  C  C67  1  0.13740000  0.54501000  0.72437000  1
  C  C68  1  0.26910000  0.43620000  0.32920000  1
  C  C69  1  0.26910000  0.89300000  0.56380000  1
  C  C70  1  0.26910000  0.67080000  0.10700000  1
  C  C71  1  0.31490000  0.55144000  0.42935000  1
  C  C72  1  0.31490000  0.87791000  0.44856000  1
  C  C73  1  0.31490000  0.57065000  0.12209000  1
  C  C74  1  0.41160000  0.34890000  0.27580000  1
  C  C75  1  0.41160000  0.92690000  0.65110000  1
  C  C76  1  0.41160000  0.72420000  0.07310000  1
  C  C77  1  0.58840000  0.27580000  0.92690000  1
  C  C78  1  0.58840000  0.07310000  0.34890000  1
  C  C79  1  0.58840000  0.65110000  0.72420000  1
  C  C80  1  0.68510000  0.42935000  0.87791000  1
  C  C81  1  0.68510000  0.12209000  0.55144000  1
  C  C82  1  0.68510000  0.44856000  0.57065000  1
  C  C83  1  0.73090000  0.32920000  0.89300000  1
  C  C84  1  0.73090000  0.10700000  0.43620000  1
  C  C85  1  0.73090000  0.56380000  0.67080000  1
  C  C86  1  0.86260000  0.45499000  0.27563000  1
  C  C87  1  0.86260000  0.82064000  0.54501000  1
  C  C88  1  0.86260000  0.72437000  0.17936000  1
  C  C89  1  0.90880000  0.25840000  0.21140000  1
  C  C90  1  0.90880000  0.95300000  0.74160000  1
  C  C91  1  0.90880000  0.78860000  0.04700000  1
  C  C92  1  0.96670000  0.35175000  0.26155000  1
  C  C93  1  0.96670000  0.90980000  0.64825000  1
  C  C94  1  0.96670000  0.73845000  0.09020000  1
  N  N95  1  0.10620000  0.38708000  0.35041000  1
  N  N96  1  0.10620000  0.96333000  0.61292000  1
  N  N97  1  0.10620000  0.64959000  0.03667000  1
  N  N98  1  0.89380000  0.35041000  0.96333000  1
  N  N99  1  0.89380000  0.03667000  0.38708000  1
  N  N100  1  0.89380000  0.61292000  0.64959000  1
  O  O101  1  0.12030000  0.36596000  0.81903000  1
  O  O102  1  0.12030000  0.18097000  0.54693000  1
  O  O103  1  0.12030000  0.45307000  0.63404000  1
  O  O104  1  0.21170000  0.59308000  0.51464000  1
  O  O105  1  0.21170000  0.48536000  0.07844000  1
  O  O106  1  0.21170000  0.92156000  0.40692000  1
  O  O107  1  0.24120000  0.19930000  0.75571000  1
  O  O108  1  0.24120000  0.55641000  0.80070000  1
  O  O109  1  0.24120000  0.24429000  0.44359000  1
  O  O110  1  0.44920000  0.60115000  0.42063000  1
  O  O111  1  0.44920000  0.57937000  0.18052000  1
  O  O112  1  0.44920000  0.81948000  0.39885000  1
  O  O113  1  0.55080000  0.18052000  0.60115000  1
  O  O114  1  0.55080000  0.42063000  0.81948000  1
  O  O115  1  0.55080000  0.39885000  0.57937000  1
  O  O116  1  0.75880000  0.75571000  0.55641000  1
  O  O117  1  0.75880000  0.44359000  0.19930000  1
  O  O118  1  0.75880000  0.80070000  0.24429000  1
  O  O119  1  0.78830000  0.07844000  0.59308000  1
  O  O120  1  0.78830000  0.51464000  0.92156000  1
  O  O121  1  0.78830000  0.40692000  0.48536000  1
  O  O122  1  0.87970000  0.54693000  0.36596000  1
  O  O123  1  0.87970000  0.81903000  0.45307000  1
  O  O124  1  0.87970000  0.63404000  0.18097000  1
