# generated using pymatgen
data_CuH8(C2N)4
_symmetry_space_group_name_H-M   'P 1'
_cell_length_a   9.84475664
_cell_length_b   9.84475664
_cell_length_c   11.45034555
_cell_angle_alpha   111.76428906
_cell_angle_beta   111.76428906
_cell_angle_gamma   97.90189634
_symmetry_Int_Tables_number   1
_chemical_formula_structural   CuH8(C2N)4
_chemical_formula_sum   'Cu2 H16 C16 N8'
_cell_volume   907.24313095
_cell_formula_units_Z   2
loop_
 _symmetry_equiv_pos_site_id
 _symmetry_equiv_pos_as_xyz
  1  'x, y, z'
loop_
 _atom_site_type_symbol
 _atom_site_label
 _atom_site_symmetry_multiplicity
 _atom_site_fract_x
 _atom_site_fract_y
 _atom_site_fract_z
 _atom_site_occupancy
  C  C0  1  0.00970000  0.70650000  0.19400000  1
  C  C1  1  0.63650000  0.93590000  0.19580000  1
  C  C2  1  0.04510000  0.94010000  0.19720000  1
  C  C3  1  0.60400000  0.70580000  0.19980000  1
  C  C4  1  0.15420000  0.75600000  0.30020000  1
  C  C5  1  0.59790000  0.99290000  0.30280000  1
  C  C6  1  0.19070000  0.99010000  0.30420000  1
  C  C7  1  0.56570000  0.76250000  0.30600000  1
  C  C8  1  0.45650000  0.25970000  0.69400000  1
  C  C9  1  0.68590000  0.88650000  0.69580000  1
  C  C10  1  0.69010000  0.29510000  0.69720000  1
  C  C11  1  0.45580000  0.85400000  0.69980000  1
  C  C12  1  0.50600000  0.40420000  0.80020000  1
  C  C13  1  0.74290000  0.84790000  0.80280000  1
  C  C14  1  0.74010000  0.44070000  0.80420000  1
  C  C15  1  0.51250000  0.81570000  0.80600000  1
  Cu  Cu16  1  0.72400000  0.72400000  0.00000000  1
  Cu  Cu17  1  0.47400000  0.97400000  0.50000000  1
  H  H18  1  0.94860000  0.60560000  0.15800000  1
  H  H19  1  0.66060000  1.00000000  0.15880000  1
  H  H20  1  0.00980000  0.00780000  0.16380000  1
  H  H21  1  0.60500000  0.60440000  0.16580000  1
  H  H22  1  0.18920000  0.68860000  0.33420000  1
  H  H23  1  0.59600000  0.09400000  0.33620000  1
  H  H24  1  0.25180000  0.09120000  0.34120000  1
  H  H25  1  0.54060000  0.69760000  0.34200000  1
  H  H26  1  0.35560000  0.19860000  0.65800000  1
  H  H27  1  0.75000000  0.91060000  0.65880000  1
  H  H28  1  0.75780000  0.25980000  0.66380000  1
  H  H29  1  0.35440000  0.85500000  0.66580000  1
  H  H30  1  0.43860000  0.43920000  0.83420000  1
  H  H31  1  0.84400000  0.84600000  0.83620000  1
  H  H32  1  0.84120000  0.50180000  0.84120000  1
  H  H33  1  0.44760000  0.79060000  0.84200000  1
  N  N34  1  0.95050000  0.79430000  0.13860000  1
  N  N35  1  0.64120000  0.79320000  0.14220000  1
  N  N36  1  0.24900000  0.90100000  0.35780000  1
  N  N37  1  0.56190000  0.90570000  0.36140000  1
  N  N38  1  0.54430000  0.20050000  0.63860000  1
  N  N39  1  0.54320000  0.89120000  0.64220000  1
  N  N40  1  0.65100000  0.49900000  0.85780000  1
  N  N41  1  0.65570000  0.81190000  0.86140000  1
