# generated using pymatgen
data_TbH2(C5O4)2
_symmetry_space_group_name_H-M   'P 1'
_cell_length_a   7.16930000
_cell_length_b   10.72460000
_cell_length_c   17.15800000
_cell_angle_alpha   97.10900000
_cell_angle_beta   90.00000000
_cell_angle_gamma   90.00000000
_symmetry_Int_Tables_number   1
_chemical_formula_structural   TbH2(C5O4)2
_chemical_formula_sum   'Tb4 H8 C40 O32'
_cell_volume   1309.10049508
_cell_formula_units_Z   4
loop_
 _symmetry_equiv_pos_site_id
 _symmetry_equiv_pos_as_xyz
  1  'x, y, z'
loop_
 _atom_site_type_symbol
 _atom_site_label
 _atom_site_symmetry_multiplicity
 _atom_site_fract_x
 _atom_site_fract_y
 _atom_site_fract_z
 _atom_site_occupancy
  Tb  Tb0  1  0.02005000  0.32429000  0.75327000  1
  Tb  Tb1  1  0.47995000  0.82429000  0.25327000  1
  Tb  Tb2  1  0.52005000  0.17571000  0.74673000  1
  Tb  Tb3  1  0.97995000  0.67571000  0.24673000  1
  H  H4  1  0.14980000  0.16450000  0.95040000  1
  H  H5  1  0.18450000  0.50990000  0.98120000  1
  H  H6  1  0.31550000  0.00990000  0.48120000  1
  H  H7  1  0.35020000  0.66450000  0.45040000  1
  H  H8  1  0.64980000  0.33550000  0.54960000  1
  H  H9  1  0.68450000  0.99010000  0.51880000  1
  H  H10  1  0.81550000  0.49010000  0.01880000  1
  H  H11  1  0.85020000  0.83550000  0.04960000  1
  C  C12  1  0.07170000  0.95200000  0.06770000  1
  C  C13  1  0.07580000  0.95940000  0.42590000  1
  C  C14  1  0.08920000  0.09840000  0.97010000  1
  C  C15  1  0.11800000  0.04950000  0.56220000  1
  C  C16  1  0.14750000  0.88910000  0.13590000  1
  C  C17  1  0.16110000  0.05310000  0.03610000  1
  C  C18  1  0.17240000  0.91400000  0.35120000  1
  C  C19  1  0.18060000  0.62030000  0.57780000  1
  C  C20  1  0.18730000  0.00690000  0.48890000  1
  C  C21  1  0.24850000  0.59510000  0.12670000  1
  C  C22  1  0.25150000  0.09510000  0.62670000  1
  C  C23  1  0.31270000  0.50690000  0.98890000  1
  C  C24  1  0.31940000  0.12030000  0.07780000  1
  C  C25  1  0.32760000  0.41400000  0.85120000  1
  C  C26  1  0.33890000  0.55310000  0.53610000  1
  C  C27  1  0.35250000  0.38910000  0.63590000  1
  C  C28  1  0.38200000  0.54950000  0.06220000  1
  C  C29  1  0.41080000  0.59840000  0.47010000  1
  C  C30  1  0.42420000  0.45940000  0.92590000  1
  C  C31  1  0.42830000  0.45200000  0.56770000  1
  C  C32  1  0.57170000  0.54800000  0.43230000  1
  C  C33  1  0.57580000  0.54060000  0.07410000  1
  C  C34  1  0.58920000  0.40160000  0.52990000  1
  C  C35  1  0.61800000  0.45050000  0.93780000  1
  C  C36  1  0.64750000  0.61090000  0.36410000  1
  C  C37  1  0.66110000  0.44690000  0.46390000  1
  C  C38  1  0.67240000  0.58600000  0.14880000  1
  C  C39  1  0.68060000  0.87970000  0.92220000  1
  C  C40  1  0.68730000  0.49310000  0.01110000  1
  C  C41  1  0.74850000  0.90490000  0.37330000  1
  C  C42  1  0.75150000  0.40490000  0.87330000  1
  C  C43  1  0.81270000  0.99310000  0.51110000  1
  C  C44  1  0.81940000  0.37970000  0.42220000  1
  C  C45  1  0.82760000  0.08600000  0.64880000  1
  C  C46  1  0.83890000  0.94690000  0.96390000  1
  C  C47  1  0.85250000  0.11090000  0.86410000  1
  C  C48  1  0.88200000  0.95050000  0.43780000  1
  C  C49  1  0.91080000  0.90160000  0.02990000  1
  C  C50  1  0.92420000  0.04060000  0.57410000  1
  C  C51  1  0.92830000  0.04800000  0.93230000  1
  O  O52  1  0.02880000  0.84520000  0.17630000  1
  O  O53  1  0.04400000  0.65030000  0.53230000  1
  O  O54  1  0.07610000  0.58360000  0.11390000  1
  O  O55  1  0.17880000  0.38610000  0.64320000  1
  O  O56  1  0.18060000  0.65200000  0.64950000  1
  O  O57  1  0.19040000  0.14650000  0.69170000  1
  O  O58  1  0.19200000  0.79490000  0.32990000  1
  O  O59  1  0.24790000  0.49380000  0.81500000  1
  O  O60  1  0.25210000  0.99380000  0.31500000  1
  O  O61  1  0.30800000  0.29490000  0.82990000  1
  O  O62  1  0.30960000  0.64650000  0.19170000  1
  O  O63  1  0.31940000  0.15200000  0.14950000  1
  O  O64  1  0.32120000  0.88610000  0.14320000  1
  O  O65  1  0.42390000  0.08360000  0.61390000  1
  O  O66  1  0.45600000  0.15030000  0.03230000  1
  O  O67  1  0.47120000  0.34520000  0.67630000  1
  O  O68  1  0.52880000  0.65480000  0.32370000  1
  O  O69  1  0.54400000  0.84970000  0.96770000  1
  O  O70  1  0.57610000  0.91640000  0.38610000  1
  O  O71  1  0.67880000  0.11390000  0.85680000  1
  O  O72  1  0.68060000  0.84800000  0.85050000  1
  O  O73  1  0.69040000  0.35350000  0.80830000  1
  O  O74  1  0.69200000  0.70510000  0.17010000  1
  O  O75  1  0.74790000  0.00620000  0.68500000  1
  O  O76  1  0.75210000  0.50620000  0.18500000  1
  O  O77  1  0.80800000  0.20510000  0.67010000  1
  O  O78  1  0.80960000  0.85350000  0.30830000  1
  O  O79  1  0.81940000  0.34800000  0.35050000  1
  O  O80  1  0.82120000  0.61390000  0.35680000  1
  O  O81  1  0.92390000  0.41640000  0.88610000  1
  O  O82  1  0.95600000  0.34970000  0.46770000  1
  O  O83  1  0.97120000  0.15480000  0.82370000  1
