# generated using pymatgen
data_CoH16C19N3O2
_symmetry_space_group_name_H-M   'P 1'
_cell_length_a   10.31566073
_cell_length_b   10.31566073
_cell_length_c   20.54500000
_cell_angle_alpha   94.82232993
_cell_angle_beta   94.82232993
_cell_angle_gamma   116.24828360
_symmetry_Int_Tables_number   1
_chemical_formula_structural   CoH16C19N3O2
_chemical_formula_sum   'Co4 H64 C76 N12 O8'
_cell_volume   1935.81384554
_cell_formula_units_Z   4
loop_
 _symmetry_equiv_pos_site_id
 _symmetry_equiv_pos_as_xyz
  1  'x, y, z'
loop_
 _atom_site_type_symbol
 _atom_site_label
 _atom_site_symmetry_multiplicity
 _atom_site_fract_x
 _atom_site_fract_y
 _atom_site_fract_z
 _atom_site_occupancy
  C  C0  1  0.57750000  0.39390000  0.14380000  1
  C  C1  1  0.39390000  0.57750000  0.64380000  1
  C  C2  1  0.87940000  0.03200000  0.58500000  1
  C  C3  1  0.03200000  0.87940000  0.08500000  1
  C  C4  1  0.77440000  0.13180000  0.83713000  1
  C  C5  1  0.13180000  0.77440000  0.33713000  1
  C  C6  1  0.79880000  0.09480000  0.61270000  1
  C  C7  1  0.09480000  0.79880000  0.11270000  1
  C  C8  1  0.68000000  0.19380000  0.82730000  1
  C  C9  1  0.19380000  0.68000000  0.32730000  1
  C  C10  1  0.57280000  0.29460000  0.31760000  1
  C  C11  1  0.29460000  0.57280000  0.81760000  1
  C  C12  1  0.50920000  0.28000000  0.97970000  1
  C  C13  1  0.28000000  0.50920000  0.47970000  1
  C  C14  1  0.63780000  0.13460000  0.01150000  1
  C  C15  1  0.13460000  0.63780000  0.51150000  1
  C  C16  1  0.38710000  0.37230000  0.84060000  1
  C  C17  1  0.37230000  0.38710000  0.34060000  1
  C  C18  1  0.73780000  0.99980000  0.79884000  1
  C  C19  1  0.99980000  0.73780000  0.29884000  1
  C  C20  1  0.81120000  0.91120000  0.53790000  1
  C  C21  1  0.91120000  0.81120000  0.03790000  1
  C  C22  1  0.64890000  0.02830000  0.59020000  1
  C  C23  1  0.02830000  0.64890000  0.09020000  1
  C  C24  1  0.42940000  0.20620000  0.28840000  1
  C  C25  1  0.20620000  0.42940000  0.78840000  1
  C  C26  1  0.50010000  0.12910000  0.97420000  1
  C  C27  1  0.12910000  0.50010000  0.47420000  1
  C  C28  1  0.63580000  0.98460000  0.00420000  1
  C  C29  1  0.98460000  0.63580000  0.50420000  1
  C  C30  1  0.32960000  0.25820000  0.30060000  1
  C  C31  1  0.25820000  0.32960000  0.80060000  1
  C  C32  1  0.61220000  0.93480000  0.75297000  1
  C  C33  1  0.93480000  0.61220000  0.25297000  1
  C  C34  1  0.52730000  0.00870000  0.74780000  1
  C  C35  1  0.00870000  0.52730000  0.24780000  1
  C  C36  1  0.40960000  0.09200000  0.45710000  1
  C  C37  1  0.09200000  0.40960000  0.95710000  1
  C  C38  1  0.59040000  0.90800000  0.54290000  1
  C  C39  1  0.90800000  0.59040000  0.04290000  1
  C  C40  1  0.47270000  0.99130000  0.25220000  1
  C  C41  1  0.99130000  0.47270000  0.75220000  1
  C  C42  1  0.38780000  0.06520000  0.24703000  1
  C  C43  1  0.06520000  0.38780000  0.74703000  1
  C  C44  1  0.67040000  0.74180000  0.69940000  1
  C  C45  1  0.74180000  0.67040000  0.19940000  1
  C  C46  1  0.36420000  0.01540000  0.99580000  1
  C  C47  1  0.01540000  0.36420000  0.49580000  1
  C  C48  1  0.49990000  0.87090000  0.02580000  1
  C  C49  1  0.87090000  0.49990000  0.52580000  1
  C  C50  1  0.57060000  0.79380000  0.71160000  1
  C  C51  1  0.79380000  0.57060000  0.21160000  1
  C  C52  1  0.35110000  0.97170000  0.40980000  1
  C  C53  1  0.97170000  0.35110000  0.90980000  1
  C  C54  1  0.18880000  0.08880000  0.46210000  1
  C  C55  1  0.08880000  0.18880000  0.96210000  1
  C  C56  1  0.26220000  0.00020000  0.20116000  1
  C  C57  1  0.00020000  0.26220000  0.70116000  1
  C  C58  1  0.61290000  0.62770000  0.15940000  1
  C  C59  1  0.62770000  0.61290000  0.65940000  1
  C  C60  1  0.36220000  0.86540000  0.98850000  1
  C  C61  1  0.86540000  0.36220000  0.48850000  1
  C  C62  1  0.49080000  0.72000000  0.02030000  1
  C  C63  1  0.72000000  0.49080000  0.52030000  1
  C  C64  1  0.42720000  0.70540000  0.68240000  1
  C  C65  1  0.70540000  0.42720000  0.18240000  1
  C  C66  1  0.32000000  0.80620000  0.17270000  1
  C  C67  1  0.80620000  0.32000000  0.67270000  1
  C  C68  1  0.20120000  0.90520000  0.38730000  1
  C  C69  1  0.90520000  0.20120000  0.88730000  1
  C  C70  1  0.22560000  0.86820000  0.16287000  1
  C  C71  1  0.86820000  0.22560000  0.66287000  1
  C  C72  1  0.12060000  0.96800000  0.41500000  1
  C  C73  1  0.96800000  0.12060000  0.91500000  1
  C  C74  1  0.42250000  0.60610000  0.85620000  1
  C  C75  1  0.60610000  0.42250000  0.35620000  1
  Co  Co76  1  0.42099000  0.34113000  0.55711000  1
  Co  Co77  1  0.34113000  0.42099000  0.05711000  1
  Co  Co78  1  0.57901000  0.65887000  0.44289000  1
  Co  Co79  1  0.65887000  0.57901000  0.94289000  1
  H  H80  1  0.70330000  0.28230000  0.85250000  1
  H  H81  1  0.28230000  0.70330000  0.35250000  1
  H  H82  1  0.92830000  0.02070000  0.90180000  1
  H  H83  1  0.02070000  0.92830000  0.40180000  1
  H  H84  1  0.72300000  0.20400000  0.99470000  1
  H  H85  1  0.20400000  0.72300000  0.49470000  1
  H  H86  1  0.64530000  0.26670000  0.31090000  1
  H  H87  1  0.26670000  0.64530000  0.81090000  1
  H  H88  1  0.52020000  0.29720000  0.12550000  1
  H  H89  1  0.29720000  0.52020000  0.62550000  1
  H  H90  1  0.64490000  0.16790000  0.05790000  1
  H  H91  1  0.16790000  0.64490000  0.55790000  1
  H  H92  1  0.79790000  0.95450000  0.80390000  1
  H  H93  1  0.95450000  0.79790000  0.30390000  1
  H  H94  1  0.86790000  0.87190000  0.51990000  1
  H  H95  1  0.87190000  0.86790000  0.01990000  1
  H  H96  1  0.41790000  0.30210000  0.84830000  1
  H  H97  1  0.30210000  0.41790000  0.34830000  1
  H  H98  1  0.72110000  0.99050000  0.03070000  1
  H  H99  1  0.99050000  0.72110000  0.53070000  1
  H  H100  1  0.58940000  0.06540000  0.60720000  1
  H  H101  1  0.06540000  0.58940000  0.10720000  1
  H  H102  1  0.50910000  0.13370000  0.47170000  1
  H  H103  1  0.13370000  0.50910000  0.97170000  1
  H  H104  1  0.49850000  0.09890000  0.92750000  1
  H  H105  1  0.09890000  0.49850000  0.42750000  1
  H  H106  1  0.64000000  0.95620000  0.95850000  1
  H  H107  1  0.95620000  0.64000000  0.45850000  1
  H  H108  1  0.55660000  0.03240000  0.28290000  1
  H  H109  1  0.03240000  0.55660000  0.78290000  1
  H  H110  1  0.76710000  0.79470000  0.71860000  1
  H  H111  1  0.79470000  0.76710000  0.21860000  1
  H  H112  1  0.23290000  0.20530000  0.28140000  1
  H  H113  1  0.20530000  0.23290000  0.78140000  1
  H  H114  1  0.44340000  0.96760000  0.71710000  1
  H  H115  1  0.96760000  0.44340000  0.21710000  1
  H  H116  1  0.36000000  0.04380000  0.04150000  1
  H  H117  1  0.04380000  0.36000000  0.54150000  1
  H  H118  1  0.50150000  0.90110000  0.07250000  1
  H  H119  1  0.90110000  0.50150000  0.57250000  1
  H  H120  1  0.49090000  0.86630000  0.52830000  1
  H  H121  1  0.86630000  0.49090000  0.02830000  1
  H  H122  1  0.41060000  0.93460000  0.39280000  1
  H  H123  1  0.93460000  0.41060000  0.89280000  1
  H  H124  1  0.27890000  0.00950000  0.96930000  1
  H  H125  1  0.00950000  0.27890000  0.46930000  1
  H  H126  1  0.58210000  0.69790000  0.15170000  1
  H  H127  1  0.69790000  0.58210000  0.65170000  1
  H  H128  1  0.13210000  0.12810000  0.48010000  1
  H  H129  1  0.12810000  0.13210000  0.98010000  1
  H  H130  1  0.20210000  0.04550000  0.19610000  1
  H  H131  1  0.04550000  0.20210000  0.69610000  1
  H  H132  1  0.35510000  0.83210000  0.94210000  1
  H  H133  1  0.83210000  0.35510000  0.44210000  1
  H  H134  1  0.47980000  0.70280000  0.87450000  1
  H  H135  1  0.70280000  0.47980000  0.37450000  1
  H  H136  1  0.35470000  0.73330000  0.68910000  1
  H  H137  1  0.73330000  0.35470000  0.18910000  1
  H  H138  1  0.27700000  0.79600000  0.00530000  1
  H  H139  1  0.79600000  0.27700000  0.50530000  1
  H  H140  1  0.07170000  0.97930000  0.09820000  1
  H  H141  1  0.97930000  0.07170000  0.59820000  1
  H  H142  1  0.29670000  0.71770000  0.14750000  1
  H  H143  1  0.71770000  0.29670000  0.64750000  1
  N  N144  1  0.50950000  0.47110000  0.36938000  1
  N  N145  1  0.47110000  0.50950000  0.86938000  1
  N  N146  1  0.55940000  0.13500000  0.78430000  1
  N  N147  1  0.13500000  0.55940000  0.28430000  1
  N  N148  1  0.66830000  0.84690000  0.51651000  1
  N  N149  1  0.84690000  0.66830000  0.01651000  1
  N  N150  1  0.33170000  0.15310000  0.48349000  1
  N  N151  1  0.15310000  0.33170000  0.98349000  1
  N  N152  1  0.44060000  0.86500000  0.21570000  1
  N  N153  1  0.86500000  0.44060000  0.71570000  1
  N  N154  1  0.49050000  0.52890000  0.63062000  1
  N  N155  1  0.52890000  0.49050000  0.13062000  1
  O  O156  1  0.61574000  0.37686000  0.95847000  1
  O  O157  1  0.37686000  0.61574000  0.45847000  1
  O  O158  1  0.41194000  0.29966000  0.00388000  1
  O  O159  1  0.29966000  0.41194000  0.50388000  1
  O  O160  1  0.58806000  0.70034000  0.99612000  1
  O  O161  1  0.70034000  0.58806000  0.49612000  1
  O  O162  1  0.38426000  0.62314000  0.04153000  1
  O  O163  1  0.62314000  0.38426000  0.54153000  1
