# generated using pymatgen
data_Cu6C7Br2N7
_symmetry_space_group_name_H-M   'P 1'
_cell_length_a   9.85050000
_cell_length_b   17.04610000
_cell_length_c   21.62290000
_cell_angle_alpha   90.00000000
_cell_angle_beta   90.00000000
_cell_angle_gamma   90.00000000
_symmetry_Int_Tables_number   1
_chemical_formula_structural   Cu6C7Br2N7
_chemical_formula_sum   'Cu24 C28 Br8 N28'
_cell_volume   3630.75753260
_cell_formula_units_Z   4
loop_
 _symmetry_equiv_pos_site_id
 _symmetry_equiv_pos_as_xyz
  1  'x, y, z'
loop_
 _atom_site_type_symbol
 _atom_site_label
 _atom_site_symmetry_multiplicity
 _atom_site_fract_x
 _atom_site_fract_y
 _atom_site_fract_z
 _atom_site_occupancy
  Cu  Cu0  1  0.79558000  0.05964000  0.04798000  1
  Cu  Cu1  1  0.79558000  0.05964000  0.45202000  1
  Cu  Cu2  1  0.81480000  0.06775000  0.16455000  1
  Cu  Cu3  1  0.81480000  0.06775000  0.33545000  1
  Cu  Cu4  1  0.42015000  0.16837000  0.57816000  1
  Cu  Cu5  1  0.42015000  0.16837000  0.92184000  1
  Cu  Cu6  1  0.92015000  0.33163000  0.07816000  1
  Cu  Cu7  1  0.92015000  0.33163000  0.42184000  1
  Cu  Cu8  1  0.31480000  0.43225000  0.66455000  1
  Cu  Cu9  1  0.31480000  0.43225000  0.83545000  1
  Cu  Cu10  1  0.29558000  0.44036000  0.54798000  1
  Cu  Cu11  1  0.29558000  0.44036000  0.95202000  1
  Cu  Cu12  1  0.70442000  0.55964000  0.04798000  1
  Cu  Cu13  1  0.70442000  0.55964000  0.45202000  1
  Cu  Cu14  1  0.68520000  0.56775000  0.16455000  1
  Cu  Cu15  1  0.68520000  0.56775000  0.33545000  1
  Cu  Cu16  1  0.07985000  0.66837000  0.57816000  1
  Cu  Cu17  1  0.07985000  0.66837000  0.92184000  1
  Cu  Cu18  1  0.57985000  0.83163000  0.07816000  1
  Cu  Cu19  1  0.57985000  0.83163000  0.42184000  1
  Cu  Cu20  1  0.18520000  0.93225000  0.66455000  1
  Cu  Cu21  1  0.18520000  0.93225000  0.83545000  1
  Cu  Cu22  1  0.20442000  0.94036000  0.54798000  1
  Cu  Cu23  1  0.20442000  0.94036000  0.95202000  1
  C  C24  1  0.95550000  0.01380000  0.01140000  1
  C  C25  1  0.26240000  0.02700000  0.62550000  1
  C  C26  1  0.26240000  0.02700000  0.87450000  1
  C  C27  1  0.64750000  0.10450000  0.00520000  1
  C  C28  1  0.64750000  0.10450000  0.49480000  1
  C  C29  1  0.86450000  0.16650000  0.12210000  1
  C  C30  1  0.86450000  0.16650000  0.37790000  1
  C  C31  1  0.36450000  0.33350000  0.62210000  1
  C  C32  1  0.36450000  0.33350000  0.87790000  1
  C  C33  1  0.14750000  0.39550000  0.50520000  1
  C  C34  1  0.14750000  0.39550000  0.99480000  1
  C  C35  1  0.76240000  0.47300000  0.12550000  1
  C  C36  1  0.76240000  0.47300000  0.37450000  1
  C  C37  1  0.45550000  0.48620000  0.98860000  1
  C  C38  1  0.54450000  0.51380000  0.48860000  1
  C  C39  1  0.23760000  0.52700000  0.62550000  1
  C  C40  1  0.23760000  0.52700000  0.87450000  1
  C  C41  1  0.85250000  0.60450000  0.00520000  1
  C  C42  1  0.85250000  0.60450000  0.49480000  1
  C  C43  1  0.63550000  0.66650000  0.12210000  1
  C  C44  1  0.63550000  0.66650000  0.37790000  1
  C  C45  1  0.13550000  0.83350000  0.62210000  1
  C  C46  1  0.13550000  0.83350000  0.87790000  1
  C  C47  1  0.35250000  0.89550000  0.50520000  1
  C  C48  1  0.35250000  0.89550000  0.99480000  1
  C  C49  1  0.73760000  0.97300000  0.12550000  1
  C  C50  1  0.73760000  0.97300000  0.37450000  1
  C  C51  1  0.04450000  0.98620000  0.51140000  1
  Br  Br52  1  0.98423000  0.03354000  0.25000000  1
  Br  Br53  1  0.62957000  0.11294000  0.25000000  1
  Br  Br54  1  0.12957000  0.38706000  0.75000000  1
  Br  Br55  1  0.48423000  0.46646000  0.75000000  1
  Br  Br56  1  0.51577000  0.53354000  0.25000000  1
  Br  Br57  1  0.87043000  0.61294000  0.25000000  1
  Br  Br58  1  0.37043000  0.88706000  0.75000000  1
  Br  Br59  1  0.01577000  0.96646000  0.75000000  1
  N  N60  1  0.95550000  0.01380000  0.48860000  1
  N  N61  1  0.30830000  0.07860000  0.61060000  1
  N  N62  1  0.30830000  0.07860000  0.88940000  1
  N  N63  1  0.56640000  0.13110000  0.52490000  1
  N  N64  1  0.56640000  0.13110000  0.97510000  1
  N  N65  1  0.88170000  0.22230000  0.10500000  1
  N  N66  1  0.88170000  0.22230000  0.39500000  1
  N  N67  1  0.38170000  0.27770000  0.60500000  1
  N  N68  1  0.38170000  0.27770000  0.89500000  1
  N  N69  1  0.06640000  0.36890000  0.02490000  1
  N  N70  1  0.06640000  0.36890000  0.47510000  1
  N  N71  1  0.80830000  0.42140000  0.11060000  1
  N  N72  1  0.80830000  0.42140000  0.38940000  1
  N  N73  1  0.45550000  0.48620000  0.51140000  1
  N  N74  1  0.54450000  0.51380000  0.01140000  1
  N  N75  1  0.19170000  0.57860000  0.61060000  1
  N  N76  1  0.19170000  0.57860000  0.88940000  1
  N  N77  1  0.93360000  0.63110000  0.52490000  1
  N  N78  1  0.93360000  0.63110000  0.97510000  1
  N  N79  1  0.61830000  0.72230000  0.10500000  1
  N  N80  1  0.61830000  0.72230000  0.39500000  1
  N  N81  1  0.11830000  0.77770000  0.60500000  1
  N  N82  1  0.11830000  0.77770000  0.89500000  1
  N  N83  1  0.43360000  0.86890000  0.02490000  1
  N  N84  1  0.43360000  0.86890000  0.47510000  1
  N  N85  1  0.69170000  0.92140000  0.11060000  1
  N  N86  1  0.69170000  0.92140000  0.38940000  1
  N  N87  1  0.04450000  0.98620000  0.98860000  1
