# generated using pymatgen
data_Pr4H22C14N28O25
_symmetry_space_group_name_H-M   'P 1'
_cell_length_a   17.03000000
_cell_length_b   17.08600000
_cell_length_c   21.12100000
_cell_angle_alpha   90.00000000
_cell_angle_beta   90.00000000
_cell_angle_gamma   99.15800000
_symmetry_Int_Tables_number   1
_chemical_formula_structural   Pr4H22C14N28O25
_chemical_formula_sum   'Pr16 H88 C56 N112 O100'
_cell_volume   6067.33641861
_cell_formula_units_Z   4
loop_
 _symmetry_equiv_pos_site_id
 _symmetry_equiv_pos_as_xyz
  1  'x, y, z'
loop_
 _atom_site_type_symbol
 _atom_site_label
 _atom_site_symmetry_multiplicity
 _atom_site_fract_x
 _atom_site_fract_y
 _atom_site_fract_z
 _atom_site_occupancy
  Pr  Pr0  1  0.01734000  0.36069000  0.14381000  1
  Pr  Pr1  1  0.03776000  0.72955000  0.04831000  1
  Pr  Pr2  1  0.06229000  0.87287000  0.34127000  1
  Pr  Pr3  1  0.12947000  0.25099000  0.41675000  1
  Pr  Pr4  1  0.37053000  0.74901000  0.91675000  1
  Pr  Pr5  1  0.43771000  0.12713000  0.84127000  1
  Pr  Pr6  1  0.46224000  0.27045000  0.54831000  1
  Pr  Pr7  1  0.48266000  0.63931000  0.64381000  1
  Pr  Pr8  1  0.51734000  0.36069000  0.35619000  1
  Pr  Pr9  1  0.53776000  0.72955000  0.45168000  1
  Pr  Pr10  1  0.56229000  0.87287000  0.15873000  1
  Pr  Pr11  1  0.62947000  0.25099000  0.08325000  1
  Pr  Pr12  1  0.87053000  0.74901000  0.58325000  1
  Pr  Pr13  1  0.93771000  0.12713000  0.65873000  1
  Pr  Pr14  1  0.96224000  0.27045000  0.95169000  1
  Pr  Pr15  1  0.98266000  0.63931000  0.85619000  1
  H  H16  1  0.00710000  0.69440000  0.36460000  1
  H  H17  1  0.00760000  0.65890000  0.17960000  1
  H  H18  1  0.00790000  0.75700000  0.49911000  1
  H  H19  1  0.01280000  0.85920000  0.95205000  1
  H  H20  1  0.02210000  0.18390000  0.16170000  1
  H  H21  1  0.02230000  0.68940000  0.52610000  1
  H  H22  1  0.02367000  0.17850000  0.31340000  1
  H  H23  1  0.05510000  0.81500000  0.85130000  1
  H  H24  1  0.06270000  0.69420000  0.32010000  1
  H  H25  1  0.07690000  0.89130000  0.98560000  1
  H  H26  1  0.07960000  0.70460000  0.18600000  1
  H  H27  1  0.09330000  0.18310000  0.28338000  1
  H  H28  1  0.11560000  0.88810000  0.47740000  1
  H  H29  1  0.14650000  0.39870000  0.50447000  1
  H  H30  1  0.15730000  0.82980000  0.46380000  1
  H  H31  1  0.17110000  0.33940000  0.20788000  1
  H  H32  1  0.18730000  0.34450000  0.14597000  1
  H  H33  1  0.19420000  0.79670000  0.29200000  1
  H  H34  1  0.20240000  0.41830000  0.46010000  1
  H  H35  1  0.20500000  0.80230000  0.09161000  1
  H  H36  1  0.20770000  0.77250000  0.03306000  1
  H  H37  1  0.23310000  0.86970000  0.30180000  1
  H  H38  1  0.26690000  0.13030000  0.80180000  1
  H  H39  1  0.29230000  0.22750000  0.53306000  1
  H  H40  1  0.29500000  0.19770000  0.59161000  1
  H  H41  1  0.29760000  0.58170000  0.96010000  1
  H  H42  1  0.30580000  0.20330000  0.79200000  1
  H  H43  1  0.31270000  0.65550000  0.64597000  1
  H  H44  1  0.32890000  0.66060000  0.70788000  1
  H  H45  1  0.34270000  0.17020000  0.96380000  1
  H  H46  1  0.35350000  0.60130000  0.00447000  1
  H  H47  1  0.38440000  0.11190000  0.97740000  1
  H  H48  1  0.40670000  0.81690000  0.78338000  1
  H  H49  1  0.42040000  0.29540000  0.68600000  1
  H  H50  1  0.42310000  0.10870000  0.48560000  1
  H  H51  1  0.43730000  0.30580000  0.82010000  1
  H  H52  1  0.44490000  0.18500000  0.35130000  1
  H  H53  1  0.47633000  0.82150000  0.81340000  1
  H  H54  1  0.47770000  0.31060000  0.02610000  1
  H  H55  1  0.47790000  0.81610000  0.66170000  1
  H  H56  1  0.48720000  0.14080000  0.45205000  1
  H  H57  1  0.49210000  0.24300000  0.99911000  1
  H  H58  1  0.49240000  0.34110000  0.67960000  1
  H  H59  1  0.49290000  0.30560000  0.86460000  1
  H  H60  1  0.50710000  0.69440000  0.13540000  1
  H  H61  1  0.50760000  0.65890000  0.32040000  1
  H  H62  1  0.50790000  0.75700000  0.00089000  1
  H  H63  1  0.51280000  0.85920000  0.54795000  1
  H  H64  1  0.52210000  0.18390000  0.33830000  1
  H  H65  1  0.52230000  0.68940000  0.97390000  1
  H  H66  1  0.52367000  0.17850000  0.18660000  1
  H  H67  1  0.55510000  0.81500000  0.64870000  1
  H  H68  1  0.56270000  0.69420000  0.17990000  1
  H  H69  1  0.57690000  0.89130000  0.51440000  1
  H  H70  1  0.57960000  0.70460000  0.31400000  1
  H  H71  1  0.59330000  0.18310000  0.21662000  1
  H  H72  1  0.61560000  0.88810000  0.02260000  1
  H  H73  1  0.64650000  0.39870000  0.99553000  1
  H  H74  1  0.65730000  0.82980000  0.03620000  1
  H  H75  1  0.67110000  0.33940000  0.29212000  1
  H  H76  1  0.68730000  0.34450000  0.35403000  1
  H  H77  1  0.69420000  0.79670000  0.20800000  1
  H  H78  1  0.70240000  0.41830000  0.03990000  1
  H  H79  1  0.70500000  0.80230000  0.40839000  1
  H  H80  1  0.70770000  0.77250000  0.46694000  1
  H  H81  1  0.73310000  0.86970000  0.19820000  1
  H  H82  1  0.76690000  0.13030000  0.69820000  1
  H  H83  1  0.79230000  0.22750000  0.96694000  1
  H  H84  1  0.79500000  0.19770000  0.90839000  1
  H  H85  1  0.79760000  0.58170000  0.53990000  1
  H  H86  1  0.80580000  0.20330000  0.70800000  1
  H  H87  1  0.81270000  0.65550000  0.85403000  1
  H  H88  1  0.82890000  0.66060000  0.79212000  1
  H  H89  1  0.84270000  0.17020000  0.53620000  1
  H  H90  1  0.85350000  0.60130000  0.49553000  1
  H  H91  1  0.88440000  0.11190000  0.52260000  1
  H  H92  1  0.90670000  0.81690000  0.71662000  1
  H  H93  1  0.92040000  0.29540000  0.81400000  1
  H  H94  1  0.92310000  0.10870000  0.01440000  1
  H  H95  1  0.93730000  0.30580000  0.67990000  1
  H  H96  1  0.94490000  0.18500000  0.14870000  1
  H  H97  1  0.97633000  0.82150000  0.68660000  1
  H  H98  1  0.97770000  0.31060000  0.47390000  1
  H  H99  1  0.97790000  0.81610000  0.83830000  1
  H  H100  1  0.98720000  0.14080000  0.04795000  1
  H  H101  1  0.99210000  0.24300000  0.50089000  1
  H  H102  1  0.99240000  0.34110000  0.82040000  1
  H  H103  1  0.99290000  0.30560000  0.63540000  1
  C  C104  1  0.01533000  0.46619000  0.92040000  1
  C  C105  1  0.04650000  0.95419000  0.19309000  1
  C  C106  1  0.04880000  0.87041000  0.17744000  1
  C  C107  1  0.04890000  0.45589000  0.28582000  1
  C  C108  1  0.04934000  0.37216000  0.30399000  1
  C  C109  1  0.06548000  0.05380000  0.40736000  1
  C  C110  1  0.07111000  0.53958000  0.07447000  1
  C  C111  1  0.10556000  0.18934000  0.57318000  1
  C  C112  1  0.13730000  0.16440000  0.63432000  1
  C  C113  1  0.14200000  0.30380000  0.02952000  1
  C  C114  1  0.14643000  0.06122000  0.38294000  1
  C  C115  1  0.15800000  0.27070000  0.96870000  1
  C  C116  1  0.16687000  0.70803000  0.92002000  1
  C  C117  1  0.18284000  0.68433000  0.85450000  1
  C  C118  1  0.31716000  0.31567000  0.35450000  1
  C  C119  1  0.33313000  0.29197000  0.42002000  1
  C  C120  1  0.34200000  0.72930000  0.46870000  1
  C  C121  1  0.35357000  0.93878000  0.88294000  1
  C  C122  1  0.35800000  0.69620000  0.52952000  1
  C  C123  1  0.36270000  0.83560000  0.13432000  1
  C  C124  1  0.39444000  0.81066000  0.07318000  1
  C  C125  1  0.42889000  0.46042000  0.57447000  1
  C  C126  1  0.43452000  0.94620000  0.90736000  1
  C  C127  1  0.45066000  0.62784000  0.80399000  1
  C  C128  1  0.45110000  0.54411000  0.78582000  1
  C  C129  1  0.45120000  0.12959000  0.67744000  1
  C  C130  1  0.45350000  0.04581000  0.69309000  1
  C  C131  1  0.48467000  0.53381000  0.42040000  1
  C  C132  1  0.51533000  0.46619000  0.57960000  1
  C  C133  1  0.54650000  0.95419000  0.30691000  1
  C  C134  1  0.54880000  0.87041000  0.32256000  1
  C  C135  1  0.54890000  0.45589000  0.21418000  1
  C  C136  1  0.54934000  0.37216000  0.19601000  1
  C  C137  1  0.56548000  0.05380000  0.09264000  1
  C  C138  1  0.57111000  0.53958000  0.42553000  1
  C  C139  1  0.60556000  0.18934000  0.92682000  1
  C  C140  1  0.63730000  0.16440000  0.86568000  1
  C  C141  1  0.64200000  0.30380000  0.47048000  1
  C  C142  1  0.64643000  0.06122000  0.11706000  1
  C  C143  1  0.65800000  0.27070000  0.53130000  1
  C  C144  1  0.66687000  0.70803000  0.57998000  1
  C  C145  1  0.68284000  0.68433000  0.64550000  1
  C  C146  1  0.81716000  0.31567000  0.14550000  1
  C  C147  1  0.83313000  0.29197000  0.07998000  1
  C  C148  1  0.84200000  0.72930000  0.03130000  1
  C  C149  1  0.85357000  0.93878000  0.61706000  1
  C  C150  1  0.85800000  0.69620000  0.97048000  1
  C  C151  1  0.86270000  0.83560000  0.36568000  1
  C  C152  1  0.89444000  0.81066000  0.42682000  1
  C  C153  1  0.92889000  0.46042000  0.92553000  1
  C  C154  1  0.93452000  0.94620000  0.59264000  1
  C  C155  1  0.95066000  0.62784000  0.69601000  1
  C  C156  1  0.95110000  0.54411000  0.71418000  1
  C  C157  1  0.95120000  0.12959000  0.82256000  1
  C  C158  1  0.95350000  0.04581000  0.80691000  1
  C  C159  1  0.98467000  0.53381000  0.07960000  1
  N  N160  1  0.01109000  0.98823000  0.40375000  1
  N  N161  1  0.03480000  0.47621000  0.22759000  1
  N  N162  1  0.03607000  0.11382000  0.43551000  1
  N  N163  1  0.04034000  0.91728000  0.54964000  1
  N  N164  1  0.04100000  0.55514000  0.22837000  1
  N  N165  1  0.04140000  0.01240000  0.15222000  1
  N  N166  1  0.04270000  0.07750000  0.19060000  1
  N  N167  1  0.04740000  0.05596000  0.24976000  1
  N  N168  1  0.04974000  0.97824000  0.25246000  1
  N  N169  1  0.05482000  0.99268000  0.56897000  1
  N  N170  1  0.06190000  0.58230000  0.28524000  1
  N  N171  1  0.06550000  0.52000000  0.32417000  1
  N  N172  1  0.08899000  0.13740000  0.68224000  1
  N  N173  1  0.10167000  0.24399000  0.92741000  1
  N  N174  1  0.10795000  0.48167000  0.09123000  1
  N  N175  1  0.11423000  0.60480000  0.05475000  1
  N  N176  1  0.12903000  0.65717000  0.81052000  1
  N  N177  1  0.13719000  0.11840000  0.72868000  1
  N  N178  1  0.13770000  0.21520000  0.87726000  1
  N  N179  1  0.17153000  0.64371000  0.75992000  1
  N  N180  1  0.18980000  0.51260000  0.07860000  1
  N  N181  1  0.19500000  0.58390000  0.05690000  1
  N  N182  1  0.21120000  0.13420000  0.70776000  1
  N  N183  1  0.21230000  0.16120000  0.64817000  1
  N  N184  1  0.21430000  0.22450000  0.89100000  1
  N  N185  1  0.23020000  0.26370000  0.94630000  1
  N  N186  1  0.24407000  0.30928000  0.33266000  1
  N  N187  1  0.24679000  0.66432000  0.77195000  1
  N  N188  1  0.25321000  0.33568000  0.27195000  1
  N  N189  1  0.25593000  0.69072000  0.83266000  1
  N  N190  1  0.26980000  0.73630000  0.44630000  1
  N  N191  1  0.28570000  0.77550000  0.39100000  1
  N  N192  1  0.28770000  0.83880000  0.14817000  1
  N  N193  1  0.28880000  0.86580000  0.20776000  1
  N  N194  1  0.30500000  0.41610000  0.55690000  1
  N  N195  1  0.31020000  0.48740000  0.57860000  1
  N  N196  1  0.32847000  0.35629000  0.25992000  1
  N  N197  1  0.36230000  0.78480000  0.37726000  1
  N  N198  1  0.36281000  0.88160000  0.22868000  1
  N  N199  1  0.37097000  0.34283000  0.31052000  1
  N  N200  1  0.38577000  0.39520000  0.55475000  1
  N  N201  1  0.39205000  0.51833000  0.59123000  1
  N  N202  1  0.39833000  0.75601000  0.42741000  1
  N  N203  1  0.41101000  0.86260000  0.18224000  1
  N  N204  1  0.43450000  0.48000000  0.82417000  1
  N  N205  1  0.43810000  0.41770000  0.78524000  1
  N  N206  1  0.44518000  0.00732000  0.06897000  1
  N  N207  1  0.45026000  0.02176000  0.75246000  1
  N  N208  1  0.45260000  0.94404000  0.74976000  1
  N  N209  1  0.45730000  0.92250000  0.69060000  1
  N  N210  1  0.45860000  0.98760000  0.65222000  1
  N  N211  1  0.45900000  0.44486000  0.72837000  1
  N  N212  1  0.45966000  0.08272000  0.04964000  1
  N  N213  1  0.46393000  0.88618000  0.93551000  1
  N  N214  1  0.46520000  0.52379000  0.72759000  1
  N  N215  1  0.48891000  0.01177000  0.90375000  1
  N  N216  1  0.51109000  0.98823000  0.09625000  1
  N  N217  1  0.53480000  0.47621000  0.27241000  1
  N  N218  1  0.53607000  0.11382000  0.06449000  1
  N  N219  1  0.54034000  0.91728000  0.95036000  1
  N  N220  1  0.54100000  0.55514000  0.27163000  1
  N  N221  1  0.54140000  0.01240000  0.34778000  1
  N  N222  1  0.54270000  0.07750000  0.30940000  1
  N  N223  1  0.54740000  0.05596000  0.25024000  1
  N  N224  1  0.54974000  0.97824000  0.24754000  1
  N  N225  1  0.55482000  0.99268000  0.93103000  1
  N  N226  1  0.56190000  0.58230000  0.21476000  1
  N  N227  1  0.56550000  0.52000000  0.17583000  1
  N  N228  1  0.58899000  0.13740000  0.81776000  1
  N  N229  1  0.60167000  0.24399000  0.57259000  1
  N  N230  1  0.60795000  0.48167000  0.40877000  1
  N  N231  1  0.61423000  0.60480000  0.44525000  1
  N  N232  1  0.62903000  0.65717000  0.68948000  1
  N  N233  1  0.63719000  0.11840000  0.77132000  1
  N  N234  1  0.63770000  0.21520000  0.62274000  1
  N  N235  1  0.67153000  0.64371000  0.74008000  1
  N  N236  1  0.68980000  0.51260000  0.42140000  1
  N  N237  1  0.69500000  0.58390000  0.44310000  1
  N  N238  1  0.71120000  0.13420000  0.79224000  1
  N  N239  1  0.71230000  0.16120000  0.85183000  1
  N  N240  1  0.71430000  0.22450000  0.60900000  1
  N  N241  1  0.73020000  0.26370000  0.55370000  1
  N  N242  1  0.74407000  0.30928000  0.16734000  1
  N  N243  1  0.74679000  0.66432000  0.72805000  1
  N  N244  1  0.75321000  0.33568000  0.22805000  1
  N  N245  1  0.75593000  0.69072000  0.66734000  1
  N  N246  1  0.76980000  0.73630000  0.05370000  1
  N  N247  1  0.78570000  0.77550000  0.10900000  1
  N  N248  1  0.78770000  0.83880000  0.35183000  1
  N  N249  1  0.78880000  0.86580000  0.29224000  1
  N  N250  1  0.80500000  0.41610000  0.94310000  1
  N  N251  1  0.81020000  0.48740000  0.92140000  1
  N  N252  1  0.82847000  0.35629000  0.24008000  1
  N  N253  1  0.86230000  0.78480000  0.12274000  1
  N  N254  1  0.86281000  0.88160000  0.27132000  1
  N  N255  1  0.87097000  0.34283000  0.18948000  1
  N  N256  1  0.88577000  0.39520000  0.94525000  1
  N  N257  1  0.89205000  0.51833000  0.90877000  1
  N  N258  1  0.89833000  0.75601000  0.07259000  1
  N  N259  1  0.91101000  0.86260000  0.31776000  1
  N  N260  1  0.93450000  0.48000000  0.67583000  1
  N  N261  1  0.93810000  0.41770000  0.71476000  1
  N  N262  1  0.94518000  0.00732000  0.43103000  1
  N  N263  1  0.95026000  0.02176000  0.74754000  1
  N  N264  1  0.95260000  0.94404000  0.75024000  1
  N  N265  1  0.95730000  0.92250000  0.80940000  1
  N  N266  1  0.95860000  0.98760000  0.84778000  1
  N  N267  1  0.95900000  0.44486000  0.77163000  1
  N  N268  1  0.95966000  0.08272000  0.45036000  1
  N  N269  1  0.96393000  0.88618000  0.56449000  1
  N  N270  1  0.96520000  0.52379000  0.77241000  1
  N  N271  1  0.98891000  0.01177000  0.59625000  1
  O  O272  1  0.00450000  0.27314000  0.46939000  1
  O  O273  1  0.01099000  0.78481000  0.84523000  1
  O  O274  1  0.02724000  0.32370000  0.25939000  1
  O  O275  1  0.03036000  0.18685000  0.57337000  1
  O  O276  1  0.03948000  0.72571000  0.34194000  1
  O  O277  1  0.04115000  0.69280000  0.16053000  1
  O  O278  1  0.04158000  0.85027000  0.98318000  1
  O  O279  1  0.04773000  0.40700000  0.93285000  1
  O  O280  1  0.04777000  0.84866000  0.12142000  1
  O  O281  1  0.05389000  0.82622000  0.22637000  1
  O  O282  1  0.05525000  0.53244000  0.90199000  1
  O  O283  1  0.06945000  0.30864000  0.04229000  1
  O  O284  1  0.07211000  0.19965000  0.31618000  1
  O  O285  1  0.07285000  0.35579000  0.35651000  1
  O  O286  1  0.09377000  0.70115000  0.93656000  1
  O  O287  1  0.12901000  0.86073000  0.44681000  1
  O  O288  1  0.15000000  0.21168000  0.52889000  1
  O  O289  1  0.15338000  0.35455000  0.17305000  1
  O  O290  1  0.16640000  0.99892000  0.35781000  1
  O  O291  1  0.16722000  0.38030000  0.47222000  1
  O  O292  1  0.17553000  0.78621000  0.06024000  1
  O  O293  1  0.18954000  0.12757000  0.38756000  1
  O  O294  1  0.19069000  0.83911000  0.31213000  1
  O  O295  1  0.20130000  0.32910000  0.06387000  1
  O  O296  1  0.22489000  0.73122000  0.95313000  1
  O  O297  1  0.27511000  0.26878000  0.45313000  1
  O  O298  1  0.29870000  0.67090000  0.56387000  1
  O  O299  1  0.30931000  0.16089000  0.81213000  1
  O  O300  1  0.31046000  0.87243000  0.88756000  1
  O  O301  1  0.32447000  0.21379000  0.56024000  1
  O  O302  1  0.33278000  0.61970000  0.97222000  1
  O  O303  1  0.33360000  0.00108000  0.85781000  1
  O  O304  1  0.34662000  0.64545000  0.67305000  1
  O  O305  1  0.35000000  0.78832000  0.02889000  1
  O  O306  1  0.37099000  0.13927000  0.94681000  1
  O  O307  1  0.40623000  0.29885000  0.43656000  1
  O  O308  1  0.42715000  0.64421000  0.85651000  1
  O  O309  1  0.42789000  0.80035000  0.81618000  1
  O  O310  1  0.43055000  0.69136000  0.54229000  1
  O  O311  1  0.44475000  0.46756000  0.40199000  1
  O  O312  1  0.44611000  0.17378000  0.72637000  1
  O  O313  1  0.45223000  0.15134000  0.62142000  1
  O  O314  1  0.45227000  0.59300000  0.43285000  1
  O  O315  1  0.45842000  0.14973000  0.48318000  1
  O  O316  1  0.45885000  0.30720000  0.66053000  1
  O  O317  1  0.46052000  0.27429000  0.84194000  1
  O  O318  1  0.46964000  0.81315000  0.07337000  1
  O  O319  1  0.47276000  0.67630000  0.75939000  1
  O  O320  1  0.48901000  0.21519000  0.34523000  1
  O  O321  1  0.49550000  0.72686000  0.96939000  1
  O  O322  1  0.50450000  0.27314000  0.03061000  1
  O  O323  1  0.51099000  0.78481000  0.65477000  1
  O  O324  1  0.52724000  0.32370000  0.24061000  1
  O  O325  1  0.53036000  0.18685000  0.92663000  1
  O  O326  1  0.53948000  0.72571000  0.15806000  1
  O  O327  1  0.54115000  0.69280000  0.33947000  1
  O  O328  1  0.54158000  0.85027000  0.51682000  1
  O  O329  1  0.54773000  0.40700000  0.56715000  1
  O  O330  1  0.54777000  0.84866000  0.37858000  1
  O  O331  1  0.55389000  0.82622000  0.27363000  1
  O  O332  1  0.55525000  0.53244000  0.59801000  1
  O  O333  1  0.56945000  0.30864000  0.45771000  1
  O  O334  1  0.57211000  0.19965000  0.18382000  1
  O  O335  1  0.57285000  0.35579000  0.14349000  1
  O  O336  1  0.59377000  0.70115000  0.56344000  1
  O  O337  1  0.62901000  0.86073000  0.05319000  1
  O  O338  1  0.65000000  0.21168000  0.97111000  1
  O  O339  1  0.65338000  0.35455000  0.32695000  1
  O  O340  1  0.66640000  0.99892000  0.14219000  1
  O  O341  1  0.66722000  0.38030000  0.02778000  1
  O  O342  1  0.67553000  0.78621000  0.43976000  1
  O  O343  1  0.68954000  0.12757000  0.11244000  1
  O  O344  1  0.69069000  0.83911000  0.18787000  1
  O  O345  1  0.70130000  0.32910000  0.43613000  1
  O  O346  1  0.72489000  0.73122000  0.54687000  1
  O  O347  1  0.77511000  0.26878000  0.04687000  1
  O  O348  1  0.79870000  0.67090000  0.93613000  1
  O  O349  1  0.80931000  0.16089000  0.68787000  1
  O  O350  1  0.81046000  0.87243000  0.61244000  1
  O  O351  1  0.82447000  0.21379000  0.93976000  1
  O  O352  1  0.83278000  0.61970000  0.52778000  1
  O  O353  1  0.83360000  0.00108000  0.64219000  1
  O  O354  1  0.84662000  0.64545000  0.82695000  1
  O  O355  1  0.85000000  0.78832000  0.47111000  1
  O  O356  1  0.87099000  0.13927000  0.55319000  1
  O  O357  1  0.90623000  0.29885000  0.06344000  1
  O  O358  1  0.92715000  0.64421000  0.64349000  1
  O  O359  1  0.92789000  0.80035000  0.68382000  1
  O  O360  1  0.93055000  0.69136000  0.95771000  1
  O  O361  1  0.94475000  0.46756000  0.09801000  1
  O  O362  1  0.94611000  0.17378000  0.77363000  1
  O  O363  1  0.95223000  0.15134000  0.87858000  1
  O  O364  1  0.95227000  0.59300000  0.06715000  1
  O  O365  1  0.95842000  0.14973000  0.01682000  1
  O  O366  1  0.95885000  0.30720000  0.83947000  1
  O  O367  1  0.96052000  0.27429000  0.65806000  1
  O  O368  1  0.96964000  0.81315000  0.42663000  1
  O  O369  1  0.97276000  0.67630000  0.74061000  1
  O  O370  1  0.98901000  0.21519000  0.15477000  1
  O  O371  1  0.99550000  0.72686000  0.53061000  1
