# generated using pymatgen
data_SrZnH8(C2O)8
_symmetry_space_group_name_H-M   'P 1'
_cell_length_a   10.40640000
_cell_length_b   14.49840000
_cell_length_c   18.53320000
_cell_angle_alpha   90.00000000
_cell_angle_beta   90.00000000
_cell_angle_gamma   100.15300000
_symmetry_Int_Tables_number   1
_chemical_formula_structural   SrZnH8(C2O)8
_chemical_formula_sum   'Sr4 Zn4 H32 C64 O32'
_cell_volume   2752.43059779
_cell_formula_units_Z   4
loop_
 _symmetry_equiv_pos_site_id
 _symmetry_equiv_pos_as_xyz
  1  'x, y, z'
loop_
 _atom_site_type_symbol
 _atom_site_label
 _atom_site_symmetry_multiplicity
 _atom_site_fract_x
 _atom_site_fract_y
 _atom_site_fract_z
 _atom_site_occupancy
  Sr  Sr0  1  0.10654000  0.31751000  0.69530000  1
  Sr  Sr1  1  0.39346000  0.18249000  0.19530000  1
  Sr  Sr2  1  0.60654000  0.81751000  0.80470000  1
  Sr  Sr3  1  0.89346000  0.68249000  0.30470000  1
  Zn  Zn4  1  0.19417000  0.55600000  0.81875000  1
  Zn  Zn5  1  0.30583000  0.94400000  0.31875000  1
  Zn  Zn6  1  0.69417000  0.05600000  0.68125000  1
  Zn  Zn7  1  0.80583000  0.44400000  0.18125000  1
  H  H8  1  0.04010000  0.83530000  0.77490000  1
  H  H9  1  0.06280000  0.03900000  0.62940000  1
  H  H10  1  0.08390000  0.60930000  0.43130000  1
  H  H11  1  0.08460000  0.52160000  0.53460000  1
  H  H12  1  0.21360000  0.45730000  0.11920000  1
  H  H13  1  0.21910000  0.66920000  0.03330000  1
  H  H14  1  0.22980000  0.75340000  0.13930000  1
  H  H15  1  0.23910000  0.66650000  0.26190000  1
  H  H16  1  0.26090000  0.83350000  0.76190000  1
  H  H17  1  0.27020000  0.74660000  0.63930000  1
  H  H18  1  0.28090000  0.83080000  0.53330000  1
  H  H19  1  0.28640000  0.04270000  0.61920000  1
  H  H20  1  0.41540000  0.97840000  0.03460000  1
  H  H21  1  0.41610000  0.89070000  0.93130000  1
  H  H22  1  0.43720000  0.46100000  0.12940000  1
  H  H23  1  0.45990000  0.66470000  0.27490000  1
  H  H24  1  0.54010000  0.33530000  0.72510000  1
  H  H25  1  0.56280000  0.53900000  0.87060000  1
  H  H26  1  0.58390000  0.10930000  0.06870000  1
  H  H27  1  0.58460000  0.02160000  0.96540000  1
  H  H28  1  0.71360000  0.95730000  0.38080000  1
  H  H29  1  0.71910000  0.16920000  0.46670000  1
  H  H30  1  0.72980000  0.25340000  0.36070000  1
  H  H31  1  0.73910000  0.16650000  0.23810000  1
  H  H32  1  0.76090000  0.33350000  0.73810000  1
  H  H33  1  0.77020000  0.24660000  0.86070000  1
  H  H34  1  0.78090000  0.33080000  0.96670000  1
  H  H35  1  0.78640000  0.54270000  0.88080000  1
  H  H36  1  0.91540000  0.47840000  0.46540000  1
  H  H37  1  0.91610000  0.39070000  0.56870000  1
  H  H38  1  0.93720000  0.96100000  0.37060000  1
  H  H39  1  0.95990000  0.16470000  0.22510000  1
  C  C40  1  0.02930000  0.93690000  0.70320000  1
  C  C41  1  0.05860000  0.55910000  0.18420000  1
  C  C42  1  0.08920000  0.87650000  0.74280000  1
  C  C43  1  0.10260000  0.99830000  0.65680000  1
  C  C44  1  0.11480000  0.06270000  0.28770000  1
  C  C45  1  0.12130000  0.58490000  0.53530000  1
  C  C46  1  0.12340000  0.63690000  0.47290000  1
  C  C47  1  0.16230000  0.56870000  0.66690000  1
  C  C48  1  0.17290000  0.62560000  0.59840000  1
  C  C49  1  0.18330000  0.72920000  0.47160000  1
  C  C50  1  0.18740000  0.78550000  0.40270000  1
  C  C51  1  0.20330000  0.56110000  0.18950000  1
  C  C52  1  0.22220000  0.87600000  0.73570000  1
  C  C53  1  0.23320000  0.71820000  0.59740000  1
  C  C54  1  0.23720000  0.00000000  0.65020000  1
  C  C55  1  0.23870000  0.76870000  0.53380000  1
  C  C56  1  0.26130000  0.73130000  0.03380000  1
  C  C57  1  0.26280000  0.50000000  0.15020000  1
  C  C58  1  0.26680000  0.78180000  0.09740000  1
  C  C59  1  0.27780000  0.62400000  0.23570000  1
  C  C60  1  0.29670000  0.93890000  0.68950000  1
  C  C61  1  0.31260000  0.71450000  0.90270000  1
  C  C62  1  0.31670000  0.77080000  0.97160000  1
  C  C63  1  0.32710000  0.87440000  0.09840000  1
  C  C64  1  0.33770000  0.93130000  0.16690000  1
  C  C65  1  0.37660000  0.86310000  0.97290000  1
  C  C66  1  0.37870000  0.91510000  0.03530000  1
  C  C67  1  0.38520000  0.43730000  0.78770000  1
  C  C68  1  0.39740000  0.50170000  0.15680000  1
  C  C69  1  0.41080000  0.62350000  0.24280000  1
  C  C70  1  0.44140000  0.94090000  0.68420000  1
  C  C71  1  0.47070000  0.56310000  0.20320000  1
  C  C72  1  0.52930000  0.43690000  0.79680000  1
  C  C73  1  0.55860000  0.05910000  0.31580000  1
  C  C74  1  0.58920000  0.37650000  0.75720000  1
  C  C75  1  0.60260000  0.49830000  0.84320000  1
  C  C76  1  0.61480000  0.56270000  0.21230000  1
  C  C77  1  0.62130000  0.08490000  0.96470000  1
  C  C78  1  0.62340000  0.13690000  0.02710000  1
  C  C79  1  0.66230000  0.06870000  0.83310000  1
  C  C80  1  0.67290000  0.12560000  0.90160000  1
  C  C81  1  0.68330000  0.22920000  0.02840000  1
  C  C82  1  0.68740000  0.28550000  0.09730000  1
  C  C83  1  0.70330000  0.06110000  0.31050000  1
  C  C84  1  0.72220000  0.37600000  0.76430000  1
  C  C85  1  0.73320000  0.21820000  0.90260000  1
  C  C86  1  0.73720000  0.50000000  0.84980000  1
  C  C87  1  0.73870000  0.26870000  0.96620000  1
  C  C88  1  0.76130000  0.23130000  0.46620000  1
  C  C89  1  0.76280000  0.00000000  0.34980000  1
  C  C90  1  0.76680000  0.28180000  0.40260000  1
  C  C91  1  0.77780000  0.12400000  0.26430000  1
  C  C92  1  0.79670000  0.43890000  0.81050000  1
  C  C93  1  0.81260000  0.21450000  0.59730000  1
  C  C94  1  0.81670000  0.27080000  0.52840000  1
  C  C95  1  0.82710000  0.37440000  0.40160000  1
  C  C96  1  0.83770000  0.43130000  0.33310000  1
  C  C97  1  0.87660000  0.36310000  0.52710000  1
  C  C98  1  0.87870000  0.41510000  0.46470000  1
  C  C99  1  0.88520000  0.93730000  0.71230000  1
  C  C100  1  0.89740000  0.00170000  0.34320000  1
  C  C101  1  0.91080000  0.12350000  0.25720000  1
  C  C102  1  0.94140000  0.44090000  0.81580000  1
  C  C103  1  0.97070000  0.06310000  0.29680000  1
  O  O104  1  0.00910000  0.51560000  0.84043000  1
  O  O105  1  0.01300000  0.62890000  0.20415000  1
  O  O106  1  0.10760000  0.75810000  0.35425000  1
  O  O107  1  0.10980000  0.48470000  0.66426000  1
  O  O108  1  0.16470000  0.01280000  0.33251000  1
  O  O109  1  0.17400000  0.11010000  0.24010000  1
  O  O110  1  0.20540000  0.61260000  0.72341000  1
  O  O111  1  0.22420000  0.64340000  0.89956000  1
  O  O112  1  0.27580000  0.85660000  0.39956000  1
  O  O113  1  0.29460000  0.88740000  0.22341000  1
  O  O114  1  0.32600000  0.38990000  0.74010000  1
  O  O115  1  0.33530000  0.48720000  0.83251000  1
  O  O116  1  0.39020000  0.01530000  0.16426000  1
  O  O117  1  0.39240000  0.74190000  0.85425000  1
  O  O118  1  0.48700000  0.87110000  0.70415000  1
  O  O119  1  0.49090000  0.98440000  0.34043000  1
  O  O120  1  0.50910000  0.01560000  0.65957000  1
  O  O121  1  0.51300000  0.12890000  0.29585000  1
  O  O122  1  0.60760000  0.25810000  0.14575000  1
  O  O123  1  0.60980000  0.98470000  0.83574000  1
  O  O124  1  0.66470000  0.51280000  0.16749000  1
  O  O125  1  0.67400000  0.61010000  0.25990000  1
  O  O126  1  0.70540000  0.11260000  0.77659000  1
  O  O127  1  0.72420000  0.14340000  0.60044000  1
  O  O128  1  0.77580000  0.35660000  0.10044000  1
  O  O129  1  0.79460000  0.38740000  0.27659000  1
  O  O130  1  0.82600000  0.88990000  0.75990000  1
  O  O131  1  0.83530000  0.98720000  0.66749000  1
  O  O132  1  0.89020000  0.51530000  0.33574000  1
  O  O133  1  0.89240000  0.24190000  0.64575000  1
  O  O134  1  0.98700000  0.37110000  0.79585000  1
  O  O135  1  0.99090000  0.48440000  0.15957000  1
