# generated using pymatgen
data_CdH7C13NO4
_symmetry_space_group_name_H-M   'P 1'
_cell_length_a   9.24200000
_cell_length_b   9.72700000
_cell_length_c   18.20100000
_cell_angle_alpha   90.00000000
_cell_angle_beta   90.00000000
_cell_angle_gamma   105.11000000
_symmetry_Int_Tables_number   1
_chemical_formula_structural   CdH7C13NO4
_chemical_formula_sum   'Cd4 H28 C52 N4 O16'
_cell_volume   1579.64551052
_cell_formula_units_Z   4
loop_
 _symmetry_equiv_pos_site_id
 _symmetry_equiv_pos_as_xyz
  1  'x, y, z'
loop_
 _atom_site_type_symbol
 _atom_site_label
 _atom_site_symmetry_multiplicity
 _atom_site_fract_x
 _atom_site_fract_y
 _atom_site_fract_z
 _atom_site_occupancy
  Cd  Cd0  1  0.36637000  0.06172000  0.43373000  1
  Cd  Cd1  1  0.36637000  0.56172000  0.06627000  1
  Cd  Cd2  1  0.63363000  0.43828000  0.93373000  1
  Cd  Cd3  1  0.63363000  0.93828000  0.56627000  1
  H  H4  1  0.02390000  0.39500000  0.04910000  1
  H  H5  1  0.02390000  0.89500000  0.45090000  1
  H  H6  1  0.10390000  0.21700000  0.27430000  1
  H  H7  1  0.10390000  0.71700000  0.22570000  1
  H  H8  1  0.13080000  0.35940000  0.83340000  1
  H  H9  1  0.13080000  0.85940000  0.66666667  1
  H  H10  1  0.16520000  0.27850000  0.60160000  1
  H  H11  1  0.16520000  0.77850000  0.89840000  1
  H  H12  1  0.24900000  0.02240000  0.86730000  1
  H  H13  1  0.24900000  0.52240000  0.63270000  1
  H  H14  1  0.28350000  0.39340000  0.21820000  1
  H  H15  1  0.28350000  0.89340000  0.28180000  1
  H  H16  1  0.47770000  0.20440000  0.68960000  1
  H  H17  1  0.47770000  0.70440000  0.81040000  1
  H  H18  1  0.52230000  0.29560000  0.18960000  1
  H  H19  1  0.52230000  0.79560000  0.31040000  1
  H  H20  1  0.71650000  0.10660000  0.71820000  1
  H  H21  1  0.71650000  0.60660000  0.78180000  1
  H  H22  1  0.75100000  0.47760000  0.36730000  1
  H  H23  1  0.75100000  0.97760000  0.13270000  1
  H  H24  1  0.83480000  0.22150000  0.10160000  1
  H  H25  1  0.83480000  0.72150000  0.39840000  1
  H  H26  1  0.86920000  0.14060000  0.33340000  1
  H  H27  1  0.86920000  0.64060000  0.16660000  1
  H  H28  1  0.89610000  0.28300000  0.77430000  1
  H  H29  1  0.89610000  0.78300000  0.72570000  1
  H  H30  1  0.97610000  0.10500000  0.54910000  1
  H  H31  1  0.97610000  0.60500000  0.95090000  1
  C  C32  1  0.04020000  0.35810000  0.09464000  1
  C  C33  1  0.04020000  0.85810000  0.40536000  1
  C  C34  1  0.05300000  0.30410000  0.69397000  1
  C  C35  1  0.05300000  0.80410000  0.80603000  1
  C  C36  1  0.07420000  0.24660000  0.62598000  1
  C  C37  1  0.07420000  0.74660000  0.87402000  1
  C  C38  1  0.08490000  0.25100000  0.22847000  1
  C  C39  1  0.08490000  0.75100000  0.27153000  1
  C  C40  1  0.17190000  0.42000000  0.72713000  1
  C  C41  1  0.17190000  0.92000000  0.77287000  1
  C  C42  1  0.19300000  0.35660000  0.19401000  1
  C  C43  1  0.19300000  0.85660000  0.30599000  1
  C  C44  1  0.19410000  0.42590000  0.80326000  1
  C  C45  1  0.19410000  0.92590000  0.69674000  1
  C  C46  1  0.26320000  0.02490000  0.81671000  1
  C  C47  1  0.26320000  0.52490000  0.68329000  1
  C  C48  1  0.31050000  0.03080000  0.66590000  1
  C  C49  1  0.31050000  0.53080000  0.83410000  1
  C  C50  1  0.33680000  0.03180000  0.58475000  1
  C  C51  1  0.33680000  0.53180000  0.91525000  1
  C  C52  1  0.37580000  0.13380000  0.78563000  1
  C  C53  1  0.37580000  0.63380000  0.71437000  1
  C  C54  1  0.40040000  0.13420000  0.71034000  1
  C  C55  1  0.40040000  0.63420000  0.78966000  1
  C  C56  1  0.47120000  0.24870000  0.83366000  1
  C  C57  1  0.47120000  0.74870000  0.66634000  1
  C  C58  1  0.52880000  0.25130000  0.33366000  1
  C  C59  1  0.52880000  0.75130000  0.16634000  1
  C  C60  1  0.59960000  0.36580000  0.21034000  1
  C  C61  1  0.59960000  0.86580000  0.28966000  1
  C  C62  1  0.62420000  0.36620000  0.28563000  1
  C  C63  1  0.62420000  0.86620000  0.21437000  1
  C  C64  1  0.66320000  0.46820000  0.08475000  1
  C  C65  1  0.66320000  0.96820000  0.41525000  1
  C  C66  1  0.68950000  0.46920000  0.16590000  1
  C  C67  1  0.68950000  0.96920000  0.33410000  1
  C  C68  1  0.73680000  0.47510000  0.31671000  1
  C  C69  1  0.73680000  0.97510000  0.18329000  1
  C  C70  1  0.80590000  0.07410000  0.30326000  1
  C  C71  1  0.80590000  0.57410000  0.19674000  1
  C  C72  1  0.80700000  0.14340000  0.69401000  1
  C  C73  1  0.80700000  0.64340000  0.80599000  1
  C  C74  1  0.82810000  0.08000000  0.22713000  1
  C  C75  1  0.82810000  0.58000000  0.27287000  1
  C  C76  1  0.91510000  0.24900000  0.72847000  1
  C  C77  1  0.91510000  0.74900000  0.77153000  1
  C  C78  1  0.92580000  0.25340000  0.12598000  1
  C  C79  1  0.92580000  0.75340000  0.37402000  1
  C  C80  1  0.94700000  0.19590000  0.19397000  1
  C  C81  1  0.94700000  0.69590000  0.30603000  1
  C  C82  1  0.95980000  0.14190000  0.59464000  1
  C  C83  1  0.95980000  0.64190000  0.90536000  1
  N  N84  1  0.17390000  0.40840000  0.12755000  1
  N  N85  1  0.17390000  0.90840000  0.37245000  1
  N  N86  1  0.82610000  0.09160000  0.62755000  1
  N  N87  1  0.82610000  0.59160000  0.87245000  1
  O  O88  1  0.23120000  0.47510000  0.95706000  1
  O  O89  1  0.23120000  0.97510000  0.54294000  1
  O  O90  1  0.42270000  0.16110000  0.30562000  1
  O  O91  1  0.42270000  0.66110000  0.19438000  1
  O  O92  1  0.43820000  0.24900000  0.90081000  1
  O  O93  1  0.43820000  0.74900000  0.59919000  1
  O  O94  1  0.46850000  0.09210000  0.56103000  1
  O  O95  1  0.46850000  0.59210000  0.93897000  1
  O  O96  1  0.53150000  0.40790000  0.06103000  1
  O  O97  1  0.53150000  0.90790000  0.43897000  1
  O  O98  1  0.56180000  0.25100000  0.40081000  1
  O  O99  1  0.56180000  0.75100000  0.09919000  1
  O  O100  1  0.57730000  0.33890000  0.80562000  1
  O  O101  1  0.57730000  0.83890000  0.69438000  1
  O  O102  1  0.76880000  0.02490000  0.45706000  1
  O  O103  1  0.76880000  0.52490000  0.04294000  1
