# generated using pymatgen
data_AgH12(C3N)6
_symmetry_space_group_name_H-M   'P 1'
_cell_length_a   13.72476838
_cell_length_b   13.72476838
_cell_length_c   24.56629118
_cell_angle_alpha   101.54368938
_cell_angle_beta   101.15075075
_cell_angle_gamma   107.19675081
_symmetry_Int_Tables_number   1
_chemical_formula_structural   AgH12(C3N)6
_chemical_formula_sum   'Ag8 H96 C144 N48'
_cell_volume   4170.58365910
_cell_formula_units_Z   8
loop_
 _symmetry_equiv_pos_site_id
 _symmetry_equiv_pos_as_xyz
  1  'x, y, z'
loop_
 _atom_site_type_symbol
 _atom_site_label
 _atom_site_symmetry_multiplicity
 _atom_site_fract_x
 _atom_site_fract_y
 _atom_site_fract_z
 _atom_site_occupancy
  Ag  Ag0  1  0.19907000  0.01910000  0.13225000  1
  Ag  Ag1  1  0.11315000  0.43318000  0.63225000  1
  Ag  Ag2  1  0.42898000  0.20754000  0.13278000  1
  Ag  Ag3  1  0.92524000  0.20380000  0.63278000  1
  Ag  Ag4  1  0.57102000  0.79245500  0.86721500  1
  Ag  Ag5  1  0.07476000  0.79620000  0.36722000  1
  Ag  Ag6  1  0.80093000  0.98090000  0.86775000  1
  Ag  Ag7  1  0.88685000  0.56682000  0.36775000  1
  C  C8  1  0.42940000  0.83210000  0.40730000  1
  C  C9  1  0.57520000  0.47790000  0.90730000  1
  C  C10  1  0.38690000  0.87710000  0.49640000  1
  C  C11  1  0.61930000  0.60950000  0.99640000  1
  C  C12  1  0.19090000  0.63910000  0.50020000  1
  C  C13  1  0.86110000  0.80930000  0.00020000  1
  C  C14  1  0.17250000  0.23470000  0.11600000  1
  C  C15  1  0.88130000  0.44350000  0.61600000  1
  C  C16  1  0.22090000  0.56610000  0.41100000  1
  C  C17  1  0.84490000  0.69010000  0.91100000  1
  C  C18  1  0.45920000  0.86000000  0.46700000  1
  C  C19  1  0.60700000  0.50780000  0.96700000  1
  C  C20  1  0.15850000  0.12180000  0.03030000  1
  C  C21  1  0.90850000  0.37180000  0.53030000  1
  C  C22  1  0.39940000  0.32150000  0.03490000  1
  C  C23  1  0.71340000  0.13550000  0.53490000  1
  C  C24  1  0.44010000  0.44730000  0.12060000  1
  C  C25  1  0.67330000  0.18050000  0.62060000  1
  C  C26  1  0.25760000  0.60820000  0.47020000  1
  C  C27  1  0.86200000  0.71260000  0.97020000  1
  C  C28  1  0.56720000  0.87310000  0.50110000  1
  C  C29  1  0.62800000  0.43390000  0.00110000  1
  C  C30  1  0.36650000  0.62150000  0.50240000  1
  C  C31  1  0.88090000  0.63590000  0.00240000  1
  C  C32  1  0.37820000  0.29040000  0.25520000  1
  C  C33  1  0.96480000  0.37700000  0.75520000  1
  C  C34  1  0.21470000  0.39300000  0.52590000  1
  C  C35  1  0.13290000  0.81120000  0.02590000  1
  C  C36  1  0.63510000  0.95890000  0.68160000  1
  C  C37  1  0.72270000  0.54650000  0.18160000  1
  C  C38  1  0.67820000  0.40570000  0.08830000  1
  C  C39  1  0.68260000  0.91010000  0.58830000  1
  C  C40  1  0.63130000  0.27260000  0.00690000  1
  C  C41  1  0.73430000  0.87560000  0.50690000  1
  C  C42  1  0.57610000  0.12330000  0.91840000  1
  C  C43  1  0.79510000  0.84230000  0.41840000  1
  C  C44  1  0.19710000  0.56980000  0.75710000  1
  C  C45  1  0.37180000  0.00820000  0.02080000  1
  C  C46  1  0.01260000  0.14900000  0.52080000  1
  C  C47  1  0.18730000  0.06000000  0.25710000  1
  C  C48  1  0.39500000  0.31420000  0.31480000  1
  C  C49  1  0.00060000  0.41980000  0.81480000  1
  C  C50  1  0.28580000  0.37760000  0.49500000  1
  C  C51  1  0.11740000  0.70920000  0.99500000  1
  C  C52  1  0.59350000  0.60090000  0.41520000  1
  C  C53  1  0.81430000  0.32170000  0.91520000  1
  C  C54  1  0.53340000  0.62740000  0.50520000  1
  C  C55  1  0.87780000  0.47180000  0.00520000  1
  C  C56  1  0.48280000  0.65140000  0.58760000  1
  C  C57  1  0.93620000  0.60480000  0.08760000  1
  C  C58  1  0.65900000  0.97520000  0.74060000  1
  C  C59  1  0.70430000  0.93190000  0.65200000  1
  C  C60  1  0.72010000  0.44770000  0.15200000  1
  C  C61  1  0.76540000  0.58160000  0.24060000  1
  C  C62  1  0.42580000  0.67360000  0.67820000  1
  C  C63  1  0.00460000  0.75240000  0.17820000  1
  C  C64  1  0.61420000  0.16090000  0.97770000  1
  C  C65  1  0.81680000  0.86350000  0.47770000  1
  C  C66  1  0.56780000  0.02070000  0.89190000  1
  C  C67  1  0.87120000  0.82410000  0.39190000  1
  C  C68  1  0.23840000  0.61160000  0.81660000  1
  C  C69  1  0.20500000  0.07820000  0.31660000  1
  C  C70  1  0.35970000  0.90650000  0.99080000  1
  C  C71  1  0.08430000  0.13110000  0.49080000  1
  C  C72  1  0.67020000  0.58810000  0.38810000  1
  C  C73  1  0.80000000  0.21790000  0.88810000  1
  C  C74  1  0.61530000  0.61780000  0.47490000  1
  C  C75  1  0.85710000  0.35960000  0.97490000  1
  C  C76  1  0.50620000  0.67110000  0.65170000  1
  C  C77  1  0.98060000  0.64550000  0.15170000  1
  C  C78  1  0.44990000  0.69750000  0.73740000  1
  C  C79  1  0.03990000  0.78750000  0.23740000  1
  C  C80  1  0.55010000  0.30250000  0.26260000  1
  C  C81  1  0.96010000  0.21250000  0.76260000  1
  C  C82  1  0.49380000  0.32890000  0.34830000  1
  C  C83  1  0.01940000  0.35450000  0.84830000  1
  C  C84  1  0.38470000  0.38220000  0.52510000  1
  C  C85  1  0.14290000  0.64040000  0.02510000  1
  C  C86  1  0.32980000  0.41190000  0.61190000  1
  C  C87  1  0.20000000  0.78210000  0.11190000  1
  C  C88  1  0.64030000  0.09350000  0.00920000  1
  C  C89  1  0.91570000  0.86890000  0.50920000  1
  C  C90  1  0.76160000  0.38840000  0.18340000  1
  C  C91  1  0.79500000  0.92180000  0.68340000  1
  C  C92  1  0.43220000  0.97930000  0.10810000  1
  C  C93  1  0.12880000  0.17590000  0.60810000  1
  C  C94  1  0.38580000  0.83910000  0.02230000  1
  C  C95  1  0.18320000  0.13650000  0.52230000  1
  C  C96  1  0.57420000  0.32640000  0.32180000  1
  C  C97  1  0.99540000  0.24760000  0.82180000  1
  C  C98  1  0.29570000  0.06810000  0.34800000  1
  C  C99  1  0.34100000  0.02480000  0.25940000  1
  C  C100  1  0.23460000  0.41840000  0.75940000  1
  C  C101  1  0.27990000  0.55230000  0.84800000  1
  C  C102  1  0.51720000  0.34860000  0.41240000  1
  C  C103  1  0.06380000  0.39520000  0.91240000  1
  C  C104  1  0.46660000  0.37260000  0.49480000  1
  C  C105  1  0.12220000  0.52820000  0.99480000  1
  C  C106  1  0.40650000  0.39910000  0.58480000  1
  C  C107  1  0.18570000  0.67830000  0.08480000  1
  C  C108  1  0.71420000  0.62240000  0.50500000  1
  C  C109  1  0.88260000  0.29080000  0.00500000  1
  C  C110  1  0.60500000  0.68580000  0.68520000  1
  C  C111  1  0.99940000  0.58020000  0.18520000  1
  C  C112  1  0.62820000  0.99180000  0.97920000  1
  C  C113  1  0.80290000  0.43020000  0.24290000  1
  C  C114  1  0.81270000  0.94000000  0.74290000  1
  C  C115  1  0.98740000  0.85100000  0.47920000  1
  C  C116  1  0.42390000  0.87670000  0.08160000  1
  C  C117  1  0.20490000  0.15770000  0.58160000  1
  C  C118  1  0.36870000  0.72740000  0.99310000  1
  C  C119  1  0.26570000  0.12440000  0.49310000  1
  C  C120  1  0.32180000  0.59430000  0.91170000  1
  C  C121  1  0.31740000  0.08990000  0.41170000  1
  C  C122  1  0.36490000  0.04110000  0.31840000  1
  C  C123  1  0.27730000  0.45350000  0.81840000  1
  C  C124  1  0.78530000  0.60700000  0.47410000  1
  C  C125  1  0.86710000  0.18880000  0.97410000  1
  C  C126  1  0.62180000  0.70960000  0.74480000  1
  C  C127  1  0.03520000  0.62300000  0.24480000  1
  C  C128  1  0.63350000  0.37850000  0.49760000  1
  C  C129  1  0.11910000  0.36410000  0.99760000  1
  C  C130  1  0.43280000  0.12690000  0.49890000  1
  C  C131  1  0.37200000  0.56610000  0.99890000  1
  C  C132  1  0.74240000  0.39180000  0.52980000  1
  C  C133  1  0.13800000  0.28740000  0.02980000  1
  C  C134  1  0.55990000  0.55270000  0.87940000  1
  C  C135  1  0.32670000  0.81950000  0.37940000  1
  C  C136  1  0.60060000  0.67850000  0.96510000  1
  C  C137  1  0.28660000  0.86450000  0.46510000  1
  C  C138  1  0.84150000  0.87820000  0.96970000  1
  C  C139  1  0.09150000  0.62820000  0.46970000  1
  C  C140  1  0.54080000  0.14000000  0.53300000  1
  C  C141  1  0.39300000  0.49220000  0.03300000  1
  C  C142  1  0.77910000  0.43390000  0.58900000  1
  C  C143  1  0.15510000  0.30990000  0.08900000  1
  C  C144  1  0.82750000  0.76530000  0.88400000  1
  C  C145  1  0.11870000  0.55650000  0.38400000  1
  C  C146  1  0.80910000  0.36090000  0.49980000  1
  C  C147  1  0.13890000  0.19070000  0.99980000  1
  C  C148  1  0.61310000  0.12290000  0.50360000  1
  C  C149  1  0.38070000  0.39050000  0.00360000  1
  C  C150  1  0.57060000  0.16790000  0.59270000  1
  C  C151  1  0.42480000  0.52210000  0.09270000  1
  H  H152  1  0.47700000  0.82220000  0.38640000  1
  H  H153  1  0.56420000  0.40940000  0.88640000  1
  H  H154  1  0.40540000  0.89690000  0.53650000  1
  H  H155  1  0.63960000  0.63110000  0.03650000  1
  H  H156  1  0.21300000  0.66650000  0.54010000  1
  H  H157  1  0.87360000  0.82710000  0.04010000  1
  H  H158  1  0.18170000  0.24900000  0.15570000  1
  H  H159  1  0.90670000  0.47400000  0.65570000  1
  H  H160  1  0.26400000  0.54480000  0.38980000  1
  H  H161  1  0.84500000  0.62580000  0.88980000  1
  H  H162  1  0.15930000  0.05720000  0.01010000  1
  H  H163  1  0.95290000  0.35080000  0.51010000  1
  H  H164  1  0.39110000  0.25310000  0.01480000  1
  H  H165  1  0.76170000  0.12370000  0.51480000  1
  H  H166  1  0.45890000  0.46660000  0.16070000  1
  H  H167  1  0.69410000  0.20180000  0.66070000  1
  H  H168  1  0.14950000  0.39180000  0.50570000  1
  H  H169  1  0.11390000  0.85620000  0.00570000  1
  H  H170  1  0.31120000  0.27930000  0.23250000  1
  H  H171  1  0.95320000  0.42130000  0.73250000  1
  H  H172  1  0.57360000  0.96580000  0.66180000  1
  H  H173  1  0.69600000  0.58820000  0.16180000  1
  H  H174  1  0.55650000  0.16590000  0.89660000  1
  H  H175  1  0.73070000  0.84010000  0.39660000  1
  H  H176  1  0.16940000  0.60970000  0.73630000  1
  H  H177  1  0.12660000  0.06690000  0.23630000  1
  H  H178  1  0.35470000  0.05310000  0.99980000  1
  H  H179  1  0.94670000  0.14510000  0.49980000  1
  H  H180  1  0.52830000  0.59800000  0.39390000  1
  H  H181  1  0.79590000  0.36560000  0.89390000  1
  H  H182  1  0.34100000  0.32010000  0.33150000  1
  H  H183  1  0.01140000  0.49050000  0.83150000  1
  H  H184  1  0.35730000  0.65950000  0.65640000  1
  H  H185  1  0.99690000  0.79910000  0.15640000  1
  H  H186  1  0.26790000  0.36460000  0.45510000  1
  H  H187  1  0.09050000  0.68720000  0.95510000  1
  H  H188  1  0.61190000  0.99300000  0.75990000  1
  H  H189  1  0.76690000  0.64800000  0.25990000  1
  H  H190  1  0.23830000  0.67770000  0.83500000  1
  H  H191  1  0.15730000  0.09670000  0.33500000  1
  H  H192  1  0.54360000  0.99650000  0.85190000  1
  H  H193  1  0.85540000  0.80830000  0.35190000  1
  H  H194  1  0.33510000  0.88370000  0.95080000  1
  H  H195  1  0.06710000  0.11570000  0.45080000  1
  H  H196  1  0.65530000  0.57750000  0.34840000  1
  H  H197  1  0.77090000  0.19310000  0.84840000  1
  H  H198  1  0.39610000  0.69990000  0.75500000  1
  H  H199  1  0.05510000  0.85890000  0.25500000  1
  H  H200  1  0.60390000  0.30010000  0.24500000  1
  H  H201  1  0.94490000  0.14110000  0.74500000  1
  H  H202  1  0.34470000  0.42250000  0.65160000  1
  H  H203  1  0.22910000  0.80690000  0.15160000  1
  H  H204  1  0.66490000  0.11630000  0.04920000  1
  H  H205  1  0.93290000  0.88430000  0.54920000  1
  H  H206  1  0.45640000  0.00350000  0.14810000  1
  H  H207  1  0.14460000  0.19170000  0.64810000  1
  H  H208  1  0.76170000  0.32230000  0.16500000  1
  H  H209  1  0.84270000  0.90330000  0.66500000  1
  H  H210  1  0.38810000  0.00700000  0.24010000  1
  H  H211  1  0.23310000  0.35200000  0.74010000  1
  H  H212  1  0.73210000  0.63540000  0.54490000  1
  H  H213  1  0.90950000  0.31280000  0.04490000  1
  H  H214  1  0.64270000  0.34050000  0.34360000  1
  H  H215  1  0.00310000  0.20090000  0.84360000  1
  H  H216  1  0.65900000  0.67990000  0.66850000  1
  H  H217  1  0.98860000  0.50950000  0.16850000  1
  H  H218  1  0.47170000  0.40200000  0.60610000  1
  H  H219  1  0.20410000  0.63440000  0.10610000  1
  H  H220  1  0.64530000  0.94690000  0.00020000  1
  H  H221  1  0.05330000  0.85490000  0.50020000  1
  H  H222  1  0.83060000  0.39030000  0.26370000  1
  H  H223  1  0.87340000  0.93310000  0.76370000  1
  H  H224  1  0.44350000  0.83410000  0.10340000  1
  H  H225  1  0.26930000  0.15990000  0.60340000  1
  H  H226  1  0.42640000  0.03420000  0.33820000  1
  H  H227  1  0.30400000  0.41180000  0.83820000  1
  H  H228  1  0.68880000  0.72070000  0.76750000  1
  H  H229  1  0.04680000  0.57870000  0.26750000  1
  H  H230  1  0.85050000  0.60820000  0.49430000  1
  H  H231  1  0.88610000  0.14380000  0.99430000  1
  H  H232  1  0.54110000  0.53340000  0.83930000  1
  H  H233  1  0.30590000  0.79820000  0.33930000  1
  H  H234  1  0.60890000  0.74690000  0.98520000  1
  H  H235  1  0.23830000  0.87630000  0.48520000  1
  H  H236  1  0.84070000  0.94280000  0.98990000  1
  H  H237  1  0.04710000  0.64920000  0.48990000  1
  H  H238  1  0.73600000  0.45520000  0.61020000  1
  H  H239  1  0.15500000  0.37420000  0.11020000  1
  H  H240  1  0.81830000  0.75100000  0.84430000  1
  H  H241  1  0.09330000  0.52600000  0.34430000  1
  H  H242  1  0.78700000  0.33350000  0.45990000  1
  H  H243  1  0.12640000  0.17290000  0.95990000  1
  H  H244  1  0.59460000  0.10310000  0.46350000  1
  H  H245  1  0.36040000  0.36890000  0.96350000  1
  H  H246  1  0.52300000  0.17780000  0.61360000  1
  H  H247  1  0.43580000  0.59060000  0.11360000  1
  N  N248  1  0.17660000  0.14279000  0.08779000  1
  N  N249  1  0.94500000  0.41119000  0.58779000  1
  N  N250  1  0.42900000  0.34799000  0.09259000  1
  N  N251  1  0.74460000  0.16359000  0.59259000  1
  N  N252  1  0.58550000  0.89912000  0.55882000  1
  N  N253  1  0.65970000  0.47332000  0.05882000  1
  N  N254  1  0.61520000  0.33582000  0.97322000  1
  N  N255  1  0.63740000  0.85802000  0.47322000  1
  N  N256  1  0.43790000  0.61451000  0.47281000  1
  N  N257  1  0.85830000  0.53491000  0.97281000  1
  N  N258  1  0.38500000  0.63832000  0.55932000  1
  N  N259  1  0.92100000  0.67432000  0.05932000  1
  N  N260  1  0.45290000  0.28240000  0.22870000  1
  N  N261  1  0.94630000  0.27580000  0.72870000  1
  N  N262  1  0.23460000  0.40952000  0.58332000  1
  N  N263  1  0.17380000  0.84872000  0.08332000  1
  N  N264  1  0.66160000  0.30337000  0.06477000  1
  N  N265  1  0.76140000  0.90317000  0.56477000  1
  N  N266  1  0.40700000  0.04552000  0.07872000  1
  N  N267  1  0.03320000  0.17172000  0.57872000  1
  N  N268  1  0.25340000  0.03320000  0.22820000  1
  N  N269  1  0.19500000  0.47480000  0.72820000  1
  N  N270  1  0.56080000  0.64721000  0.56321000  1
  N  N271  1  0.91600000  0.50241000  0.06321000  1
  N  N272  1  0.43920000  0.35279000  0.43679000  1
  N  N273  1  0.08400000  0.49759000  0.93679000  1
  N  N274  1  0.74660000  0.96680000  0.77180000  1
  N  N275  1  0.80500000  0.52520000  0.27180000  1
  N  N276  1  0.59300000  0.95448000  0.92128000  1
  N  N277  1  0.96680000  0.82828000  0.42128000  1
  N  N278  1  0.33840000  0.69663000  0.93523000  1
  N  N279  1  0.23860000  0.09683000  0.43523000  1
  N  N280  1  0.76540000  0.59048000  0.41668000  1
  N  N281  1  0.82620000  0.15128000  0.91668000  1
  N  N282  1  0.54710000  0.71760000  0.77130000  1
  N  N283  1  0.05370000  0.72420000  0.27130000  1
  N  N284  1  0.61500000  0.36168000  0.44068000  1
  N  N285  1  0.07900000  0.32568000  0.94068000  1
  N  N286  1  0.56210000  0.38549000  0.52719000  1
  N  N287  1  0.14170000  0.46509000  0.02719000  1
  N  N288  1  0.38480000  0.66418000  0.02678000  1
  N  N289  1  0.36260000  0.14198000  0.52678000  1
  N  N290  1  0.41450000  0.10088000  0.44118000  1
  N  N291  1  0.34030000  0.52668000  0.94118000  1
  N  N292  1  0.57100000  0.65201000  0.90741000  1
  N  N293  1  0.25540000  0.83641000  0.40741000  1
  N  N294  1  0.82340000  0.85721000  0.91221000  1
  N  N295  1  0.05500000  0.58881000  0.41221000  1
