# generated using pymatgen
data_SrH2C6SO4
_symmetry_space_group_name_H-M   'P 1'
_cell_length_a   5.97950000
_cell_length_b   11.35920000
_cell_length_c   17.05830000
_cell_angle_alpha   90.00000000
_cell_angle_beta   90.00000000
_cell_angle_gamma   91.25700000
_symmetry_Int_Tables_number   1
_chemical_formula_structural   SrH2C6SO4
_chemical_formula_sum   'Sr4 H8 C24 S4 O16'
_cell_volume   1158.36076952
_cell_formula_units_Z   4
loop_
 _symmetry_equiv_pos_site_id
 _symmetry_equiv_pos_as_xyz
  1  'x, y, z'
loop_
 _atom_site_type_symbol
 _atom_site_label
 _atom_site_symmetry_multiplicity
 _atom_site_fract_x
 _atom_site_fract_y
 _atom_site_fract_z
 _atom_site_occupancy
  Sr  Sr0  1  0.22232000  0.40441000  0.50190000  1
  Sr  Sr1  1  0.27768000  0.09559000  0.00190000  1
  Sr  Sr2  1  0.72232000  0.90441000  0.99810000  1
  Sr  Sr3  1  0.77768000  0.59559000  0.49810000  1
  H  H4  1  0.11600000  0.33600000  0.68650000  1
  H  H5  1  0.15600000  0.22550000  0.81250000  1
  H  H6  1  0.34400000  0.27450000  0.31250000  1
  H  H7  1  0.38400000  0.16400000  0.18650000  1
  H  H8  1  0.61600000  0.83600000  0.81350000  1
  H  H9  1  0.65600000  0.72550000  0.68750000  1
  H  H10  1  0.84400000  0.77450000  0.18750000  1
  H  H11  1  0.88400000  0.66400000  0.31350000  1
  C  C12  1  0.00550000  0.70718000  0.28766000  1
  C  C13  1  0.01740000  0.23223000  0.78424000  1
  C  C14  1  0.17890000  0.82053000  0.19143000  1
  C  C15  1  0.19200000  0.82906000  0.89257000  1
  C  C16  1  0.21640000  0.89490000  0.12105000  1
  C  C17  1  0.21870000  0.71605000  0.31698000  1
  C  C18  1  0.28130000  0.78395000  0.81698000  1
  C  C19  1  0.28360000  0.60510000  0.62105000  1
  C  C20  1  0.30800000  0.67094000  0.39257000  1
  C  C21  1  0.32110000  0.67947000  0.69143000  1
  C  C22  1  0.48260000  0.26777000  0.28424000  1
  C  C23  1  0.49450000  0.79282000  0.78766000  1
  C  C24  1  0.50550000  0.20718000  0.21234000  1
  C  C25  1  0.51740000  0.73223000  0.71576000  1
  C  C26  1  0.67890000  0.32053000  0.30857000  1
  C  C27  1  0.69200000  0.32906000  0.60743000  1
  C  C28  1  0.71640000  0.39490000  0.37895000  1
  C  C29  1  0.71870000  0.21605000  0.18302000  1
  C  C30  1  0.78130000  0.28395000  0.68302000  1
  C  C31  1  0.78360000  0.10510000  0.87895000  1
  C  C32  1  0.80800000  0.17094000  0.10743000  1
  C  C33  1  0.82110000  0.17947000  0.80857000  1
  C  C34  1  0.98260000  0.76777000  0.21576000  1
  C  C35  1  0.99450000  0.29282000  0.71234000  1
  S  S36  1  0.10750000  0.70338000  0.75621000  1
  S  S37  1  0.39250000  0.79662000  0.25621000  1
  S  S38  1  0.60750000  0.20338000  0.74379000  1
  S  S39  1  0.89250000  0.29662000  0.24379000  1
  O  O40  1  0.01269000  0.18995000  0.09437000  1
  O  O41  1  0.04634000  0.92683000  0.08352000  1
  O  O42  1  0.08663000  0.57470000  0.60350000  1
  O  O43  1  0.17135000  0.61925000  0.43786000  1
  O  O44  1  0.32865000  0.88075000  0.93786000  1
  O  O45  1  0.41337000  0.92530000  0.10350000  1
  O  O46  1  0.45366000  0.57317000  0.58352000  1
  O  O47  1  0.48731000  0.31005000  0.59437000  1
  O  O48  1  0.51269000  0.68995000  0.40563000  1
  O  O49  1  0.54634000  0.42683000  0.41648000  1
  O  O50  1  0.58663000  0.07470000  0.89650000  1
  O  O51  1  0.67135000  0.11925000  0.06214000  1
  O  O52  1  0.82865000  0.38075000  0.56214000  1
  O  O53  1  0.91337000  0.42530000  0.39650000  1
  O  O54  1  0.95366000  0.07317000  0.91648000  1
  O  O55  1  0.98731000  0.81005000  0.90563000  1
