# generated using pymatgen
data_Cu2H36C61(N3O2)4
_symmetry_space_group_name_H-M   'P 1'
_cell_length_a   16.06040000
_cell_length_b   16.06040000
_cell_length_c   44.11700000
_cell_angle_alpha   90.00000000
_cell_angle_beta   90.00000000
_cell_angle_gamma   90.00000000
_symmetry_Int_Tables_number   1
_chemical_formula_structural   Cu2H36C61(N3O2)4
_chemical_formula_sum   'Cu8 H144 C244 N48 O32'
_cell_volume   11379.38228347
_cell_formula_units_Z   4
loop_
 _symmetry_equiv_pos_site_id
 _symmetry_equiv_pos_as_xyz
  1  'x, y, z'
loop_
 _atom_site_type_symbol
 _atom_site_label
 _atom_site_symmetry_multiplicity
 _atom_site_fract_x
 _atom_site_fract_y
 _atom_site_fract_z
 _atom_site_occupancy
  Cu  Cu0  1  0.04158000  0.42949000  0.78965000  1
  Cu  Cu1  1  0.07051000  0.54158000  0.28965000  1
  Cu  Cu2  1  0.42949000  0.04158000  0.21035000  1
  Cu  Cu3  1  0.45842000  0.92949000  0.71035000  1
  Cu  Cu4  1  0.54158000  0.07051000  0.71035000  1
  Cu  Cu5  1  0.57051000  0.95842000  0.21035000  1
  Cu  Cu6  1  0.92949000  0.45842000  0.28965000  1
  Cu  Cu7  1  0.95842000  0.57051000  0.78965000  1
  H  H8  1  0.00195000  0.25921000  0.35047000  1
  H  H9  1  0.00369000  0.40749000  0.40952000  1
  H  H10  1  0.00663000  0.41195000  0.01034000  1
  H  H11  1  0.01208000  0.66755000  0.45950000  1
  H  H12  1  0.01610000  0.67125000  0.96106000  1
  H  H13  1  0.01631000  0.71908000  0.22022000  1
  H  H14  1  0.02686000  0.20298000  0.17842000  1
  H  H15  1  0.03817000  0.22772000  0.92935000  1
  H  H16  1  0.04148000  0.23066000  0.49025000  1
  H  H17  1  0.05285000  0.17508000  0.38765000  1
  H  H18  1  0.07427000  0.68352000  0.86709000  1
  H  H19  1  0.08805000  0.50663000  0.51034000  1
  H  H20  1  0.09251000  0.50369000  0.90952000  1
  H  H21  1  0.09354000  0.65259000  0.03977000  1
  H  H22  1  0.09565000  0.64233000  0.37820000  1
  H  H23  1  0.10595000  0.70266000  0.72280000  1
  H  H24  1  0.14233000  0.40435000  0.87820000  1
  H  H25  1  0.15259000  0.40646000  0.53977000  1
  H  H26  1  0.16011000  0.72883000  0.90787000  1
  H  H27  1  0.16755000  0.48792000  0.95950000  1
  H  H28  1  0.17125000  0.48390000  0.46106000  1
  H  H29  1  0.17508000  0.05285000  0.61235000  1
  H  H30  1  0.18352000  0.42573000  0.36709000  1
  H  H31  1  0.18526000  0.74814000  0.68136000  1
  H  H32  1  0.20130000  0.72120000  0.06731000  1
  H  H33  1  0.20266000  0.39405000  0.22280000  1
  H  H34  1  0.20298000  0.02686000  0.82158000  1
  H  H35  1  0.20414000  0.70472000  0.34869000  1
  H  H36  1  0.20472000  0.29586000  0.84869000  1
  H  H37  1  0.21908000  0.48369000  0.72022000  1
  H  H38  1  0.22120000  0.29870000  0.56731000  1
  H  H39  1  0.22772000  0.03817000  0.07065000  1
  H  H40  1  0.22883000  0.33989000  0.40787000  1
  H  H41  1  0.23066000  0.04148000  0.50975000  1
  H  H42  1  0.24079000  0.50195000  0.85047000  1
  H  H43  1  0.24814000  0.31474000  0.18136000  1
  H  H44  1  0.25186000  0.81474000  0.31864000  1
  H  H45  1  0.25921000  0.00195000  0.64953000  1
  H  H46  1  0.26934000  0.54148000  0.99025000  1
  H  H47  1  0.27117000  0.83989000  0.09213000  1
  H  H48  1  0.27228000  0.53817000  0.42935000  1
  H  H49  1  0.27880000  0.79870000  0.93269000  1
  H  H50  1  0.28092000  0.98369000  0.77978000  1
  H  H51  1  0.29528000  0.79586000  0.65131000  1
  H  H52  1  0.29586000  0.20472000  0.15131000  1
  H  H53  1  0.29702000  0.52686000  0.67842000  1
  H  H54  1  0.29734000  0.89405000  0.27720000  1
  H  H55  1  0.29870000  0.22120000  0.43269000  1
  H  H56  1  0.31474000  0.24814000  0.81864000  1
  H  H57  1  0.31648000  0.92573000  0.13291000  1
  H  H58  1  0.32492000  0.55285000  0.88765000  1
  H  H59  1  0.32875000  0.98390000  0.03894000  1
  H  H60  1  0.33245000  0.98792000  0.54050000  1
  H  H61  1  0.33989000  0.22883000  0.59213000  1
  H  H62  1  0.34741000  0.90646000  0.96023000  1
  H  H63  1  0.35767000  0.90435000  0.62180000  1
  H  H64  1  0.39405000  0.20266000  0.77720000  1
  H  H65  1  0.40435000  0.14233000  0.12180000  1
  H  H66  1  0.40646000  0.15259000  0.46023000  1
  H  H67  1  0.40749000  0.00369000  0.59048000  1
  H  H68  1  0.41195000  0.00663000  0.98966000  1
  H  H69  1  0.42573000  0.18352000  0.63291000  1
  H  H70  1  0.44715000  0.67508000  0.11235000  1
  H  H71  1  0.45852000  0.73066000  0.00975000  1
  H  H72  1  0.46183000  0.72772000  0.57065000  1
  H  H73  1  0.47314000  0.70298000  0.32158000  1
  H  H74  1  0.48369000  0.21908000  0.27978000  1
  H  H75  1  0.48390000  0.17125000  0.53894000  1
  H  H76  1  0.48792000  0.16755000  0.04050000  1
  H  H77  1  0.49337000  0.91195000  0.48966000  1
  H  H78  1  0.49631000  0.90749000  0.09048000  1
  H  H79  1  0.49805000  0.75921000  0.14953000  1
  H  H80  1  0.50195000  0.24079000  0.14953000  1
  H  H81  1  0.50369000  0.09251000  0.09048000  1
  H  H82  1  0.50663000  0.08805000  0.48966000  1
  H  H83  1  0.51208000  0.83245000  0.04050000  1
  H  H84  1  0.51610000  0.82875000  0.53894000  1
  H  H85  1  0.51631000  0.78092000  0.27978000  1
  H  H86  1  0.52686000  0.29702000  0.32158000  1
  H  H87  1  0.53817000  0.27228000  0.57065000  1
  H  H88  1  0.54148000  0.26934000  0.00975000  1
  H  H89  1  0.55285000  0.32492000  0.11235000  1
  H  H90  1  0.57427000  0.81648000  0.63291000  1
  H  H91  1  0.58805000  0.99337000  0.98966000  1
  H  H92  1  0.59251000  0.99631000  0.59048000  1
  H  H93  1  0.59354000  0.84741000  0.46023000  1
  H  H94  1  0.59565000  0.85767000  0.12180000  1
  H  H95  1  0.60595000  0.79734000  0.77720000  1
  H  H96  1  0.64233000  0.09565000  0.62180000  1
  H  H97  1  0.65259000  0.09354000  0.96023000  1
  H  H98  1  0.66011000  0.77117000  0.59213000  1
  H  H99  1  0.66755000  0.01208000  0.54050000  1
  H  H100  1  0.67125000  0.01610000  0.03894000  1
  H  H101  1  0.67508000  0.44715000  0.88765000  1
  H  H102  1  0.68352000  0.07427000  0.13291000  1
  H  H103  1  0.68526000  0.75186000  0.81864000  1
  H  H104  1  0.70130000  0.77880000  0.43269000  1
  H  H105  1  0.70266000  0.10595000  0.27720000  1
  H  H106  1  0.70298000  0.47314000  0.67842000  1
  H  H107  1  0.70414000  0.79528000  0.15131000  1
  H  H108  1  0.70472000  0.20414000  0.65131000  1
  H  H109  1  0.71908000  0.01631000  0.77978000  1
  H  H110  1  0.72120000  0.20130000  0.93269000  1
  H  H111  1  0.72772000  0.46183000  0.42935000  1
  H  H112  1  0.72883000  0.16011000  0.09213000  1
  H  H113  1  0.73066000  0.45852000  0.99025000  1
  H  H114  1  0.74079000  0.99805000  0.64953000  1
  H  H115  1  0.74814000  0.18526000  0.31864000  1
  H  H116  1  0.75186000  0.68526000  0.18136000  1
  H  H117  1  0.75921000  0.49805000  0.85047000  1
  H  H118  1  0.76934000  0.95852000  0.50975000  1
  H  H119  1  0.77117000  0.66011000  0.40787000  1
  H  H120  1  0.77228000  0.96183000  0.07065000  1
  H  H121  1  0.77880000  0.70130000  0.56731000  1
  H  H122  1  0.78092000  0.51631000  0.72022000  1
  H  H123  1  0.79528000  0.70414000  0.84869000  1
  H  H124  1  0.79586000  0.29528000  0.34869000  1
  H  H125  1  0.79702000  0.97314000  0.82158000  1
  H  H126  1  0.79734000  0.60595000  0.22280000  1
  H  H127  1  0.79870000  0.27880000  0.06731000  1
  H  H128  1  0.81474000  0.25186000  0.68136000  1
  H  H129  1  0.81648000  0.57427000  0.36709000  1
  H  H130  1  0.82492000  0.94715000  0.61235000  1
  H  H131  1  0.82875000  0.51610000  0.46106000  1
  H  H132  1  0.83245000  0.51208000  0.95950000  1
  H  H133  1  0.83989000  0.27117000  0.90787000  1
  H  H134  1  0.84741000  0.59354000  0.53977000  1
  H  H135  1  0.85767000  0.59565000  0.87820000  1
  H  H136  1  0.89405000  0.29734000  0.72280000  1
  H  H137  1  0.90435000  0.35767000  0.37820000  1
  H  H138  1  0.90646000  0.34741000  0.03977000  1
  H  H139  1  0.90749000  0.49631000  0.90952000  1
  H  H140  1  0.91195000  0.49337000  0.51034000  1
  H  H141  1  0.92573000  0.31648000  0.86709000  1
  H  H142  1  0.94715000  0.82492000  0.38765000  1
  H  H143  1  0.95852000  0.76934000  0.49025000  1
  H  H144  1  0.96183000  0.77228000  0.92935000  1
  H  H145  1  0.97314000  0.79702000  0.17842000  1
  H  H146  1  0.98369000  0.28092000  0.22022000  1
  H  H147  1  0.98390000  0.32875000  0.96106000  1
  H  H148  1  0.98792000  0.33245000  0.45950000  1
  H  H149  1  0.99337000  0.58805000  0.01034000  1
  H  H150  1  0.99631000  0.59251000  0.40952000  1
  H  H151  1  0.99805000  0.74079000  0.35047000  1
  C  C152  1  0.00000000  0.50000000  0.46021000  1
  C  C153  1  0.00000000  0.50000000  0.96021000  1
  C  C154  1  0.01650000  0.34440000  0.94460000  1
  C  C155  1  0.02030000  0.34800000  0.47603000  1
  C  C156  1  0.03300000  0.43100000  0.93915000  1
  C  C157  1  0.03410000  0.43020000  0.48094000  1
  C  C158  1  0.03630000  0.28980000  0.21204000  1
  C  C159  1  0.04880000  0.27490000  0.36144000  1
  C  C160  1  0.04910000  0.28360000  0.92546000  1
  C  C161  1  0.04930000  0.58050000  0.00565000  1
  C  C162  1  0.05170000  0.58070000  0.41391000  1
  C  C163  1  0.05240000  0.28630000  0.49454000  1
  C  C164  1  0.05390000  0.40590000  0.24886000  1
  C  C165  1  0.05660000  0.40600000  0.33013000  1
  C  C166  1  0.06210000  0.24160000  0.18748000  1
  C  C167  1  0.06900000  0.53300000  0.43915000  1
  C  C168  1  0.06980000  0.53410000  0.98094000  1
  C  C169  1  0.07820000  0.22610000  0.38387000  1
  C  C170  1  0.08050000  0.45070000  0.50565000  1
  C  C171  1  0.08070000  0.44830000  0.91391000  1
  C  C172  1  0.08570000  0.34930000  0.22429000  1
  C  C173  1  0.09010000  0.34970000  0.35492000  1
  C  C174  1  0.09400000  0.55660000  0.83013000  1
  C  C175  1  0.09410000  0.55390000  0.74886000  1
  C  C176  1  0.09810000  0.30560000  0.90033000  1
  C  C177  1  0.10030000  0.30670000  0.51919000  1
  C  C178  1  0.10940000  0.61710000  0.02416000  1
  C  C179  1  0.11150000  0.38840000  0.89507000  1
  C  C180  1  0.11160000  0.61150000  0.39507000  1
  C  C181  1  0.11710000  0.39060000  0.52416000  1
  C  C182  1  0.12420000  0.65680000  0.87145000  1
  C  C183  1  0.13290000  0.24300000  0.53971000  1
  C  C184  1  0.13440000  0.24090000  0.88081000  1
  C  C185  1  0.14340000  0.66640000  0.71360000  1
  C  C186  1  0.14370000  0.25400000  0.17706000  1
  C  C187  1  0.14450000  0.25000000  0.40113000  1
  C  C188  1  0.15030000  0.59010000  0.85492000  1
  C  C189  1  0.15070000  0.58570000  0.72429000  1
  C  C190  1  0.15200000  0.52030000  0.97603000  1
  C  C191  1  0.15560000  0.51650000  0.44460000  1
  C  C192  1  0.15680000  0.37580000  0.37145000  1
  C  C193  1  0.16640000  0.35660000  0.21360000  1
  C  C194  1  0.17630000  0.68420000  0.89578000  1
  C  C195  1  0.18420000  0.24690000  0.85708000  1
  C  C196  1  0.18420000  0.32370000  0.39578000  1
  C  C197  1  0.19180000  0.69450000  0.68895000  1
  C  C198  1  0.19190000  0.25110000  0.56186000  1
  C  C199  1  0.19330000  0.60030000  0.01919000  1
  C  C200  1  0.19440000  0.59810000  0.40033000  1
  C  C201  1  0.19450000  0.30820000  0.18895000  1
  C  C202  1  0.21020000  0.53630000  0.71204000  1
  C  C203  1  0.21370000  0.55240000  0.99454000  1
  C  C204  1  0.21640000  0.54910000  0.42546000  1
  C  C205  1  0.22510000  0.54880000  0.86144000  1
  C  C206  1  0.22610000  0.07820000  0.61613000  1
  C  C207  1  0.24090000  0.13440000  0.11919000  1
  C  C208  1  0.24160000  0.06210000  0.81252000  1
  C  C209  1  0.24300000  0.13290000  0.46029000  1
  C  C210  1  0.24600000  0.64370000  0.67706000  1
  C  C211  1  0.24690000  0.18420000  0.14292000  1
  C  C212  1  0.24890000  0.69190000  0.06186000  1
  C  C213  1  0.25000000  0.14450000  0.59887000  1
  C  C214  1  0.25000000  0.64450000  0.90113000  1
  C  C215  1  0.25110000  0.19190000  0.43814000  1
  C  C216  1  0.25310000  0.68420000  0.35708000  1
  C  C217  1  0.25400000  0.14370000  0.82294000  1
  C  C218  1  0.25700000  0.63290000  0.03971000  1
  C  C219  1  0.25840000  0.56210000  0.68748000  1
  C  C220  1  0.25910000  0.63440000  0.38081000  1
  C  C221  1  0.27390000  0.57820000  0.88387000  1
  C  C222  1  0.27490000  0.04880000  0.63856000  1
  C  C223  1  0.28360000  0.04910000  0.07454000  1
  C  C224  1  0.28630000  0.05240000  0.50546000  1
  C  C225  1  0.28980000  0.03630000  0.78796000  1
  C  C226  1  0.30550000  0.80820000  0.31105000  1
  C  C227  1  0.30560000  0.09810000  0.09967000  1
  C  C228  1  0.30670000  0.10030000  0.48081000  1
  C  C229  1  0.30810000  0.75110000  0.93814000  1
  C  C230  1  0.30820000  0.19450000  0.81105000  1
  C  C231  1  0.31580000  0.74690000  0.64292000  1
  C  C232  1  0.31580000  0.82370000  0.10422000  1
  C  C233  1  0.32370000  0.18420000  0.60422000  1
  C  C234  1  0.33360000  0.85660000  0.28640000  1
  C  C235  1  0.34320000  0.87580000  0.12855000  1
  C  C236  1  0.34440000  0.01650000  0.05540000  1
  C  C237  1  0.34800000  0.02030000  0.52397000  1
  C  C238  1  0.34930000  0.08570000  0.77571000  1
  C  C239  1  0.34970000  0.09010000  0.64508000  1
  C  C240  1  0.35550000  0.75000000  0.09887000  1
  C  C241  1  0.35630000  0.75400000  0.32294000  1
  C  C242  1  0.35660000  0.16640000  0.78640000  1
  C  C243  1  0.36560000  0.74090000  0.61919000  1
  C  C244  1  0.36710000  0.74300000  0.96029000  1
  C  C245  1  0.37580000  0.15680000  0.62855000  1
  C  C246  1  0.38290000  0.89060000  0.97584000  1
  C  C247  1  0.38840000  0.11150000  0.10493000  1
  C  C248  1  0.38850000  0.88840000  0.60493000  1
  C  C249  1  0.39060000  0.11710000  0.47584000  1
  C  C250  1  0.39970000  0.80670000  0.98081000  1
  C  C251  1  0.40190000  0.80560000  0.59967000  1
  C  C252  1  0.40590000  0.05390000  0.75114000  1
  C  C253  1  0.40600000  0.05660000  0.66987000  1
  C  C254  1  0.40990000  0.84970000  0.14508000  1
  C  C255  1  0.41430000  0.84930000  0.27571000  1
  C  C256  1  0.41930000  0.94830000  0.58609000  1
  C  C257  1  0.41950000  0.95070000  0.99435000  1
  C  C258  1  0.42180000  0.72610000  0.11613000  1
  C  C259  1  0.43020000  0.03410000  0.51906000  1
  C  C260  1  0.43100000  0.03300000  0.06085000  1
  C  C261  1  0.43790000  0.74160000  0.31252000  1
  C  C262  1  0.44340000  0.90600000  0.16987000  1
  C  C263  1  0.44610000  0.90590000  0.25114000  1
  C  C264  1  0.44760000  0.78630000  0.00546000  1
  C  C265  1  0.44830000  0.08070000  0.08609000  1
  C  C266  1  0.45070000  0.08050000  0.49435000  1
  C  C267  1  0.45090000  0.78360000  0.57454000  1
  C  C268  1  0.45120000  0.77490000  0.13856000  1
  C  C269  1  0.46370000  0.78980000  0.28796000  1
  C  C270  1  0.46590000  0.93020000  0.01906000  1
  C  C271  1  0.46700000  0.93100000  0.56085000  1
  C  C272  1  0.47970000  0.84800000  0.02397000  1
  C  C273  1  0.48350000  0.84440000  0.55540000  1
  C  C274  1  0.50000000  0.00000000  0.03979000  1
  C  C275  1  0.50000000  0.00000000  0.53979000  1
  C  C276  1  0.51650000  0.15560000  0.55540000  1
  C  C277  1  0.52030000  0.15200000  0.02397000  1
  C  C278  1  0.53300000  0.06900000  0.56085000  1
  C  C279  1  0.53410000  0.06980000  0.01906000  1
  C  C280  1  0.53630000  0.21020000  0.28796000  1
  C  C281  1  0.54880000  0.22510000  0.13856000  1
  C  C282  1  0.54910000  0.21640000  0.57454000  1
  C  C283  1  0.54930000  0.91950000  0.49435000  1
  C  C284  1  0.55170000  0.91930000  0.08609000  1
  C  C285  1  0.55240000  0.21370000  0.00546000  1
  C  C286  1  0.55390000  0.09410000  0.25114000  1
  C  C287  1  0.55660000  0.09400000  0.16987000  1
  C  C288  1  0.56210000  0.25840000  0.31252000  1
  C  C289  1  0.56900000  0.96700000  0.06085000  1
  C  C290  1  0.56980000  0.96590000  0.51906000  1
  C  C291  1  0.57820000  0.27390000  0.11613000  1
  C  C292  1  0.58050000  0.04930000  0.99435000  1
  C  C293  1  0.58070000  0.05170000  0.58609000  1
  C  C294  1  0.58570000  0.15070000  0.27571000  1
  C  C295  1  0.59010000  0.15030000  0.14508000  1
  C  C296  1  0.59400000  0.94340000  0.66987000  1
  C  C297  1  0.59410000  0.94610000  0.75114000  1
  C  C298  1  0.59810000  0.19440000  0.59967000  1
  C  C299  1  0.60030000  0.19330000  0.98081000  1
  C  C300  1  0.60940000  0.88290000  0.47584000  1
  C  C301  1  0.61150000  0.11160000  0.60493000  1
  C  C302  1  0.61160000  0.88850000  0.10493000  1
  C  C303  1  0.61710000  0.10940000  0.97584000  1
  C  C304  1  0.62420000  0.84320000  0.62855000  1
  C  C305  1  0.63290000  0.25700000  0.96029000  1
  C  C306  1  0.63440000  0.25910000  0.61919000  1
  C  C307  1  0.64340000  0.83360000  0.78640000  1
  C  C308  1  0.64370000  0.24600000  0.32294000  1
  C  C309  1  0.64450000  0.25000000  0.09887000  1
  C  C310  1  0.65030000  0.90990000  0.64508000  1
  C  C311  1  0.65070000  0.91430000  0.77571000  1
  C  C312  1  0.65200000  0.97970000  0.52397000  1
  C  C313  1  0.65560000  0.98350000  0.05540000  1
  C  C314  1  0.65680000  0.12420000  0.12855000  1
  C  C315  1  0.66640000  0.14340000  0.28640000  1
  C  C316  1  0.67630000  0.81580000  0.60422000  1
  C  C317  1  0.68420000  0.17630000  0.10422000  1
  C  C318  1  0.68420000  0.25310000  0.64292000  1
  C  C319  1  0.69180000  0.80550000  0.81105000  1
  C  C320  1  0.69190000  0.24890000  0.93814000  1
  C  C321  1  0.69330000  0.89970000  0.48081000  1
  C  C322  1  0.69440000  0.90190000  0.09967000  1
  C  C323  1  0.69450000  0.19180000  0.31105000  1
  C  C324  1  0.71020000  0.96370000  0.78796000  1
  C  C325  1  0.71370000  0.94760000  0.50546000  1
  C  C326  1  0.71640000  0.95090000  0.07454000  1
  C  C327  1  0.72510000  0.95120000  0.63856000  1
  C  C328  1  0.72610000  0.42180000  0.88387000  1
  C  C329  1  0.74090000  0.36560000  0.38081000  1
  C  C330  1  0.74160000  0.43790000  0.68748000  1
  C  C331  1  0.74300000  0.36710000  0.03971000  1
  C  C332  1  0.74600000  0.85630000  0.82294000  1
  C  C333  1  0.74690000  0.31580000  0.35708000  1
  C  C334  1  0.74890000  0.80810000  0.43814000  1
  C  C335  1  0.75000000  0.35550000  0.90113000  1
  C  C336  1  0.75000000  0.85550000  0.59887000  1
  C  C337  1  0.75110000  0.30810000  0.06186000  1
  C  C338  1  0.75310000  0.81580000  0.14292000  1
  C  C339  1  0.75400000  0.35630000  0.67706000  1
  C  C340  1  0.75700000  0.86710000  0.46029000  1
  C  C341  1  0.75840000  0.93790000  0.81252000  1
  C  C342  1  0.75910000  0.86560000  0.11919000  1
  C  C343  1  0.77390000  0.92180000  0.61613000  1
  C  C344  1  0.77490000  0.45120000  0.86144000  1
  C  C345  1  0.78360000  0.45090000  0.42546000  1
  C  C346  1  0.78630000  0.44760000  0.99454000  1
  C  C347  1  0.78980000  0.46370000  0.71204000  1
  C  C348  1  0.80550000  0.69180000  0.18895000  1
  C  C349  1  0.80560000  0.40190000  0.40033000  1
  C  C350  1  0.80670000  0.39970000  0.01919000  1
  C  C351  1  0.80810000  0.74890000  0.56186000  1
  C  C352  1  0.80820000  0.30550000  0.68895000  1
  C  C353  1  0.81580000  0.67630000  0.39578000  1
  C  C354  1  0.81580000  0.75310000  0.85708000  1
  C  C355  1  0.82370000  0.31580000  0.89578000  1
  C  C356  1  0.83360000  0.64340000  0.21360000  1
  C  C357  1  0.84320000  0.62420000  0.37145000  1
  C  C358  1  0.84440000  0.48350000  0.44460000  1
  C  C359  1  0.84800000  0.47970000  0.97603000  1
  C  C360  1  0.84930000  0.41430000  0.72429000  1
  C  C361  1  0.84970000  0.40990000  0.85492000  1
  C  C362  1  0.85550000  0.75000000  0.40113000  1
  C  C363  1  0.85630000  0.74600000  0.17706000  1
  C  C364  1  0.85660000  0.33360000  0.71360000  1
  C  C365  1  0.86560000  0.75910000  0.88081000  1
  C  C366  1  0.86710000  0.75700000  0.53971000  1
  C  C367  1  0.87580000  0.34320000  0.87145000  1
  C  C368  1  0.88290000  0.60940000  0.52416000  1
  C  C369  1  0.88840000  0.38850000  0.39507000  1
  C  C370  1  0.88850000  0.61160000  0.89507000  1
  C  C371  1  0.89060000  0.38290000  0.02416000  1
  C  C372  1  0.89970000  0.69330000  0.51919000  1
  C  C373  1  0.90190000  0.69440000  0.90033000  1
  C  C374  1  0.90590000  0.44610000  0.74886000  1
  C  C375  1  0.90600000  0.44340000  0.83013000  1
  C  C376  1  0.90990000  0.65030000  0.35492000  1
  C  C377  1  0.91430000  0.65070000  0.22429000  1
  C  C378  1  0.91930000  0.55170000  0.91391000  1
  C  C379  1  0.91950000  0.54930000  0.50565000  1
  C  C380  1  0.92180000  0.77390000  0.38387000  1
  C  C381  1  0.93020000  0.46590000  0.98094000  1
  C  C382  1  0.93100000  0.46700000  0.43915000  1
  C  C383  1  0.93790000  0.75840000  0.18748000  1
  C  C384  1  0.94340000  0.59400000  0.33013000  1
  C  C385  1  0.94610000  0.59410000  0.24886000  1
  C  C386  1  0.94760000  0.71370000  0.49454000  1
  C  C387  1  0.94830000  0.41930000  0.41391000  1
  C  C388  1  0.95070000  0.41950000  0.00565000  1
  C  C389  1  0.95090000  0.71640000  0.92546000  1
  C  C390  1  0.95120000  0.72510000  0.36144000  1
  C  C391  1  0.96370000  0.71020000  0.21204000  1
  C  C392  1  0.96590000  0.56980000  0.48094000  1
  C  C393  1  0.96700000  0.56900000  0.93915000  1
  C  C394  1  0.97970000  0.65200000  0.47603000  1
  C  C395  1  0.98350000  0.65560000  0.94460000  1
  N  N396  1  0.10610000  0.16110000  0.53915000  1
  N  N397  1  0.11780000  0.14510000  0.43961000  1
  N  N398  1  0.11820000  0.16040000  0.13540000  1
  N  N399  1  0.12370000  0.16180000  0.88580000  1
  N  N400  1  0.14510000  0.11780000  0.56039000  1
  N  N401  1  0.16040000  0.11820000  0.86460000  1
  N  N402  1  0.16110000  0.10610000  0.46085000  1
  N  N403  1  0.16180000  0.12370000  0.11420000  1
  N  N404  1  0.17240000  0.19790000  0.42569000  1
  N  N405  1  0.17240000  0.19890000  0.15228000  1
  N  N406  1  0.19790000  0.17240000  0.57431000  1
  N  N407  1  0.19890000  0.17240000  0.84772000  1
  N  N408  1  0.30110000  0.67240000  0.65228000  1
  N  N409  1  0.30210000  0.67240000  0.92569000  1
  N  N410  1  0.32760000  0.69790000  0.07431000  1
  N  N411  1  0.32760000  0.69890000  0.34772000  1
  N  N412  1  0.33820000  0.62370000  0.38580000  1
  N  N413  1  0.33890000  0.60610000  0.03915000  1
  N  N414  1  0.33960000  0.61820000  0.63540000  1
  N  N415  1  0.35490000  0.61780000  0.93961000  1
  N  N416  1  0.37630000  0.66180000  0.61420000  1
  N  N417  1  0.38180000  0.66040000  0.36460000  1
  N  N418  1  0.38220000  0.64510000  0.06039000  1
  N  N419  1  0.39390000  0.66110000  0.96085000  1
  N  N420  1  0.60610000  0.33890000  0.96085000  1
  N  N421  1  0.61780000  0.35490000  0.06039000  1
  N  N422  1  0.61820000  0.33960000  0.36460000  1
  N  N423  1  0.62370000  0.33820000  0.61420000  1
  N  N424  1  0.64510000  0.38220000  0.93961000  1
  N  N425  1  0.66040000  0.38180000  0.63540000  1
  N  N426  1  0.66110000  0.39390000  0.03915000  1
  N  N427  1  0.66180000  0.37630000  0.38580000  1
  N  N428  1  0.67240000  0.30110000  0.34772000  1
  N  N429  1  0.67240000  0.30210000  0.07431000  1
  N  N430  1  0.69790000  0.32760000  0.92569000  1
  N  N431  1  0.69890000  0.32760000  0.65228000  1
  N  N432  1  0.80110000  0.82760000  0.84772000  1
  N  N433  1  0.80210000  0.82760000  0.57431000  1
  N  N434  1  0.82760000  0.80110000  0.15228000  1
  N  N435  1  0.82760000  0.80210000  0.42569000  1
  N  N436  1  0.83820000  0.87630000  0.11420000  1
  N  N437  1  0.83890000  0.89390000  0.46085000  1
  N  N438  1  0.83960000  0.88180000  0.86460000  1
  N  N439  1  0.85490000  0.88220000  0.56039000  1
  N  N440  1  0.87630000  0.83820000  0.88580000  1
  N  N441  1  0.88180000  0.83960000  0.13540000  1
  N  N442  1  0.88220000  0.85490000  0.43961000  1
  N  N443  1  0.89390000  0.83890000  0.53915000  1
  O  O444  1  0.01440000  0.61030000  0.31959000  1
  O  O445  1  0.02000000  0.60560000  0.25694000  1
  O  O446  1  0.03340000  0.60170000  0.82260000  1
  O  O447  1  0.04210000  0.60520000  0.75959000  1
  O  O448  1  0.10170000  0.46660000  0.32260000  1
  O  O449  1  0.10520000  0.45790000  0.25959000  1
  O  O450  1  0.10560000  0.48000000  0.75694000  1
  O  O451  1  0.11030000  0.48560000  0.81959000  1
  O  O452  1  0.38970000  0.98560000  0.68041000  1
  O  O453  1  0.39440000  0.98000000  0.74306000  1
  O  O454  1  0.39480000  0.95790000  0.24041000  1
  O  O455  1  0.39830000  0.96660000  0.17740000  1
  O  O456  1  0.45790000  0.10520000  0.74041000  1
  O  O457  1  0.46660000  0.10170000  0.67740000  1
  O  O458  1  0.48000000  0.10560000  0.24306000  1
  O  O459  1  0.48560000  0.11030000  0.18041000  1
  O  O460  1  0.51440000  0.88970000  0.18041000  1
  O  O461  1  0.52000000  0.89440000  0.24306000  1
  O  O462  1  0.53340000  0.89830000  0.67740000  1
  O  O463  1  0.54210000  0.89480000  0.74041000  1
  O  O464  1  0.60170000  0.03340000  0.17740000  1
  O  O465  1  0.60520000  0.04210000  0.24041000  1
  O  O466  1  0.60560000  0.02000000  0.74306000  1
  O  O467  1  0.61030000  0.01440000  0.68041000  1
  O  O468  1  0.88970000  0.51440000  0.81959000  1
  O  O469  1  0.89440000  0.52000000  0.75694000  1
  O  O470  1  0.89480000  0.54210000  0.25959000  1
  O  O471  1  0.89830000  0.53340000  0.32260000  1
  O  O472  1  0.95790000  0.39480000  0.75959000  1
  O  O473  1  0.96660000  0.39830000  0.82260000  1
  O  O474  1  0.98000000  0.39440000  0.25694000  1
  O  O475  1  0.98560000  0.38970000  0.31959000  1
