# generated using pymatgen
data_Mn3H4(C5O4)4
_symmetry_space_group_name_H-M   'P 1'
_cell_length_a   9.54300000
_cell_length_b   17.67080000
_cell_length_c   19.10350000
_cell_angle_alpha   90.00000000
_cell_angle_beta   90.00000000
_cell_angle_gamma   90.00000000
_symmetry_Int_Tables_number   1
_chemical_formula_structural   Mn3H4(C5O4)4
_chemical_formula_sum   'Mn12 H16 C80 O64'
_cell_volume   3221.46990160
_cell_formula_units_Z   4
loop_
 _symmetry_equiv_pos_site_id
 _symmetry_equiv_pos_as_xyz
  1  'x, y, z'
loop_
 _atom_site_type_symbol
 _atom_site_label
 _atom_site_symmetry_multiplicity
 _atom_site_fract_x
 _atom_site_fract_y
 _atom_site_fract_z
 _atom_site_occupancy
  Mn  Mn0  1  0.07177000  0.25000000  0.00000000  1
  Mn  Mn1  1  0.92823000  0.75000000  0.00000000  1
  Mn  Mn2  1  0.23360000  0.69574000  0.24279000  1
  Mn  Mn3  1  0.76640000  0.19574000  0.24279000  1
  Mn  Mn4  1  0.26640000  0.19574000  0.25721000  1
  Mn  Mn5  1  0.73360000  0.69574000  0.25721000  1
  Mn  Mn6  1  0.42823000  0.75000000  0.50000000  1
  Mn  Mn7  1  0.57177000  0.25000000  0.50000000  1
  Mn  Mn8  1  0.26640000  0.30426000  0.74279000  1
  Mn  Mn9  1  0.73360000  0.80426000  0.74279000  1
  Mn  Mn10  1  0.23360000  0.80426000  0.75721000  1
  Mn  Mn11  1  0.76640000  0.30426000  0.75721000  1
  H  H12  1  0.20610000  0.43520000  0.09690000  1
  H  H13  1  0.79390000  0.93520000  0.09690000  1
  H  H14  1  0.04090000  0.44490000  0.22990000  1
  H  H15  1  0.95910000  0.94490000  0.22990000  1
  H  H16  1  0.45910000  0.94490000  0.27010000  1
  H  H17  1  0.54090000  0.44490000  0.27010000  1
  H  H18  1  0.29390000  0.93520000  0.40310000  1
  H  H19  1  0.70610000  0.43520000  0.40310000  1
  H  H20  1  0.29390000  0.56480000  0.59690000  1
  H  H21  1  0.70610000  0.06480000  0.59690000  1
  H  H22  1  0.45910000  0.55510000  0.72990000  1
  H  H23  1  0.54090000  0.05510000  0.72990000  1
  H  H24  1  0.04090000  0.05510000  0.77010000  1
  H  H25  1  0.95910000  0.55510000  0.77010000  1
  H  H26  1  0.20610000  0.06480000  0.90310000  1
  H  H27  1  0.79390000  0.56480000  0.90310000  1
  C  C28  1  0.28030000  0.29724000  0.12228000  1
  C  C29  1  0.71970000  0.79724000  0.12228000  1
  C  C30  1  0.24650000  0.57669000  0.12523000  1
  C  C31  1  0.75350000  0.07669000  0.12523000  1
  C  C32  1  0.27320000  0.43715000  0.13213000  1
  C  C33  1  0.72680000  0.93715000  0.13213000  1
  C  C34  1  0.32960000  0.36970000  0.15648000  1
  C  C35  1  0.67040000  0.86970000  0.15648000  1
  C  C36  1  0.31270000  0.50768000  0.15825000  1
  C  C37  1  0.68730000  0.00768000  0.15825000  1
  C  C38  1  0.43060000  0.37250000  0.20994000  1
  C  C39  1  0.56940000  0.87250000  0.20994000  1
  C  C40  1  0.41460000  0.51035000  0.21099000  1
  C  C41  1  0.58540000  0.01035000  0.21099000  1
  C  C42  1  0.47240000  0.44290000  0.23558000  1
  C  C43  1  0.52760000  0.94290000  0.23558000  1
  C  C44  1  0.49960000  0.80274000  0.24085000  1
  C  C45  1  0.50040000  0.30274000  0.24085000  1
  C  C46  1  0.46810000  0.58304000  0.24369000  1
  C  C47  1  0.53190000  0.08304000  0.24369000  1
  C  C48  1  0.03190000  0.08304000  0.25631000  1
  C  C49  1  0.96810000  0.58304000  0.25631000  1
  C  C50  1  0.00040000  0.30274000  0.25915000  1
  C  C51  1  0.99960000  0.80274000  0.25915000  1
  C  C52  1  0.02760000  0.94290000  0.26442000  1
  C  C53  1  0.97240000  0.44290000  0.26442000  1
  C  C54  1  0.08540000  0.01035000  0.28901000  1
  C  C55  1  0.91460000  0.51035000  0.28901000  1
  C  C56  1  0.06940000  0.87250000  0.29006000  1
  C  C57  1  0.93060000  0.37250000  0.29006000  1
  C  C58  1  0.18730000  0.00768000  0.34175000  1
  C  C59  1  0.81270000  0.50768000  0.34175000  1
  C  C60  1  0.17040000  0.86970000  0.34352000  1
  C  C61  1  0.82960000  0.36970000  0.34352000  1
  C  C62  1  0.22680000  0.93715000  0.36787000  1
  C  C63  1  0.77320000  0.43715000  0.36787000  1
  C  C64  1  0.25350000  0.07669000  0.37477000  1
  C  C65  1  0.74650000  0.57669000  0.37477000  1
  C  C66  1  0.21970000  0.79724000  0.37772000  1
  C  C67  1  0.78030000  0.29724000  0.37772000  1
  C  C68  1  0.21970000  0.70276000  0.62228000  1
  C  C69  1  0.78030000  0.20276000  0.62228000  1
  C  C70  1  0.25350000  0.42331000  0.62523000  1
  C  C71  1  0.74650000  0.92331000  0.62523000  1
  C  C72  1  0.22680000  0.56285000  0.63213000  1
  C  C73  1  0.77320000  0.06285000  0.63213000  1
  C  C74  1  0.17040000  0.63030000  0.65648000  1
  C  C75  1  0.82960000  0.13030000  0.65648000  1
  C  C76  1  0.18730000  0.49232000  0.65825000  1
  C  C77  1  0.81270000  0.99232000  0.65825000  1
  C  C78  1  0.06940000  0.62750000  0.70994000  1
  C  C79  1  0.93060000  0.12750000  0.70994000  1
  C  C80  1  0.08540000  0.48965000  0.71099000  1
  C  C81  1  0.91460000  0.98965000  0.71099000  1
  C  C82  1  0.02760000  0.55710000  0.73558000  1
  C  C83  1  0.97240000  0.05710000  0.73558000  1
  C  C84  1  0.00040000  0.19726000  0.74085000  1
  C  C85  1  0.99960000  0.69726000  0.74085000  1
  C  C86  1  0.03190000  0.41696000  0.74369000  1
  C  C87  1  0.96810000  0.91696000  0.74369000  1
  C  C88  1  0.46810000  0.91696000  0.75631000  1
  C  C89  1  0.53190000  0.41696000  0.75631000  1
  C  C90  1  0.49960000  0.69726000  0.75915000  1
  C  C91  1  0.50040000  0.19726000  0.75915000  1
  C  C92  1  0.47240000  0.05710000  0.76442000  1
  C  C93  1  0.52760000  0.55710000  0.76442000  1
  C  C94  1  0.41460000  0.98965000  0.78901000  1
  C  C95  1  0.58540000  0.48965000  0.78901000  1
  C  C96  1  0.43060000  0.12750000  0.79006000  1
  C  C97  1  0.56940000  0.62750000  0.79006000  1
  C  C98  1  0.31270000  0.99232000  0.84175000  1
  C  C99  1  0.68730000  0.49232000  0.84175000  1
  C  C100  1  0.32960000  0.13030000  0.84352000  1
  C  C101  1  0.67040000  0.63030000  0.84352000  1
  C  C102  1  0.27320000  0.06285000  0.86787000  1
  C  C103  1  0.72680000  0.56285000  0.86787000  1
  C  C104  1  0.24650000  0.92331000  0.87477000  1
  C  C105  1  0.75350000  0.42331000  0.87477000  1
  C  C106  1  0.28030000  0.20276000  0.87772000  1
  C  C107  1  0.71970000  0.70276000  0.87772000  1
  O  O108  1  0.22390000  0.30432000  0.06357000  1
  O  O109  1  0.77610000  0.80432000  0.06357000  1
  O  O110  1  0.16310000  0.56595000  0.07674000  1
  O  O111  1  0.83690000  0.06595000  0.07674000  1
  O  O112  1  0.28207000  0.64150000  0.14716000  1
  O  O113  1  0.71793000  0.14150000  0.14716000  1
  O  O114  1  0.29933000  0.23516000  0.15314000  1
  O  O115  1  0.70067000  0.73516000  0.15314000  1
  O  O116  1  0.06073000  0.76984000  0.20892000  1
  O  O117  1  0.93927000  0.26984000  0.20892000  1
  O  O118  1  0.10893000  0.11678000  0.21327000  1
  O  O119  1  0.89107000  0.61678000  0.21327000  1
  O  O120  1  0.38328000  0.78531000  0.21625000  1
  O  O121  1  0.61672000  0.28531000  0.21625000  1
  O  O122  1  0.40891000  0.10158000  0.22806000  1
  O  O123  1  0.59109000  0.60158000  0.22806000  1
  O  O124  1  0.09109000  0.60158000  0.27194000  1
  O  O125  1  0.90891000  0.10158000  0.27194000  1
  O  O126  1  0.11672000  0.28531000  0.28375000  1
  O  O127  1  0.88328000  0.78531000  0.28375000  1
  O  O128  1  0.39107000  0.61678000  0.28673000  1
  O  O129  1  0.60893000  0.11678000  0.28673000  1
  O  O130  1  0.43927000  0.26984000  0.29108000  1
  O  O131  1  0.56073000  0.76984000  0.29108000  1
  O  O132  1  0.20067000  0.73516000  0.34686000  1
  O  O133  1  0.79933000  0.23516000  0.34686000  1
  O  O134  1  0.21793000  0.14150000  0.35284000  1
  O  O135  1  0.78207000  0.64150000  0.35284000  1
  O  O136  1  0.33690000  0.06595000  0.42326000  1
  O  O137  1  0.66310000  0.56595000  0.42326000  1
  O  O138  1  0.27610000  0.80432000  0.43643000  1
  O  O139  1  0.72390000  0.30432000  0.43643000  1
  O  O140  1  0.27610000  0.69568000  0.56357000  1
  O  O141  1  0.72390000  0.19568000  0.56357000  1
  O  O142  1  0.33690000  0.43405000  0.57674000  1
  O  O143  1  0.66310000  0.93405000  0.57674000  1
  O  O144  1  0.21793000  0.35850000  0.64716000  1
  O  O145  1  0.78207000  0.85850000  0.64716000  1
  O  O146  1  0.20067000  0.76484000  0.65314000  1
  O  O147  1  0.79933000  0.26484000  0.65314000  1
  O  O148  1  0.43927000  0.23016000  0.70892000  1
  O  O149  1  0.56073000  0.73016000  0.70892000  1
  O  O150  1  0.39107000  0.88322000  0.71327000  1
  O  O151  1  0.60893000  0.38322000  0.71327000  1
  O  O152  1  0.11672000  0.21469000  0.71625000  1
  O  O153  1  0.88328000  0.71469000  0.71625000  1
  O  O154  1  0.09109000  0.89842000  0.72806000  1
  O  O155  1  0.90891000  0.39842000  0.72806000  1
  O  O156  1  0.40891000  0.39842000  0.77194000  1
  O  O157  1  0.59109000  0.89842000  0.77194000  1
  O  O158  1  0.38328000  0.71469000  0.78375000  1
  O  O159  1  0.61672000  0.21469000  0.78375000  1
  O  O160  1  0.10893000  0.38322000  0.78673000  1
  O  O161  1  0.89107000  0.88322000  0.78673000  1
  O  O162  1  0.06073000  0.73016000  0.79108000  1
  O  O163  1  0.93927000  0.23016000  0.79108000  1
  O  O164  1  0.29933000  0.26484000  0.84686000  1
  O  O165  1  0.70067000  0.76484000  0.84686000  1
  O  O166  1  0.28207000  0.85850000  0.85284000  1
  O  O167  1  0.71793000  0.35850000  0.85284000  1
  O  O168  1  0.16310000  0.93405000  0.92326000  1
  O  O169  1  0.83690000  0.43405000  0.92326000  1
  O  O170  1  0.22390000  0.19568000  0.93643000  1
  O  O171  1  0.77610000  0.69568000  0.93643000  1
