# generated using pymatgen
data_CdH11C9N2O3
_symmetry_space_group_name_H-M   'P 1'
_cell_length_a   6.19830000
_cell_length_b   15.00700000
_cell_length_c   16.53170000
_cell_angle_alpha   90.00000000
_cell_angle_beta   90.00000000
_cell_angle_gamma   90.00000000
_symmetry_Int_Tables_number   1
_chemical_formula_structural   CdH11C9N2O3
_chemical_formula_sum   'Cd4 H44 C36 N8 O12'
_cell_volume   1537.74382070
_cell_formula_units_Z   4
loop_
 _symmetry_equiv_pos_site_id
 _symmetry_equiv_pos_as_xyz
  1  'x, y, z'
loop_
 _atom_site_type_symbol
 _atom_site_label
 _atom_site_symmetry_multiplicity
 _atom_site_fract_x
 _atom_site_fract_y
 _atom_site_fract_z
 _atom_site_occupancy
  Cd  Cd0  1  0.09273000  0.20834000  0.64465000  1
  Cd  Cd1  1  0.40727000  0.79166000  0.14465000  1
  Cd  Cd2  1  0.59273000  0.29166000  0.35535000  1
  Cd  Cd3  1  0.90727000  0.70834000  0.85535000  1
  H  H4  1  0.03540000  0.70130000  0.18050000  1
  H  H5  1  0.04450000  0.38710000  0.39700000  1
  H  H6  1  0.04820000  0.57520000  0.10940000  1
  H  H7  1  0.08700000  0.84400000  0.95310000  1
  H  H8  1  0.09270000  0.02610000  0.74540000  1
  H  H9  1  0.09790000  0.47330000  0.62650000  1
  H  H10  1  0.11860000  0.45220000  0.53380000  1
  H  H11  1  0.13680000  0.39190000  0.74770000  1
  H  H12  1  0.19680000  0.09140000  0.28800000  1
  H  H13  1  0.21890000  0.67680000  0.29370000  1
  H  H14  1  0.22600000  0.50210000  0.85480000  1
  H  H15  1  0.27400000  0.49790000  0.35480000  1
  H  H16  1  0.28110000  0.32320000  0.79370000  1
  H  H17  1  0.30320000  0.90860000  0.78800000  1
  H  H18  1  0.36320000  0.60810000  0.24770000  1
  H  H19  1  0.38140000  0.54780000  0.03380000  1
  H  H20  1  0.40210000  0.52670000  0.12650000  1
  H  H21  1  0.40730000  0.97390000  0.24540000  1
  H  H22  1  0.41300000  0.15600000  0.45310000  1
  H  H23  1  0.45180000  0.42480000  0.60940000  1
  H  H24  1  0.45550000  0.61290000  0.89700000  1
  H  H25  1  0.46460000  0.29870000  0.68050000  1
  H  H26  1  0.53540000  0.79870000  0.81950000  1
  H  H27  1  0.54450000  0.11290000  0.60300000  1
  H  H28  1  0.54820000  0.92480000  0.89060000  1
  H  H29  1  0.58700000  0.65600000  0.04690000  1
  H  H30  1  0.59270000  0.47390000  0.25460000  1
  H  H31  1  0.59790000  0.02670000  0.37350000  1
  H  H32  1  0.61860000  0.04780000  0.46620000  1
  H  H33  1  0.63680000  0.10810000  0.25230000  1
  H  H34  1  0.69680000  0.40860000  0.71200000  1
  H  H35  1  0.71890000  0.82320000  0.70630000  1
  H  H36  1  0.72600000  0.99790000  0.14520000  1
  H  H37  1  0.77400000  0.00210000  0.64520000  1
  H  H38  1  0.78110000  0.17680000  0.20630000  1
  H  H39  1  0.80320000  0.59140000  0.21200000  1
  H  H40  1  0.86320000  0.89190000  0.75230000  1
  H  H41  1  0.88140000  0.95220000  0.96620000  1
  H  H42  1  0.90210000  0.97330000  0.87350000  1
  H  H43  1  0.90730000  0.52610000  0.75460000  1
  H  H44  1  0.91300000  0.34400000  0.54690000  1
  H  H45  1  0.95180000  0.07520000  0.39060000  1
  H  H46  1  0.95550000  0.88710000  0.10300000  1
  H  H47  1  0.96460000  0.20130000  0.31950000  1
  C  C48  1  0.00340000  0.92750000  0.14170000  1
  C  C49  1  0.06800000  0.55710000  0.27730000  1
  C  C50  1  0.10990000  0.67870000  0.02780000  1
  C  C51  1  0.11840000  0.42580000  0.58740000  1
  C  C52  1  0.13530000  0.49470000  0.33350000  1
  C  C53  1  0.14210000  0.04990000  0.25160000  1
  C  C54  1  0.16070000  0.62050000  0.10300000  1
  C  C55  1  0.21810000  0.63210000  0.25130000  1
  C  C56  1  0.23160000  0.02080000  0.72470000  1
  C  C57  1  0.26840000  0.97920000  0.22470000  1
  C  C58  1  0.28190000  0.36790000  0.75130000  1
  C  C59  1  0.33930000  0.37950000  0.60300000  1
  C  C60  1  0.35790000  0.95010000  0.75160000  1
  C  C61  1  0.36470000  0.50530000  0.83350000  1
  C  C62  1  0.38160000  0.57420000  0.08740000  1
  C  C63  1  0.39010000  0.32130000  0.52780000  1
  C  C64  1  0.43200000  0.44290000  0.77730000  1
  C  C65  1  0.49660000  0.07250000  0.64170000  1
  C  C66  1  0.50340000  0.57250000  0.85830000  1
  C  C67  1  0.56800000  0.94290000  0.72270000  1
  C  C68  1  0.60990000  0.82130000  0.97220000  1
  C  C69  1  0.61840000  0.07420000  0.41260000  1
  C  C70  1  0.63530000  0.00530000  0.66650000  1
  C  C71  1  0.64210000  0.45010000  0.74840000  1
  C  C72  1  0.66070000  0.87950000  0.89700000  1
  C  C73  1  0.71810000  0.86790000  0.74870000  1
  C  C74  1  0.73160000  0.47920000  0.27530000  1
  C  C75  1  0.76840000  0.52080000  0.77530000  1
  C  C76  1  0.78190000  0.13210000  0.24870000  1
  C  C77  1  0.83930000  0.12050000  0.39700000  1
  C  C78  1  0.85790000  0.54990000  0.24840000  1
  C  C79  1  0.86470000  0.99470000  0.16650000  1
  C  C80  1  0.88160000  0.92580000  0.91260000  1
  C  C81  1  0.89010000  0.17870000  0.47220000  1
  C  C82  1  0.93200000  0.05710000  0.22270000  1
  C  C83  1  0.99660000  0.42750000  0.35830000  1
  N  N84  1  0.16830000  0.67630000  0.17490000  1
  N  N85  1  0.20200000  0.91840000  0.17100000  1
  N  N86  1  0.29800000  0.08160000  0.67100000  1
  N  N87  1  0.33170000  0.32370000  0.67490000  1
  N  N88  1  0.66830000  0.82370000  0.82510000  1
  N  N89  1  0.70200000  0.58160000  0.82900000  1
  N  N90  1  0.79800000  0.41840000  0.32900000  1
  N  N91  1  0.83170000  0.17630000  0.32510000  1
  O  O92  1  0.05020000  0.63890000  0.96530000  1
  O  O93  1  0.05380000  0.86420000  0.90650000  1
  O  O94  1  0.13980000  0.76050000  0.03470000  1
  O  O95  1  0.36020000  0.23950000  0.53470000  1
  O  O96  1  0.44620000  0.13580000  0.40650000  1
  O  O97  1  0.44980000  0.36110000  0.46530000  1
  O  O98  1  0.55020000  0.86110000  0.03470000  1
  O  O99  1  0.55380000  0.63580000  0.09350000  1
  O  O100  1  0.63980000  0.73950000  0.96530000  1
  O  O101  1  0.86020000  0.26050000  0.46530000  1
  O  O102  1  0.94620000  0.36420000  0.59350000  1
  O  O103  1  0.94980000  0.13890000  0.53470000  1
