# generated using pymatgen
data_Co3H40C52O19
_symmetry_space_group_name_H-M   'P 1'
_cell_length_a   10.93810000
_cell_length_b   13.51960000
_cell_length_c   34.32600000
_cell_angle_alpha   99.06190000
_cell_angle_beta   90.00000000
_cell_angle_gamma   113.86200000
_symmetry_Int_Tables_number   1
_chemical_formula_structural   Co3H40C52O19
_chemical_formula_sum   'Co6 H80 C104 O38'
_cell_volume   4572.83078884
_cell_formula_units_Z   2
loop_
 _symmetry_equiv_pos_site_id
 _symmetry_equiv_pos_as_xyz
  1  'x, y, z'
loop_
 _atom_site_type_symbol
 _atom_site_label
 _atom_site_symmetry_multiplicity
 _atom_site_fract_x
 _atom_site_fract_y
 _atom_site_fract_z
 _atom_site_occupancy
  Co  Co0  1  0.00000000  0.50000000  0.50000000  1
  Co  Co1  1  0.14222000  0.36642000  0.00282000  1
  Co  Co2  1  0.22420000  0.36642000  0.50282000  1
  Co  Co3  1  0.50000000  0.50000000  0.00000000  1
  Co  Co4  1  0.77580000  0.63358000  0.49718000  1
  Co  Co5  1  0.85778000  0.63358000  0.99718000  1
  H  H6  1  0.03150000  0.89760000  0.58820000  1
  H  H7  1  0.05980000  0.53780000  0.91180000  1
  H  H8  1  0.05980000  0.60080000  0.62160000  1
  H  H9  1  0.08080000  0.61420000  0.85540000  1
  H  H10  1  0.12290000  0.68920000  0.68660000  1
  H  H11  1  0.13390000  0.10240000  0.91180000  1
  H  H12  1  0.14960000  0.51960000  0.12040000  1
  H  H13  1  0.15410000  0.60400000  0.41650000  1
  H  H14  1  0.17100000  0.99300000  0.85820000  1
  H  H15  1  0.17490000  0.60800000  0.18400000  1
  H  H16  1  0.17800000  0.00700000  0.64180000  1
  H  H17  1  0.19160000  0.73480000  0.75880000  1
  H  H18  1  0.21340000  0.68580000  0.36100000  1
  H  H19  1  0.22910000  0.86800000  0.82090000  1
  H  H20  1  0.26050000  0.82540000  0.73260000  1
  H  H21  1  0.27400000  0.75000000  0.55840000  1
  H  H22  1  0.27840000  0.95800000  0.79350000  1
  H  H23  1  0.28850000  0.74040000  0.29510000  1
  H  H24  1  0.32040000  0.04200000  0.70650000  1
  H  H25  1  0.34550000  0.88820000  0.25210000  1
  H  H26  1  0.36110000  0.13200000  0.67910000  1
  H  H27  1  0.36220000  0.82640000  0.33333333  1
  H  H28  1  0.37000000  0.51960000  0.62040000  1
  H  H29  1  0.40190000  0.97160000  0.29200000  1
  H  H30  1  0.42600000  0.86420000  0.60980000  1
  H  H31  1  0.43030000  0.02840000  0.20800000  1
  H  H32  1  0.43310000  0.60800000  0.68400000  1
  H  H33  1  0.43370000  0.31080000  0.81340000  1
  H  H34  1  0.43510000  0.17460000  0.76740000  1
  H  H35  1  0.43820000  0.86420000  0.10980000  1
  H  H36  1  0.44990000  0.60400000  0.91650000  1
  H  H37  1  0.45190000  0.74040000  0.79510000  1
  H  H38  1  0.45680000  0.26520000  0.74120000  1
  H  H39  1  0.45730000  0.11180000  0.24790000  1
  H  H40  1  0.45900000  0.39920000  0.87840000  1
  H  H41  1  0.46420000  0.82640000  0.83330000  1
  H  H42  1  0.46660000  0.38580000  0.64460000  1
  H  H43  1  0.47240000  0.68580000  0.86100000  1
  H  H44  1  0.47600000  0.75000000  0.05840000  1
  H  H45  1  0.47800000  0.53780000  0.41180000  1
  H  H46  1  0.52200000  0.46220000  0.58820000  1
  H  H47  1  0.52400000  0.25000000  0.94160000  1
  H  H48  1  0.52760000  0.31420000  0.13900000  1
  H  H49  1  0.53340000  0.61420000  0.35540000  1
  H  H50  1  0.53580000  0.17360000  0.16670000  1
  H  H51  1  0.54100000  0.60080000  0.12160000  1
  H  H52  1  0.54270000  0.88820000  0.75210000  1
  H  H53  1  0.54320000  0.73480000  0.25880000  1
  H  H54  1  0.54810000  0.25960000  0.20490000  1
  H  H55  1  0.55010000  0.39600000  0.08350000  1
  H  H56  1  0.56180000  0.13580000  0.89020000  1
  H  H57  1  0.56490000  0.82540000  0.23260000  1
  H  H58  1  0.56630000  0.68920000  0.18660000  1
  H  H59  1  0.56690000  0.39200000  0.31600000  1
  H  H60  1  0.56970000  0.97160000  0.79200000  1
  H  H61  1  0.57400000  0.13580000  0.39020000  1
  H  H62  1  0.59810000  0.02840000  0.70800000  1
  H  H63  1  0.63000000  0.48040000  0.37960000  1
  H  H64  1  0.63780000  0.17360000  0.66666667  1
  H  H65  1  0.63890000  0.86800000  0.32090000  1
  H  H66  1  0.65450000  0.11180000  0.74790000  1
  H  H67  1  0.67960000  0.95800000  0.29350000  1
  H  H68  1  0.71150000  0.25960000  0.70490000  1
  H  H69  1  0.72160000  0.04200000  0.20650000  1
  H  H70  1  0.72600000  0.25000000  0.44160000  1
  H  H71  1  0.73950000  0.17460000  0.26740000  1
  H  H72  1  0.77090000  0.13200000  0.17910000  1
  H  H73  1  0.78660000  0.31420000  0.63900000  1
  H  H74  1  0.80840000  0.26520000  0.24120000  1
  H  H75  1  0.82200000  0.99300000  0.35820000  1
  H  H76  1  0.82510000  0.39200000  0.81600000  1
  H  H77  1  0.82900000  0.00700000  0.14180000  1
  H  H78  1  0.84590000  0.39600000  0.58350000  1
  H  H79  1  0.85040000  0.48040000  0.87960000  1
  H  H80  1  0.86610000  0.89760000  0.08820000  1
  H  H81  1  0.87710000  0.31080000  0.31340000  1
  H  H82  1  0.91920000  0.38580000  0.14460000  1
  H  H83  1  0.94020000  0.39920000  0.37840000  1
  H  H84  1  0.94020000  0.46220000  0.08820000  1
  H  H85  1  0.96850000  0.10240000  0.41180000  1
  C  C86  1  0.04167000  0.73714000  0.53420000  1
  C  C87  1  0.11071000  0.88982000  0.59276000  1
  C  C88  1  0.13578000  0.60196000  0.63414000  1
  C  C89  1  0.13821000  0.81322000  0.56788000  1
  C  C90  1  0.14299000  0.56598000  0.90139000  1
  C  C91  1  0.15550000  0.61360000  0.86812000  1
  C  C92  1  0.16899000  0.49598000  0.57180000  1
  C  C93  1  0.17436000  0.65632000  0.67316000  1
  C  C94  1  0.19890000  0.95640000  0.62472000  1
  C  C95  1  0.20799000  0.55038000  0.61399000  1
  C  C96  1  0.22089000  0.11018000  0.90724000  1
  C  C97  1  0.23084000  0.60608000  0.40436000  1
  C  C98  1  0.23369000  0.50358000  0.95442000  1
  C  C99  1  0.23470000  0.55420000  0.13335000  1
  C  C100  1  0.24250000  0.04360000  0.87528000  1
  C  C101  1  0.24990000  0.60760000  0.17133000  1
  C  C102  1  0.25072000  0.55944000  0.91946000  1
  C  C103  1  0.25497000  0.80294000  0.57479000  1
  C  C104  1  0.26660000  0.65580000  0.37128000  1
  C  C105  1  0.26989000  0.50358000  0.45442000  1
  C  C106  1  0.27649000  0.78038000  0.74957000  1
  C  C107  1  0.27972000  0.66004000  0.85399000  1
  C  C108  1  0.28611000  0.66102000  0.69129000  1
  C  C109  1  0.30453000  0.26286000  0.96580000  1
  C  C110  1  0.30689000  0.91718000  0.80951000  1
  C  C111  1  0.30872000  0.55944000  0.41946000  1
  C  C112  1  0.31694000  0.94648000  0.63076000  1
  C  C113  1  0.31950000  0.55420000  0.63335000  1
  C  C114  1  0.32499000  0.18678000  0.93212000  1
  C  C115  1  0.32699000  0.49598000  0.07180000  1
  C  C116  1  0.34239000  0.55038000  0.11399000  1
  C  C117  1  0.34560000  0.87060000  0.60588000  1
  C  C118  1  0.35770000  0.60760000  0.67133000  1
  C  C119  1  0.37046000  0.05352000  0.86924000  1
  C  C120  1  0.37421000  0.78102000  0.31011000  1
  C  C121  1  0.37479000  0.85238000  0.78453000  1
  C  C122  1  0.37491000  0.66102000  0.19129000  1
  C  C123  1  0.37524000  0.60608000  0.90436000  1
  C  C124  1  0.38032000  0.66004000  0.35399000  1
  C  C125  1  0.38920000  0.65580000  0.87128000  1
  C  C126  1  0.38971000  0.08282000  0.69049000  1
  C  C127  1  0.40681000  0.78102000  0.81011000  1
  C  C128  1  0.42299000  0.56598000  0.40139000  1
  C  C129  1  0.42476000  0.92952000  0.26991000  1
  C  C130  1  0.45203000  0.19706000  0.92521000  1
  C  C131  1  0.45810000  0.61360000  0.36812000  1
  C  C132  1  0.46618000  0.60196000  0.13414000  1
  C  C133  1  0.47500000  0.12940000  0.89412000  1
  C  C134  1  0.47759000  0.85238000  0.28453000  1
  C  C135  1  0.48196000  0.65632000  0.17316000  1
  C  C136  1  0.49524000  0.07048000  0.23009000  1
  C  C137  1  0.49611000  0.21962000  0.75043000  1
  C  C138  1  0.50389000  0.78038000  0.24957000  1
  C  C139  1  0.50476000  0.92952000  0.76991000  1
  C  C140  1  0.51804000  0.34368000  0.82684000  1
  C  C141  1  0.52241000  0.14762000  0.71547000  1
  C  C142  1  0.52500000  0.87060000  0.10588000  1
  C  C143  1  0.53382000  0.39804000  0.86586000  1
  C  C144  1  0.54190000  0.38640000  0.63188000  1
  C  C145  1  0.54797000  0.80294000  0.07479000  1
  C  C146  1  0.57524000  0.07048000  0.73009000  1
  C  C147  1  0.57701000  0.43402000  0.59861000  1
  C  C148  1  0.59319000  0.21898000  0.18989000  1
  C  C149  1  0.61029000  0.91718000  0.30951000  1
  C  C150  1  0.61080000  0.34420000  0.12872000  1
  C  C151  1  0.61968000  0.33996000  0.64601000  1
  C  C152  1  0.62476000  0.39392000  0.09564000  1
  C  C153  1  0.62509000  0.33898000  0.80871000  1
  C  C154  1  0.62521000  0.14762000  0.21547000  1
  C  C155  1  0.62579000  0.21898000  0.68989000  1
  C  C156  1  0.62954000  0.94648000  0.13076000  1
  C  C157  1  0.64230000  0.39240000  0.32867000  1
  C  C158  1  0.65440000  0.12940000  0.39412000  1
  C  C159  1  0.65761000  0.44962000  0.88601000  1
  C  C160  1  0.67301000  0.50402000  0.92820000  1
  C  C161  1  0.67501000  0.81322000  0.06788000  1
  C  C162  1  0.68050000  0.44580000  0.36665000  1
  C  C163  1  0.68306000  0.05352000  0.36924000  1
  C  C164  1  0.69128000  0.44056000  0.58054000  1
  C  C165  1  0.69311000  0.08282000  0.19049000  1
  C  C166  1  0.69547000  0.73714000  0.03420000  1
  C  C167  1  0.71389000  0.33898000  0.30871000  1
  C  C168  1  0.72028000  0.33996000  0.14601000  1
  C  C169  1  0.72351000  0.21962000  0.25043000  1
  C  C170  1  0.73011000  0.49642000  0.54558000  1
  C  C171  1  0.73340000  0.34420000  0.62872000  1
  C  C172  1  0.74503000  0.19706000  0.42521000  1
  C  C173  1  0.74928000  0.44056000  0.08054000  1
  C  C174  1  0.75010000  0.39240000  0.82867000  1
  C  C175  1  0.75750000  0.95640000  0.12472000  1
  C  C176  1  0.76530000  0.44580000  0.86665000  1
  C  C177  1  0.76631000  0.49642000  0.04558000  1
  C  C178  1  0.76916000  0.39392000  0.59564000  1
  C  C179  1  0.77911000  0.88982000  0.09276000  1
  C  C180  1  0.79201000  0.44962000  0.38601000  1
  C  C181  1  0.80110000  0.04360000  0.37528000  1
  C  C182  1  0.82564000  0.34368000  0.32684000  1
  C  C183  1  0.83101000  0.50402000  0.42820000  1
  C  C184  1  0.84450000  0.38640000  0.13188000  1
  C  C185  1  0.85701000  0.43402000  0.09861000  1
  C  C186  1  0.86179000  0.18678000  0.43212000  1
  C  C187  1  0.86422000  0.39804000  0.36586000  1
  C  C188  1  0.88929000  0.11018000  0.40724000  1
  C  C189  1  0.95833000  0.26286000  0.46580000  1
  O  O190  1  0.06702000  0.25344000  0.47055000  1
  O  O191  1  0.07408000  0.50496000  0.55529000  1
  O  O192  1  0.07555000  0.66990000  0.51250000  1
  O  O193  1  0.11524000  0.44948000  0.96315000  1
  O  O194  1  0.17798000  0.50896000  0.47406000  1
  O  O195  1  0.18642000  0.25344000  0.97055000  1
  O  O196  1  0.20802000  0.44424000  0.05613000  1
  O  O197  1  0.23622000  0.44424000  0.55613000  1
  O  O198  1  0.28225000  0.70810000  0.82132000  1
  O  O199  1  0.33098000  0.50896000  0.97406000  1
  O  O200  1  0.33424000  0.44948000  0.46315000  1
  O  O201  1  0.33687000  0.71374000  0.72863000  1
  O  O202  1  0.37687000  0.71374000  0.22863000  1
  O  O203  1  0.40565000  0.33010000  0.98750000  1
  O  O204  1  0.40625000  0.99090000  0.84026000  1
  O  O205  1  0.41535000  0.00910000  0.65974000  1
  O  O206  1  0.42585000  0.70810000  0.32132000  1
  O  O207  1  0.43088000  0.50496000  0.05529000  1
  O  O208  1  0.47120000  0.00000000  0.75000000  1
  O  O209  1  0.52880000  0.00000000  0.25000000  1
  O  O210  1  0.56912000  0.49504000  0.94471000  1
  O  O211  1  0.57415000  0.29190000  0.67868000  1
  O  O212  1  0.58465000  0.99090000  0.34026000  1
  O  O213  1  0.59375000  0.00910000  0.15974000  1
  O  O214  1  0.59435000  0.66990000  0.01250000  1
  O  O215  1  0.62313000  0.28626000  0.77137000  1
  O  O216  1  0.66313000  0.28626000  0.27137000  1
  O  O217  1  0.66576000  0.55052000  0.53685000  1
  O  O218  1  0.66902000  0.49104000  0.02594000  1
  O  O219  1  0.71775000  0.29190000  0.17868000  1
  O  O220  1  0.76378000  0.55576000  0.44387000  1
  O  O221  1  0.79198000  0.55576000  0.94387000  1
  O  O222  1  0.81358000  0.74656000  0.02945000  1
  O  O223  1  0.82202000  0.49104000  0.52594000  1
  O  O224  1  0.88476000  0.55052000  0.03685000  1
  O  O225  1  0.92445000  0.33010000  0.48750000  1
  O  O226  1  0.92592000  0.49504000  0.44471000  1
  O  O227  1  0.93298000  0.74656000  0.52945000  1
