# generated using pymatgen
data_Mn3H22(C21O8)2
_symmetry_space_group_name_H-M   'P 1'
_cell_length_a   9.37960000
_cell_length_b   17.45710000
_cell_length_c   17.45710000
_cell_angle_alpha   76.44100000
_cell_angle_beta   77.17500000
_cell_angle_gamma   77.17490000
_symmetry_Int_Tables_number   1
_chemical_formula_structural   Mn3H22(C21O8)2
_chemical_formula_sum   'Mn6 H44 C84 O32'
_cell_volume   2665.54796646
_cell_formula_units_Z   2
loop_
 _symmetry_equiv_pos_site_id
 _symmetry_equiv_pos_as_xyz
  1  'x, y, z'
loop_
 _atom_site_type_symbol
 _atom_site_label
 _atom_site_symmetry_multiplicity
 _atom_site_fract_x
 _atom_site_fract_y
 _atom_site_fract_z
 _atom_site_occupancy
  Mn  Mn0  1  0.00000000  0.00000000  0.50000000  1
  Mn  Mn1  1  0.93900000  0.18047000  0.31366000  1
  Mn  Mn2  1  0.56100000  0.68634000  0.81953000  1
  Mn  Mn3  1  0.50000000  0.50000000  1.00000000  1
  Mn  Mn4  1  0.43900000  0.31366000  0.18047000  1
  Mn  Mn5  1  0.06100000  0.81953000  0.68634000  1
  H  H6  1  0.98490000  0.52090000  0.72830000  1
  H  H7  1  0.93990000  0.84190000  0.86570000  1
  H  H8  1  0.92670000  0.79150000  0.15930000  1
  H  H9  1  0.92620000  0.83830000  0.37310000  1
  H  H10  1  0.91750000  0.01650000  0.18110000  1
  H  H11  1  0.86960000  0.58960000  0.31920000  1
  H  H12  1  0.82420000  0.15510000  0.60850000  1
  H  H13  1  0.82060000  0.91410000  0.96450000  1
  H  H14  1  0.81610000  0.15060000  0.93520000  1
  H  H15  1  0.81560000  0.28190000  0.79390000  1
  H  H16  1  0.80100000  0.96820000  0.77560000  1
  H  H17  1  0.69900000  0.22440000  0.03180000  1
  H  H18  1  0.68440000  0.20610000  0.71810000  1
  H  H19  1  0.68390000  0.06480000  0.84940000  1
  H  H20  1  0.67940000  0.03550000  0.08590000  1
  H  H21  1  0.67580000  0.39150000  0.84490000  1
  H  H22  1  0.63040000  0.68080000  0.41040000  1
  H  H23  1  0.58250000  0.81890000  0.98350000  1
  H  H24  1  0.57380000  0.62690000  0.16170000  1
  H  H25  1  0.57330000  0.84070000  0.20850000  1
  H  H26  1  0.56010000  0.13430000  0.15810000  1
  H  H27  1  0.51510000  0.27170000  0.47910000  1
  H  H28  1  0.48490000  0.72830000  0.52090000  1
  H  H29  1  0.43990000  0.86570000  0.84190000  1
  H  H30  1  0.42670000  0.15930000  0.79150000  1
  H  H31  1  0.42620000  0.37310000  0.83830000  1
  H  H32  1  0.41750000  0.18110000  0.01650000  1
  H  H33  1  0.36960000  0.31920000  0.58960000  1
  H  H34  1  0.32420000  0.60850000  0.15510000  1
  H  H35  1  0.32060000  0.96450000  0.91410000  1
  H  H36  1  0.31610000  0.93520000  0.15060000  1
  H  H37  1  0.31560000  0.79390000  0.28190000  1
  H  H38  1  0.30100000  0.77560000  0.96820000  1
  H  H39  1  0.19900000  0.03180000  0.22440000  1
  H  H40  1  0.18440000  0.71810000  0.20610000  1
  H  H41  1  0.18390000  0.84940000  0.06480000  1
  H  H42  1  0.17940000  0.08590000  0.03550000  1
  H  H43  1  0.17580000  0.84490000  0.39150000  1
  H  H44  1  0.13040000  0.41040000  0.68080000  1
  H  H45  1  0.08250000  0.98350000  0.81890000  1
  H  H46  1  0.07380000  0.16170000  0.62690000  1
  H  H47  1  0.07330000  0.20850000  0.84070000  1
  H  H48  1  0.06010000  0.15810000  0.13430000  1
  H  H49  1  0.01510000  0.47910000  0.27170000  1
  C  C50  1  0.99260000  0.88869000  0.02307000  1
  C  C51  1  0.98910000  0.84333000  0.90599000  1
  C  C52  1  0.98390000  0.33673000  0.73087000  1
  C  C53  1  0.96280000  0.59317000  0.28761000  1
  C  C54  1  0.95010000  0.47268000  0.74156000  1
  C  C55  1  0.92940000  0.80287000  0.27061000  1
  C  C56  1  0.92700000  0.82766000  0.19070000  1
  C  C57  1  0.92530000  0.85614000  0.31866000  1
  C  C58  1  0.92510000  0.90786000  0.15750000  1
  C  C59  1  0.92030000  0.99585000  0.33549000  1
  C  C60  1  0.92030000  0.96259000  0.20401000  1
  C  C61  1  0.91990000  0.93640000  0.28472000  1
  C  C62  1  0.91770000  0.88669000  0.96465000  1
  C  C63  1  0.86760000  0.19794000  0.09346000  1
  C  C64  1  0.86500000  0.15238000  0.97544000  1
  C  C65  1  0.84980000  0.33019000  0.78045000  1
  C  C66  1  0.81380000  0.46833000  0.78949000  1
  C  C67  1  0.79520000  0.19601000  0.03311000  1
  C  C68  1  0.78760000  0.24334000  0.15770000  1
  C  C69  1  0.78110000  0.18547000  0.45759000  1
  C  C70  1  0.76580000  0.39612000  0.81030000  1
  C  C71  1  0.73420000  0.18970000  0.60388000  1
  C  C72  1  0.71890000  0.54241000  0.81453000  1
  C  C73  1  0.71240000  0.84230000  0.75666000  1
  C  C74  1  0.70480000  0.96689000  0.80399000  1
  C  C75  1  0.68620000  0.21051000  0.53167000  1
  C  C76  1  0.65020000  0.21955000  0.66981000  1
  C  C77  1  0.63500000  0.02456000  0.84762000  1
  C  C78  1  0.63240000  0.90654000  0.80206000  1
  C  C79  1  0.58230000  0.03535000  0.11331000  1
  C  C80  1  0.58010000  0.71528000  0.06360000  1
  C  C81  1  0.57970000  0.79599000  0.03741000  1
  C  C82  1  0.57970000  0.66451000  0.00415000  1
  C  C83  1  0.57490000  0.84250000  0.09214000  1
  C  C84  1  0.57470000  0.68134000  0.14386000  1
  C  C85  1  0.57300000  0.80930000  0.17234000  1
  C  C86  1  0.57060000  0.72939000  0.19713000  1
  C  C87  1  0.54990000  0.25844000  0.52732000  1
  C  C88  1  0.53720000  0.71239000  0.40683000  1
  C  C89  1  0.51610000  0.26913000  0.66327000  1
  C  C90  1  0.51090000  0.09401000  0.15667000  1
  C  C91  1  0.50740000  0.97693000  0.11131000  1
  C  C92  1  0.49260000  0.02307000  0.88869000  1
  C  C93  1  0.48910000  0.90599000  0.84333000  1
  C  C94  1  0.48390000  0.73087000  0.33673000  1
  C  C95  1  0.46280000  0.28761000  0.59317000  1
  C  C96  1  0.45010000  0.74156000  0.47268000  1
  C  C97  1  0.42940000  0.27061000  0.80287000  1
  C  C98  1  0.42700000  0.19070000  0.82766000  1
  C  C99  1  0.42530000  0.31866000  0.85614000  1
  C  C100  1  0.42510000  0.15750000  0.90786000  1
  C  C101  1  0.42030000  0.33549000  0.99585000  1
  C  C102  1  0.42030000  0.20401000  0.96259000  1
  C  C103  1  0.41990000  0.28472000  0.93640000  1
  C  C104  1  0.41770000  0.96465000  0.88669000  1
  C  C105  1  0.36760000  0.09346000  0.19794000  1
  C  C106  1  0.36500000  0.97544000  0.15238000  1
  C  C107  1  0.34980000  0.78045000  0.33019000  1
  C  C108  1  0.31380000  0.78949000  0.46833000  1
  C  C109  1  0.29520000  0.03311000  0.19601000  1
  C  C110  1  0.28760000  0.15770000  0.24334000  1
  C  C111  1  0.28110000  0.45759000  0.18547000  1
  C  C112  1  0.26580000  0.81030000  0.39612000  1
  C  C113  1  0.23420000  0.60388000  0.18970000  1
  C  C114  1  0.21890000  0.81453000  0.54241000  1
  C  C115  1  0.21240000  0.75666000  0.84230000  1
  C  C116  1  0.20480000  0.80399000  0.96689000  1
  C  C117  1  0.18620000  0.53167000  0.21051000  1
  C  C118  1  0.15020000  0.66981000  0.21955000  1
  C  C119  1  0.13500000  0.84762000  0.02456000  1
  C  C120  1  0.13240000  0.80206000  0.90654000  1
  C  C121  1  0.08230000  0.11331000  0.03535000  1
  C  C122  1  0.08010000  0.06360000  0.71528000  1
  C  C123  1  0.07970000  0.03741000  0.79599000  1
  C  C124  1  0.07970000  0.00415000  0.66451000  1
  C  C125  1  0.07490000  0.09214000  0.84250000  1
  C  C126  1  0.07470000  0.14386000  0.68134000  1
  C  C127  1  0.07300000  0.17234000  0.80930000  1
  C  C128  1  0.07060000  0.19713000  0.72939000  1
  C  C129  1  0.04990000  0.52732000  0.25844000  1
  C  C130  1  0.03720000  0.40683000  0.71239000  1
  C  C131  1  0.01610000  0.66327000  0.26913000  1
  C  C132  1  0.01090000  0.15667000  0.09401000  1
  C  C133  1  0.00740000  0.11131000  0.97693000  1
  O  O134  1  0.93110000  0.96830000  0.40646000  1
  O  O135  1  0.92930000  0.72346000  0.30742000  1
  O  O136  1  0.92060000  0.93764000  0.07752000  1
  O  O137  1  0.90870000  0.06763000  0.30131000  1
  O  O138  1  0.90560000  0.13933000  0.45981000  1
  O  O139  1  0.84990000  0.24248000  0.21346000  1
  O  O140  1  0.83830000  0.85002000  0.71756000  1
  O  O141  1  0.76370000  0.60767000  0.78483000  1
  O  O142  1  0.73630000  0.21517000  0.39233000  1
  O  O143  1  0.66170000  0.28244000  0.14998000  1
  O  O144  1  0.65010000  0.78654000  0.75752000  1
  O  O145  1  0.59440000  0.54019000  0.86067000  1
  O  O146  1  0.59130000  0.69869000  0.93237000  1
  O  O147  1  0.57940000  0.92248000  0.06236000  1
  O  O148  1  0.57070000  0.69258000  0.27654000  1
  O  O149  1  0.56890000  0.59354000  0.03170000  1
  O  O150  1  0.43110000  0.40646000  0.96830000  1
  O  O151  1  0.42930000  0.30742000  0.72346000  1
  O  O152  1  0.42060000  0.07752000  0.93764000  1
  O  O153  1  0.40870000  0.30131000  0.06763000  1
  O  O154  1  0.40560000  0.45981000  0.13933000  1
  O  O155  1  0.34990000  0.21346000  0.24248000  1
  O  O156  1  0.33830000  0.71756000  0.85002000  1
  O  O157  1  0.26370000  0.78483000  0.60767000  1
  O  O158  1  0.23630000  0.39233000  0.21517000  1
  O  O159  1  0.16170000  0.14998000  0.28244000  1
  O  O160  1  0.15010000  0.75752000  0.78654000  1
  O  O161  1  0.09440000  0.86067000  0.54019000  1
  O  O162  1  0.09130000  0.93237000  0.69869000  1
  O  O163  1  0.07940000  0.06236000  0.92248000  1
  O  O164  1  0.07070000  0.27654000  0.69258000  1
  O  O165  1  0.06890000  0.03170000  0.59354000  1
