# generated using pymatgen
data_V(PO3)2
_symmetry_space_group_name_H-M   'P 1'
_cell_length_a   8.81700000
_cell_length_b   9.24300000
_cell_length_c   9.33948313
_cell_angle_alpha   117.18557040
_cell_angle_beta   90.00000000
_cell_angle_gamma   90.00000000
_symmetry_Int_Tables_number   1
_chemical_formula_structural   V(PO3)2
_chemical_formula_sum   'V4 P8 O24'
_cell_volume   677.04564592
_cell_formula_units_Z   4
loop_
 _symmetry_equiv_pos_site_id
 _symmetry_equiv_pos_as_xyz
  1  'x, y, z'
loop_
 _atom_site_type_symbol
 _atom_site_label
 _atom_site_symmetry_multiplicity
 _atom_site_fract_x
 _atom_site_fract_y
 _atom_site_fract_z
 _atom_site_occupancy
  V  V0  1  0.39270000  0.75000000  0.75000000  1
  V  V1  1  0.60730000  0.25000000  0.25000000  1
  V  V2  1  0.11040000  0.25000000  0.75000000  1
  V  V3  1  0.88960000  0.75000000  0.25000000  1
  P  P4  1  0.33290000  0.14020000  0.97280000  1
  P  P5  1  0.66710000  0.64020000  0.47280000  1
  P  P6  1  0.10170000  0.83110000  0.57350000  1
  P  P7  1  0.89830000  0.33110000  0.07350000  1
  P  P8  1  0.10170000  0.66890000  0.92650000  1
  P  P9  1  0.89830000  0.16890000  0.42650000  1
  P  P10  1  0.33290000  0.35980000  0.52720000  1
  P  P11  1  0.66710000  0.85980000  0.02720000  1
  O  O12  1  0.39900000  0.98100000  0.84500000  1
  O  O13  1  0.60100000  0.48100000  0.34500000  1
  O  O14  1  0.23200000  0.74200000  0.60500000  1
  O  O15  1  0.76800000  0.24200000  0.10500000  1
  O  O16  1  0.44800000  0.25700000  0.10500000  1
  O  O17  1  0.55200000  0.75700000  0.60500000  1
  O  O18  1  0.25700000  0.25600000  0.91000000  1
  O  O19  1  0.74300000  0.75600000  0.41000000  1
  O  O20  1  0.05800000  0.75200000  0.39600000  1
  O  O21  1  0.94200000  0.25200000  0.89600000  1
  O  O22  1  0.11500000  0.00800000  0.63900000  1
  O  O23  1  0.88500000  0.50800000  0.13900000  1
  O  O24  1  0.11500000  0.49200000  0.86100000  1
  O  O25  1  0.88500000  0.99200000  0.36100000  1
  O  O26  1  0.05800000  0.74800000  0.10400000  1
  O  O27  1  0.94200000  0.24800000  0.60400000  1
  O  O28  1  0.25700000  0.24400000  0.59000000  1
  O  O29  1  0.74300000  0.74400000  0.09000000  1
  O  O30  1  0.44800000  0.24300000  0.39500000  1
  O  O31  1  0.55200000  0.74300000  0.89500000  1
  O  O32  1  0.23200000  0.75800000  0.89500000  1
  O  O33  1  0.76800000  0.25800000  0.39500000  1
  O  O34  1  0.39900000  0.51900000  0.65500000  1
  O  O35  1  0.60100000  0.01900000  0.15500000  1
