# generated using pymatgen
data_CoH16C24(NO2)2
_symmetry_space_group_name_H-M   'P 1'
_cell_length_a   12.70350000
_cell_length_b   22.65910000
_cell_length_c   22.65910000
_cell_angle_alpha   90.00000000
_cell_angle_beta   90.00000000
_cell_angle_gamma   90.00000000
_symmetry_Int_Tables_number   1
_chemical_formula_structural   CoH16C24(NO2)2
_chemical_formula_sum   'Co8 H128 C192 N16 O32'
_cell_volume   6522.41914453
_cell_formula_units_Z   8
loop_
 _symmetry_equiv_pos_site_id
 _symmetry_equiv_pos_as_xyz
  1  'x, y, z'
loop_
 _atom_site_type_symbol
 _atom_site_label
 _atom_site_symmetry_multiplicity
 _atom_site_fract_x
 _atom_site_fract_y
 _atom_site_fract_z
 _atom_site_occupancy
  Co  Co0  1  0.24712000  0.24312000  0.76245000  1
  Co  Co1  1  0.24712000  0.26245000  0.25688000  1
  Co  Co2  1  0.24712000  0.73755000  0.74312000  1
  Co  Co3  1  0.24712000  0.75688000  0.23755000  1
  Co  Co4  1  0.75288000  0.23755000  0.75688000  1
  Co  Co5  1  0.75288000  0.25688000  0.26245000  1
  Co  Co6  1  0.75288000  0.74312000  0.73755000  1
  Co  Co7  1  0.75288000  0.76245000  0.24312000  1
  H  H8  1  0.02070000  0.11380000  0.80620000  1
  H  H9  1  0.02070000  0.30620000  0.38620000  1
  H  H10  1  0.02070000  0.69380000  0.61380000  1
  H  H11  1  0.02070000  0.88620000  0.19380000  1
  H  H12  1  0.03880000  0.20910000  0.29020000  1
  H  H13  1  0.03880000  0.20980000  0.70910000  1
  H  H14  1  0.03880000  0.79020000  0.29090000  1
  H  H15  1  0.03880000  0.79090000  0.70980000  1
  H  H16  1  0.06110000  0.27580000  0.12550000  1
  H  H17  1  0.06110000  0.37450000  0.77580000  1
  H  H18  1  0.06110000  0.62550000  0.22420000  1
  H  H19  1  0.06110000  0.72420000  0.87450000  1
  H  H20  1  0.10980000  0.02520000  0.80460000  1
  H  H21  1  0.10980000  0.30460000  0.47480000  1
  H  H22  1  0.10980000  0.69540000  0.52520000  1
  H  H23  1  0.10980000  0.97480000  0.19540000  1
  H  H24  1  0.16330000  0.22750000  0.06190000  1
  H  H25  1  0.16330000  0.43810000  0.72750000  1
  H  H26  1  0.16330000  0.56190000  0.27250000  1
  H  H27  1  0.16330000  0.77250000  0.93810000  1
  H  H28  1  0.16680000  0.06460000  0.16660000  1
  H  H29  1  0.16680000  0.33340000  0.56460000  1
  H  H30  1  0.16680000  0.66666667  0.43540000  1
  H  H31  1  0.16680000  0.93540000  0.83340000  1
  H  H32  1  0.19000000  0.11340000  0.73840000  1
  H  H33  1  0.19000000  0.23840000  0.38660000  1
  H  H34  1  0.19000000  0.76160000  0.61340000  1
  H  H35  1  0.19000000  0.88660000  0.26160000  1
  H  H36  1  0.25300000  0.22460000  0.97250000  1
  H  H37  1  0.25300000  0.47250000  0.27540000  1
  H  H38  1  0.25300000  0.52750000  0.72460000  1
  H  H39  1  0.25300000  0.77540000  0.02750000  1
  H  H40  1  0.26170000  0.14920000  0.18560000  1
  H  H41  1  0.26170000  0.31440000  0.64920000  1
  H  H42  1  0.26170000  0.68560000  0.35080000  1
  H  H43  1  0.26170000  0.85080000  0.81440000  1
  H  H44  1  0.27390000  0.02370000  0.72900000  1
  H  H45  1  0.27390000  0.22900000  0.47630000  1
  H  H46  1  0.27390000  0.77100000  0.52370000  1
  H  H47  1  0.27390000  0.97630000  0.27100000  1
  H  H48  1  0.30200000  0.32810000  0.05840000  1
  H  H49  1  0.30200000  0.44160000  0.82810000  1
  H  H50  1  0.30200000  0.55840000  0.17190000  1
  H  H51  1  0.30200000  0.67190000  0.94160000  1
  H  H52  1  0.37880000  0.04760000  0.22710000  1
  H  H53  1  0.37880000  0.27290000  0.54760000  1
  H  H54  1  0.37880000  0.72710000  0.45240000  1
  H  H55  1  0.37880000  0.95240000  0.77290000  1
  H  H56  1  0.39970000  0.32950000  0.97150000  1
  H  H57  1  0.39970000  0.47150000  0.17050000  1
  H  H58  1  0.39970000  0.52850000  0.82950000  1
  H  H59  1  0.39970000  0.67050000  0.02850000  1
  H  H60  1  0.44840000  0.27800000  0.88930000  1
  H  H61  1  0.44840000  0.38930000  0.22200000  1
  H  H62  1  0.44840000  0.61070000  0.77800000  1
  H  H63  1  0.44840000  0.72200000  0.11070000  1
  H  H64  1  0.45950000  0.19840000  0.73320000  1
  H  H65  1  0.45950000  0.23320000  0.30160000  1
  H  H66  1  0.45950000  0.76680000  0.69840000  1
  H  H67  1  0.45950000  0.80160000  0.26680000  1
  H  H68  1  0.47540000  0.13510000  0.22590000  1
  H  H69  1  0.47540000  0.27410000  0.63510000  1
  H  H70  1  0.47540000  0.72590000  0.36490000  1
  H  H71  1  0.47540000  0.86490000  0.77410000  1
  H  H72  1  0.52460000  0.22590000  0.13510000  1
  H  H73  1  0.52460000  0.36490000  0.72590000  1
  H  H74  1  0.52460000  0.63510000  0.27410000  1
  H  H75  1  0.52460000  0.77410000  0.86490000  1
  H  H76  1  0.54050000  0.26680000  0.80160000  1
  H  H77  1  0.54050000  0.30160000  0.23320000  1
  H  H78  1  0.54050000  0.69840000  0.76680000  1
  H  H79  1  0.54050000  0.73320000  0.19840000  1
  H  H80  1  0.55160000  0.11070000  0.72200000  1
  H  H81  1  0.55160000  0.22200000  0.38930000  1
  H  H82  1  0.55160000  0.77800000  0.61070000  1
  H  H83  1  0.55160000  0.88930000  0.27800000  1
  H  H84  1  0.60030000  0.02850000  0.67050000  1
  H  H85  1  0.60030000  0.17050000  0.47150000  1
  H  H86  1  0.60030000  0.82950000  0.52850000  1
  H  H87  1  0.60030000  0.97150000  0.32950000  1
  H  H88  1  0.62120000  0.22710000  0.04760000  1
  H  H89  1  0.62120000  0.45240000  0.72710000  1
  H  H90  1  0.62120000  0.54760000  0.27290000  1
  H  H91  1  0.62120000  0.77290000  0.95240000  1
  H  H92  1  0.69800000  0.05840000  0.32810000  1
  H  H93  1  0.69800000  0.17190000  0.55840000  1
  H  H94  1  0.69800000  0.82810000  0.44160000  1
  H  H95  1  0.69800000  0.94160000  0.67190000  1
  H  H96  1  0.72610000  0.27100000  0.97630000  1
  H  H97  1  0.72610000  0.47630000  0.22900000  1
  H  H98  1  0.72610000  0.52370000  0.77100000  1
  H  H99  1  0.72610000  0.72900000  0.02370000  1
  H  H100  1  0.73830000  0.18560000  0.14920000  1
  H  H101  1  0.73830000  0.35080000  0.68560000  1
  H  H102  1  0.73830000  0.64920000  0.31440000  1
  H  H103  1  0.73830000  0.81440000  0.85080000  1
  H  H104  1  0.74700000  0.02750000  0.77540000  1
  H  H105  1  0.74700000  0.27540000  0.47250000  1
  H  H106  1  0.74700000  0.72460000  0.52750000  1
  H  H107  1  0.74700000  0.97250000  0.22460000  1
  H  H108  1  0.81000000  0.26160000  0.88660000  1
  H  H109  1  0.81000000  0.38660000  0.23840000  1
  H  H110  1  0.81000000  0.61340000  0.76160000  1
  H  H111  1  0.81000000  0.73840000  0.11340000  1
  H  H112  1  0.83320000  0.16660000  0.06460000  1
  H  H113  1  0.83320000  0.43540000  0.66666667  1
  H  H114  1  0.83320000  0.56460000  0.33340000  1
  H  H115  1  0.83320000  0.83340000  0.93540000  1
  H  H116  1  0.83670000  0.06190000  0.22750000  1
  H  H117  1  0.83670000  0.27250000  0.56190000  1
  H  H118  1  0.83670000  0.72750000  0.43810000  1
  H  H119  1  0.83670000  0.93810000  0.77250000  1
  H  H120  1  0.89020000  0.19540000  0.97480000  1
  H  H121  1  0.89020000  0.47480000  0.30460000  1
  H  H122  1  0.89020000  0.52520000  0.69540000  1
  H  H123  1  0.89020000  0.80460000  0.02520000  1
  H  H124  1  0.93890000  0.12550000  0.27580000  1
  H  H125  1  0.93890000  0.22420000  0.62550000  1
  H  H126  1  0.93890000  0.77580000  0.37450000  1
  H  H127  1  0.93890000  0.87450000  0.72420000  1
  H  H128  1  0.96120000  0.29020000  0.20910000  1
  H  H129  1  0.96120000  0.29090000  0.79020000  1
  H  H130  1  0.96120000  0.70910000  0.20980000  1
  H  H131  1  0.96120000  0.70980000  0.79090000  1
  H  H132  1  0.97930000  0.19380000  0.88620000  1
  H  H133  1  0.97930000  0.38620000  0.30620000  1
  H  H134  1  0.97930000  0.61380000  0.69380000  1
  H  H135  1  0.97930000  0.80620000  0.11380000  1
  C  C136  1  0.00550000  0.12910000  0.25710000  1
  C  C137  1  0.00550000  0.24290000  0.62910000  1
  C  C138  1  0.00550000  0.75710000  0.37090000  1
  C  C139  1  0.00550000  0.87090000  0.74290000  1
  C  C140  1  0.01620000  0.21380000  0.02790000  1
  C  C141  1  0.01620000  0.47210000  0.71380000  1
  C  C142  1  0.01620000  0.52790000  0.28620000  1
  C  C143  1  0.01620000  0.78620000  0.97210000  1
  C  C144  1  0.01670000  0.20130000  0.92180000  1
  C  C145  1  0.01670000  0.42180000  0.29870000  1
  C  C146  1  0.01670000  0.57820000  0.70130000  1
  C  C147  1  0.01670000  0.79870000  0.07820000  1
  C  C148  1  0.03610000  0.02560000  0.79760000  1
  C  C149  1  0.03610000  0.29760000  0.47440000  1
  C  C150  1  0.03610000  0.70240000  0.52560000  1
  C  C151  1  0.03610000  0.97440000  0.20240000  1
  C  C152  1  0.04290000  0.08430000  0.22120000  1
  C  C153  1  0.04290000  0.27880000  0.58430000  1
  C  C154  1  0.04290000  0.72120000  0.41570000  1
  C  C155  1  0.04290000  0.91570000  0.77880000  1
  C  C156  1  0.06540000  0.17890000  0.26520000  1
  C  C157  1  0.06540000  0.23480000  0.67890000  1
  C  C158  1  0.06540000  0.76520000  0.32110000  1
  C  C159  1  0.06540000  0.82110000  0.73480000  1
  C  C160  1  0.12460000  0.21110000  0.92000000  1
  C  C161  1  0.12460000  0.42000000  0.28890000  1
  C  C162  1  0.12460000  0.58000000  0.71110000  1
  C  C163  1  0.12460000  0.78890000  0.08000000  1
  C  C164  1  0.12550000  0.22130000  0.02620000  1
  C  C165  1  0.12550000  0.47380000  0.72130000  1
  C  C166  1  0.12550000  0.52620000  0.27870000  1
  C  C167  1  0.12550000  0.77870000  0.97380000  1
  C  C168  1  0.13970000  0.09340000  0.19310000  1
  C  C169  1  0.13970000  0.30690000  0.59340000  1
  C  C170  1  0.13970000  0.69310000  0.40660000  1
  C  C171  1  0.13970000  0.90660000  0.80690000  1
  C  C172  1  0.17870000  0.21970000  0.97300000  1
  C  C173  1  0.17870000  0.47300000  0.28030000  1
  C  C174  1  0.17870000  0.52700000  0.71970000  1
  C  C175  1  0.17870000  0.78030000  0.02700000  1
  C  C176  1  0.17930000  0.21610000  0.86240000  1
  C  C177  1  0.17930000  0.36240000  0.28390000  1
  C  C178  1  0.17930000  0.63760000  0.71610000  1
  C  C179  1  0.17930000  0.78390000  0.13760000  1
  C  C180  1  0.19520000  0.14430000  0.20410000  1
  C  C181  1  0.19520000  0.29590000  0.64430000  1
  C  C182  1  0.19520000  0.70410000  0.35570000  1
  C  C183  1  0.19520000  0.85570000  0.79590000  1
  C  C184  1  0.26460000  0.11270000  0.73620000  1
  C  C185  1  0.26460000  0.23620000  0.38730000  1
  C  C186  1  0.26460000  0.76380000  0.61270000  1
  C  C187  1  0.26460000  0.88730000  0.26380000  1
  C  C188  1  0.31410000  0.05900000  0.73020000  1
  C  C189  1  0.31410000  0.23020000  0.44100000  1
  C  C190  1  0.31410000  0.76980000  0.55900000  1
  C  C191  1  0.31410000  0.94100000  0.26980000  1
  C  C192  1  0.33710000  0.27190000  0.15980000  1
  C  C193  1  0.33710000  0.34020000  0.77190000  1
  C  C194  1  0.33710000  0.65980000  0.22810000  1
  C  C195  1  0.33710000  0.72810000  0.84020000  1
  C  C196  1  0.36660000  0.30710000  0.05620000  1
  C  C197  1  0.36660000  0.44380000  0.80710000  1
  C  C198  1  0.36660000  0.55620000  0.19290000  1
  C  C199  1  0.36660000  0.69290000  0.94380000  1
  C  C200  1  0.40240000  0.27620000  0.10440000  1
  C  C201  1  0.40240000  0.39560000  0.77620000  1
  C  C202  1  0.40240000  0.60440000  0.22380000  1
  C  C203  1  0.40240000  0.72380000  0.89560000  1
  C  C204  1  0.42150000  0.16230000  0.73300000  1
  C  C205  1  0.42150000  0.23300000  0.33770000  1
  C  C206  1  0.42150000  0.76700000  0.66230000  1
  C  C207  1  0.42150000  0.83770000  0.26700000  1
  C  C208  1  0.42380000  0.05680000  0.72590000  1
  C  C209  1  0.42380000  0.22590000  0.44320000  1
  C  C210  1  0.42380000  0.77410000  0.55680000  1
  C  C211  1  0.42380000  0.94320000  0.27410000  1
  C  C212  1  0.42450000  0.30770000  0.00450000  1
  C  C213  1  0.42450000  0.49550000  0.80770000  1
  C  C214  1  0.42450000  0.50450000  0.19230000  1
  C  C215  1  0.42450000  0.69230000  0.99550000  1
  C  C216  1  0.44440000  0.04960000  0.24710000  1
  C  C217  1  0.44440000  0.25290000  0.54960000  1
  C  C218  1  0.44440000  0.74710000  0.45040000  1
  C  C219  1  0.44440000  0.95040000  0.75290000  1
  C  C220  1  0.47720000  0.11000000  0.72630000  1
  C  C221  1  0.47720000  0.22630000  0.39000000  1
  C  C222  1  0.47720000  0.77370000  0.61000000  1
  C  C223  1  0.47720000  0.89000000  0.27370000  1
  C  C224  1  0.48180000  0.00020000  0.27680000  1
  C  C225  1  0.48180000  0.22320000  0.50020000  1
  C  C226  1  0.48180000  0.77680000  0.49980000  1
  C  C227  1  0.48180000  0.99980000  0.72320000  1
  C  C228  1  0.49860000  0.24640000  0.10160000  1
  C  C229  1  0.49860000  0.39840000  0.74640000  1
  C  C230  1  0.49860000  0.60160000  0.25360000  1
  C  C231  1  0.49860000  0.75360000  0.89840000  1
  C  C232  1  0.50140000  0.10160000  0.24640000  1
  C  C233  1  0.50140000  0.25360000  0.60160000  1
  C  C234  1  0.50140000  0.74640000  0.39840000  1
  C  C235  1  0.50140000  0.89840000  0.75360000  1
  C  C236  1  0.51820000  0.27680000  0.00020000  1
  C  C237  1  0.51820000  0.49980000  0.77680000  1
  C  C238  1  0.51820000  0.50020000  0.22320000  1
  C  C239  1  0.51820000  0.72320000  0.99980000  1
  C  C240  1  0.52280000  0.27370000  0.89000000  1
  C  C241  1  0.52280000  0.39000000  0.22630000  1
  C  C242  1  0.52280000  0.61000000  0.77370000  1
  C  C243  1  0.52280000  0.72630000  0.11000000  1
  C  C244  1  0.55560000  0.24710000  0.04960000  1
  C  C245  1  0.55560000  0.45040000  0.74710000  1
  C  C246  1  0.55560000  0.54960000  0.25290000  1
  C  C247  1  0.55560000  0.75290000  0.95040000  1
  C  C248  1  0.57550000  0.00450000  0.30770000  1
  C  C249  1  0.57550000  0.19230000  0.50450000  1
  C  C250  1  0.57550000  0.80770000  0.49550000  1
  C  C251  1  0.57550000  0.99550000  0.69230000  1
  C  C252  1  0.57620000  0.27410000  0.94320000  1
  C  C253  1  0.57620000  0.44320000  0.22590000  1
  C  C254  1  0.57620000  0.55680000  0.77410000  1
  C  C255  1  0.57620000  0.72590000  0.05680000  1
  C  C256  1  0.57850000  0.26700000  0.83770000  1
  C  C257  1  0.57850000  0.33770000  0.23300000  1
  C  C258  1  0.57850000  0.66230000  0.76700000  1
  C  C259  1  0.57850000  0.73300000  0.16230000  1
  C  C260  1  0.59760000  0.10440000  0.27620000  1
  C  C261  1  0.59760000  0.22380000  0.60440000  1
  C  C262  1  0.59760000  0.77620000  0.39560000  1
  C  C263  1  0.59760000  0.89560000  0.72380000  1
  C  C264  1  0.63340000  0.05620000  0.30710000  1
  C  C265  1  0.63340000  0.19290000  0.55620000  1
  C  C266  1  0.63340000  0.80710000  0.44380000  1
  C  C267  1  0.63340000  0.94380000  0.69290000  1
  C  C268  1  0.66290000  0.15980000  0.27190000  1
  C  C269  1  0.66290000  0.22810000  0.65980000  1
  C  C270  1  0.66290000  0.77190000  0.34020000  1
  C  C271  1  0.66290000  0.84020000  0.72810000  1
  C  C272  1  0.68590000  0.26980000  0.94100000  1
  C  C273  1  0.68590000  0.44100000  0.23020000  1
  C  C274  1  0.68590000  0.55900000  0.76980000  1
  C  C275  1  0.68590000  0.73020000  0.05900000  1
  C  C276  1  0.73540000  0.26380000  0.88730000  1
  C  C277  1  0.73540000  0.38730000  0.23620000  1
  C  C278  1  0.73540000  0.61270000  0.76380000  1
  C  C279  1  0.73540000  0.73620000  0.11270000  1
  C  C280  1  0.80480000  0.20410000  0.14430000  1
  C  C281  1  0.80480000  0.35570000  0.70410000  1
  C  C282  1  0.80480000  0.64430000  0.29590000  1
  C  C283  1  0.80480000  0.79590000  0.85570000  1
  C  C284  1  0.82070000  0.13760000  0.78390000  1
  C  C285  1  0.82070000  0.28390000  0.36240000  1
  C  C286  1  0.82070000  0.71610000  0.63760000  1
  C  C287  1  0.82070000  0.86240000  0.21610000  1
  C  C288  1  0.82130000  0.02700000  0.78030000  1
  C  C289  1  0.82130000  0.28030000  0.47300000  1
  C  C290  1  0.82130000  0.71970000  0.52700000  1
  C  C291  1  0.82130000  0.97300000  0.21970000  1
  C  C292  1  0.86030000  0.19310000  0.09340000  1
  C  C293  1  0.86030000  0.40660000  0.69310000  1
  C  C294  1  0.86030000  0.59340000  0.30690000  1
  C  C295  1  0.86030000  0.80690000  0.90660000  1
  C  C296  1  0.87450000  0.02620000  0.22130000  1
  C  C297  1  0.87450000  0.27870000  0.52620000  1
  C  C298  1  0.87450000  0.72130000  0.47380000  1
  C  C299  1  0.87450000  0.97380000  0.77870000  1
  C  C300  1  0.87540000  0.08000000  0.78890000  1
  C  C301  1  0.87540000  0.28890000  0.42000000  1
  C  C302  1  0.87540000  0.71110000  0.58000000  1
  C  C303  1  0.87540000  0.92000000  0.21110000  1
  C  C304  1  0.93460000  0.26520000  0.17890000  1
  C  C305  1  0.93460000  0.32110000  0.76520000  1
  C  C306  1  0.93460000  0.67890000  0.23480000  1
  C  C307  1  0.93460000  0.73480000  0.82110000  1
  C  C308  1  0.95710000  0.22120000  0.08430000  1
  C  C309  1  0.95710000  0.41570000  0.72120000  1
  C  C310  1  0.95710000  0.58430000  0.27880000  1
  C  C311  1  0.95710000  0.77880000  0.91570000  1
  C  C312  1  0.96390000  0.20240000  0.97440000  1
  C  C313  1  0.96390000  0.47440000  0.29760000  1
  C  C314  1  0.96390000  0.52560000  0.70240000  1
  C  C315  1  0.96390000  0.79760000  0.02560000  1
  C  C316  1  0.98330000  0.07820000  0.79870000  1
  C  C317  1  0.98330000  0.29870000  0.42180000  1
  C  C318  1  0.98330000  0.70130000  0.57820000  1
  C  C319  1  0.98330000  0.92180000  0.20130000  1
  C  C320  1  0.98380000  0.02790000  0.21380000  1
  C  C321  1  0.98380000  0.28620000  0.52790000  1
  C  C322  1  0.98380000  0.71380000  0.47210000  1
  C  C323  1  0.98380000  0.97210000  0.78620000  1
  C  C324  1  0.99450000  0.25710000  0.12910000  1
  C  C325  1  0.99450000  0.37090000  0.75710000  1
  C  C326  1  0.99450000  0.62910000  0.24290000  1
  C  C327  1  0.99450000  0.74290000  0.87090000  1
  N  N328  1  0.16040000  0.18707000  0.23956000  1
  N  N329  1  0.16040000  0.26044000  0.68707000  1
  N  N330  1  0.16040000  0.73956000  0.31293000  1
  N  N331  1  0.16040000  0.81293000  0.76044000  1
  N  N332  1  0.31680000  0.16428000  0.73915000  1
  N  N333  1  0.31680000  0.23915000  0.33572000  1
  N  N334  1  0.31680000  0.76085000  0.66428000  1
  N  N335  1  0.31680000  0.83572000  0.26085000  1
  N  N336  1  0.68320000  0.26085000  0.83572000  1
  N  N337  1  0.68320000  0.33572000  0.23915000  1
  N  N338  1  0.68320000  0.66428000  0.76085000  1
  N  N339  1  0.68320000  0.73915000  0.16428000  1
  N  N340  1  0.83960000  0.23956000  0.18707000  1
  N  N341  1  0.83960000  0.31293000  0.73956000  1
  N  N342  1  0.83960000  0.68707000  0.26044000  1
  N  N343  1  0.83960000  0.76044000  0.81293000  1
  O  O344  1  0.12600000  0.21679000  0.81553000  1
  O  O345  1  0.12600000  0.31553000  0.28321000  1
  O  O346  1  0.12600000  0.68447000  0.71679000  1
  O  O347  1  0.12600000  0.78321000  0.18447000  1
  O  O348  1  0.24540000  0.29198000  0.16078000  1
  O  O349  1  0.24540000  0.33922000  0.79198000  1
  O  O350  1  0.24540000  0.66078000  0.20802000  1
  O  O351  1  0.24540000  0.70802000  0.83922000  1
  O  O352  1  0.27890000  0.22263000  0.86030000  1
  O  O353  1  0.27890000  0.36030000  0.27737000  1
  O  O354  1  0.27890000  0.63970000  0.72263000  1
  O  O355  1  0.27890000  0.77737000  0.13970000  1
  O  O356  1  0.37710000  0.24737000  0.20525000  1
  O  O357  1  0.37710000  0.29475000  0.74737000  1
  O  O358  1  0.37710000  0.70525000  0.25263000  1
  O  O359  1  0.37710000  0.75263000  0.79475000  1
  O  O360  1  0.62290000  0.20525000  0.24737000  1
  O  O361  1  0.62290000  0.25263000  0.70525000  1
  O  O362  1  0.62290000  0.74737000  0.29475000  1
  O  O363  1  0.62290000  0.79475000  0.75263000  1
  O  O364  1  0.72110000  0.13970000  0.77737000  1
  O  O365  1  0.72110000  0.27737000  0.36030000  1
  O  O366  1  0.72110000  0.72263000  0.63970000  1
  O  O367  1  0.72110000  0.86030000  0.22263000  1
  O  O368  1  0.75460000  0.16078000  0.29198000  1
  O  O369  1  0.75460000  0.20802000  0.66078000  1
  O  O370  1  0.75460000  0.79198000  0.33922000  1
  O  O371  1  0.75460000  0.83922000  0.70802000  1
  O  O372  1  0.87400000  0.18447000  0.78321000  1
  O  O373  1  0.87400000  0.28321000  0.31553000  1
  O  O374  1  0.87400000  0.71679000  0.68447000  1
  O  O375  1  0.87400000  0.81553000  0.21679000  1
