# generated using pymatgen
data_Ni3H44C72N6O13
_symmetry_space_group_name_H-M   'P 1'
_cell_length_a   18.52875722
_cell_length_b   18.52875722
_cell_length_c   18.52875722
_cell_angle_alpha   103.52051353
_cell_angle_beta   103.52051353
_cell_angle_gamma   103.52051353
_symmetry_Int_Tables_number   1
_chemical_formula_structural   Ni3H44C72N6O13
_chemical_formula_sum   'Ni6 H88 C144 N12 O26'
_cell_volume   5726.71648624
_cell_formula_units_Z   2
loop_
 _symmetry_equiv_pos_site_id
 _symmetry_equiv_pos_as_xyz
  1  'x, y, z'
loop_
 _atom_site_type_symbol
 _atom_site_label
 _atom_site_symmetry_multiplicity
 _atom_site_fract_x
 _atom_site_fract_y
 _atom_site_fract_z
 _atom_site_occupancy
  C  C0  1  0.75000000  0.98675000  0.51325000  1
  C  C1  1  0.75000000  0.03815000  0.46185000  1
  C  C2  1  0.25000000  0.96185000  0.53815000  1
  C  C3  1  0.25000000  0.01325000  0.48675000  1
  C  C4  1  0.06990000  0.44540000  0.69080000  1
  C  C5  1  0.56990000  0.19080000  0.94540000  1
  C  C6  1  0.18210000  0.27500000  0.07800000  1
  C  C7  1  0.68210000  0.57800000  0.77500000  1
  C  C8  1  0.10210000  0.38130000  0.80780000  1
  C  C9  1  0.60210000  0.30780000  0.88130000  1
  C  C10  1  0.15840000  0.29520000  0.00380000  1
  C  C11  1  0.65840000  0.50380000  0.79520000  1
  C  C12  1  0.11880000  0.34650000  0.87240000  1
  C  C13  1  0.61880000  0.37240000  0.84650000  1
  C  C14  1  0.42600000  0.57710000  0.15440000  1
  C  C15  1  0.92600000  0.65440000  0.07710000  1
  C  C16  1  0.40590000  0.51210000  0.17770000  1
  C  C17  1  0.90590000  0.67770000  0.01210000  1
  C  C18  1  0.44540000  0.69080000  0.06990000  1
  C  C19  1  0.94540000  0.56990000  0.19080000  1
  C  C20  1  0.80780000  0.10210000  0.38130000  1
  C  C21  1  0.30780000  0.88130000  0.60210000  1
  C  C22  1  0.80920000  0.05460000  0.43010000  1
  C  C23  1  0.30920000  0.93010000  0.55460000  1
  C  C24  1  0.46185000  0.75000000  0.03815000  1
  C  C25  1  0.96185000  0.53815000  0.25000000  1
  C  C26  1  0.79860000  0.89500000  0.56650000  1
  C  C27  1  0.29860000  0.06650000  0.39500000  1
  C  C28  1  0.80010000  0.94130000  0.51810000  1
  C  C29  1  0.30010000  0.01810000  0.44130000  1
  C  C30  1  0.11870000  0.39790000  0.69220000  1
  C  C31  1  0.61870000  0.19220000  0.89790000  1
  C  C32  1  0.19800000  0.28870000  0.94940000  1
  C  C33  1  0.69800000  0.44940000  0.78870000  1
  C  C34  1  0.17890000  0.31480000  0.88450000  1
  C  C35  1  0.67890000  0.38450000  0.81480000  1
  C  C36  1  0.88450000  0.17890000  0.31480000  1
  C  C37  1  0.38450000  0.81480000  0.67890000  1
  C  C38  1  0.87240000  0.11880000  0.34650000  1
  C  C39  1  0.37240000  0.84650000  0.61880000  1
  C  C40  1  0.51325000  0.75000000  0.98675000  1
  C  C41  1  0.01325000  0.48675000  0.25000000  1
  C  C42  1  0.77500000  0.68210000  0.57800000  1
  C  C43  1  0.27500000  0.07800000  0.18210000  1
  C  C44  1  0.51810000  0.80010000  0.94130000  1
  C  C45  1  0.01810000  0.44130000  0.30010000  1
  C  C46  1  0.15350000  0.38120000  0.62760000  1
  C  C47  1  0.65350000  0.12760000  0.88120000  1
  C  C48  1  0.42200000  0.22500000  0.31790000  1
  C  C49  1  0.92200000  0.81790000  0.72500000  1
  C  C50  1  0.15440000  0.42600000  0.57710000  1
  C  C51  1  0.65440000  0.07710000  0.92600000  1
  C  C52  1  0.94940000  0.19800000  0.28870000  1
  C  C53  1  0.44940000  0.78870000  0.69800000  1
  C  C54  1  0.39500000  0.29860000  0.06650000  1
  C  C55  1  0.89500000  0.56650000  0.79860000  1
  C  C56  1  0.92290000  0.07400000  0.34560000  1
  C  C57  1  0.42290000  0.84560000  0.57400000  1
  C  C58  1  0.79520000  0.65840000  0.50380000  1
  C  C59  1  0.29520000  0.00380000  0.15840000  1
  C  C60  1  0.78870000  0.69800000  0.44940000  1
  C  C61  1  0.28870000  0.94940000  0.19800000  1
  C  C62  1  0.18520000  0.32110000  0.61550000  1
  C  C63  1  0.68520000  0.11550000  0.82110000  1
  C  C64  1  0.55870000  0.69990000  0.98190000  1
  C  C65  1  0.05870000  0.48190000  0.19990000  1
  C  C66  1  0.17770000  0.40590000  0.51210000  1
  C  C67  1  0.67770000  0.01210000  0.90590000  1
  C  C68  1  0.56650000  0.79860000  0.89500000  1
  C  C69  1  0.06650000  0.39500000  0.29860000  1
  C  C70  1  0.01210000  0.90590000  0.67770000  1
  C  C71  1  0.51210000  0.17770000  0.40590000  1
  C  C72  1  0.49620000  0.20480000  0.34160000  1
  C  C73  1  0.99620000  0.84160000  0.70480000  1
  C  C74  1  0.00380000  0.15840000  0.29520000  1
  C  C75  1  0.50380000  0.79520000  0.65840000  1
  C  C76  1  0.98790000  0.09410000  0.32230000  1
  C  C77  1  0.48790000  0.82230000  0.59410000  1
  C  C78  1  0.93350000  0.60500000  0.70140000  1
  C  C79  1  0.43350000  0.20140000  0.10500000  1
  C  C80  1  0.32230000  0.98790000  0.09410000  1
  C  C81  1  0.82230000  0.59410000  0.48790000  1
  C  C82  1  0.44130000  0.30010000  0.01810000  1
  C  C83  1  0.94130000  0.51810000  0.80010000  1
  C  C84  1  0.81480000  0.67890000  0.38450000  1
  C  C85  1  0.31480000  0.88450000  0.17890000  1
  C  C86  1  0.21130000  0.30200000  0.55060000  1
  C  C87  1  0.71130000  0.05060000  0.80200000  1
  C  C88  1  0.20480000  0.34160000  0.49620000  1
  C  C89  1  0.70480000  0.99620000  0.84160000  1
  C  C90  1  0.07710000  0.92600000  0.65440000  1
  C  C91  1  0.57710000  0.15440000  0.42600000  1
  C  C92  1  0.60500000  0.70140000  0.93350000  1
  C  C93  1  0.10500000  0.43350000  0.20140000  1
  C  C94  1  0.55060000  0.21130000  0.30200000  1
  C  C95  1  0.05060000  0.80200000  0.71130000  1
  C  C96  1  0.34560000  0.92290000  0.07400000  1
  C  C97  1  0.84560000  0.57400000  0.42290000  1
  C  C98  1  0.07800000  0.18210000  0.27500000  1
  C  C99  1  0.57800000  0.77500000  0.68210000  1
  C  C100  1  0.84650000  0.61880000  0.37240000  1
  C  C101  1  0.34650000  0.87240000  0.11880000  1
  C  C102  1  0.98190000  0.55870000  0.69990000  1
  C  C103  1  0.48190000  0.19990000  0.05870000  1
  C  C104  1  0.22500000  0.31790000  0.42200000  1
  C  C105  1  0.72500000  0.92200000  0.81790000  1
  C  C106  1  0.98675000  0.51325000  0.75000000  1
  C  C107  1  0.48675000  0.25000000  0.01325000  1
  C  C108  1  0.62760000  0.15350000  0.38120000  1
  C  C109  1  0.12760000  0.88120000  0.65350000  1
  C  C110  1  0.61550000  0.18520000  0.32110000  1
  C  C111  1  0.11550000  0.82110000  0.68520000  1
  C  C112  1  0.82110000  0.68520000  0.11550000  1
  C  C113  1  0.32110000  0.61550000  0.18520000  1
  C  C114  1  0.80200000  0.71130000  0.05060000  1
  C  C115  1  0.30200000  0.55060000  0.21130000  1
  C  C116  1  0.88130000  0.60210000  0.30780000  1
  C  C117  1  0.38130000  0.80780000  0.10210000  1
  C  C118  1  0.19990000  0.05870000  0.48190000  1
  C  C119  1  0.69990000  0.98190000  0.55870000  1
  C  C120  1  0.20140000  0.10500000  0.43350000  1
  C  C121  1  0.70140000  0.93350000  0.60500000  1
  C  C122  1  0.03815000  0.46185000  0.75000000  1
  C  C123  1  0.53815000  0.25000000  0.96185000  1
  C  C124  1  0.19080000  0.94540000  0.56990000  1
  C  C125  1  0.69080000  0.06990000  0.44540000  1
  C  C126  1  0.69220000  0.11870000  0.39790000  1
  C  C127  1  0.19220000  0.89790000  0.61870000  1
  C  C128  1  0.55460000  0.30920000  0.93010000  1
  C  C129  1  0.05460000  0.43010000  0.80920000  1
  C  C130  1  0.59410000  0.48790000  0.82230000  1
  C  C131  1  0.09410000  0.32230000  0.98790000  1
  C  C132  1  0.57400000  0.42290000  0.84560000  1
  C  C133  1  0.07400000  0.34560000  0.92290000  1
  C  C134  1  0.88120000  0.65350000  0.12760000  1
  C  C135  1  0.38120000  0.62760000  0.15350000  1
  C  C136  1  0.84160000  0.70480000  0.99620000  1
  C  C137  1  0.34160000  0.49620000  0.20480000  1
  C  C138  1  0.89790000  0.61870000  0.19220000  1
  C  C139  1  0.39790000  0.69220000  0.11870000  1
  C  C140  1  0.81790000  0.72500000  0.92200000  1
  C  C141  1  0.31790000  0.42200000  0.22500000  1
  C  C142  1  0.43010000  0.80920000  0.05460000  1
  C  C143  1  0.93010000  0.55460000  0.30920000  1
  H  H144  1  0.20733333  0.20733333  0.20733333  1
  H  H145  1  0.29266667  0.29266667  0.29266667  1
  H  H146  1  0.70733333  0.70733333  0.70733333  1
  H  H147  1  0.79266667  0.79266667  0.79266667  1
  H  H148  1  0.05870000  0.46610000  0.64860000  1
  H  H149  1  0.55870000  0.14860000  0.96610000  1
  H  H150  1  0.84840000  0.20780000  0.31060000  1
  H  H151  1  0.34840000  0.81060000  0.70780000  1
  H  H152  1  0.48810000  0.83540000  0.94230000  1
  H  H153  1  0.98810000  0.44230000  0.33540000  1
  H  H154  1  0.47150000  0.58780000  0.13840000  1
  H  H155  1  0.97150000  0.63840000  0.08780000  1
  H  H156  1  0.13840000  0.47150000  0.58780000  1
  H  H157  1  0.63840000  0.08780000  0.97150000  1
  H  H158  1  0.43650000  0.47750000  0.17540000  1
  H  H159  1  0.93650000  0.67540000  0.97750000  1
  H  H160  1  0.46610000  0.64860000  0.05870000  1
  H  H161  1  0.96610000  0.55870000  0.14860000  1
  H  H162  1  0.85140000  0.03390000  0.44130000  1
  H  H163  1  0.35140000  0.94130000  0.53390000  1
  H  H164  1  0.83370000  0.86480000  0.56940000  1
  H  H165  1  0.33370000  0.06940000  0.36480000  1
  H  H166  1  0.83540000  0.94230000  0.48810000  1
  H  H167  1  0.33540000  0.98810000  0.44230000  1
  H  H168  1  0.23910000  0.26610000  0.95610000  1
  H  H169  1  0.73910000  0.45610000  0.76610000  1
  H  H170  1  0.20780000  0.31060000  0.84840000  1
  H  H171  1  0.70780000  0.34840000  0.81060000  1
  H  H172  1  0.36480000  0.33370000  0.06940000  1
  H  H173  1  0.86480000  0.56940000  0.83370000  1
  H  H174  1  0.76610000  0.73910000  0.45610000  1
  H  H175  1  0.26610000  0.95610000  0.23910000  1
  H  H176  1  0.97750000  0.93650000  0.67540000  1
  H  H177  1  0.47750000  0.17540000  0.43650000  1
  H  H178  1  0.95610000  0.23910000  0.26610000  1
  H  H179  1  0.45610000  0.76610000  0.73910000  1
  H  H180  1  0.91220000  0.02850000  0.36160000  1
  H  H181  1  0.41220000  0.86160000  0.52850000  1
  H  H182  1  0.18940000  0.29220000  0.65160000  1
  H  H183  1  0.68940000  0.15160000  0.79220000  1
  H  H184  1  0.17540000  0.43650000  0.47750000  1
  H  H185  1  0.67540000  0.97750000  0.93650000  1
  H  H186  1  0.55770000  0.66460000  0.01190000  1
  H  H187  1  0.05770000  0.51190000  0.16460000  1
  H  H188  1  0.56940000  0.83370000  0.86480000  1
  H  H189  1  0.06940000  0.36480000  0.33370000  1
  H  H190  1  0.93060000  0.63520000  0.66630000  1
  H  H191  1  0.43060000  0.16630000  0.13520000  1
  H  H192  1  0.44230000  0.33540000  0.98810000  1
  H  H193  1  0.94230000  0.48810000  0.83540000  1
  H  H194  1  0.32460000  0.02250000  0.06350000  1
  H  H195  1  0.82460000  0.56350000  0.52250000  1
  H  H196  1  0.81060000  0.70780000  0.34840000  1
  H  H197  1  0.31060000  0.84840000  0.20780000  1
  H  H198  1  0.08780000  0.97150000  0.63840000  1
  H  H199  1  0.58780000  0.13840000  0.47150000  1
  H  H200  1  0.54390000  0.23390000  0.26090000  1
  H  H201  1  0.04390000  0.76090000  0.73390000  1
  H  H202  1  0.02250000  0.06350000  0.32460000  1
  H  H203  1  0.52250000  0.82460000  0.56350000  1
  H  H204  1  0.23390000  0.26090000  0.54390000  1
  H  H205  1  0.73390000  0.04390000  0.76090000  1
  H  H206  1  0.63520000  0.66630000  0.93060000  1
  H  H207  1  0.13520000  0.43060000  0.16630000  1
  H  H208  1  0.79220000  0.68940000  0.15160000  1
  H  H209  1  0.29220000  0.65160000  0.18940000  1
  H  H210  1  0.76090000  0.73390000  0.04390000  1
  H  H211  1  0.26090000  0.54390000  0.23390000  1
  H  H212  1  0.16460000  0.05770000  0.51190000  1
  H  H213  1  0.66460000  0.01190000  0.55770000  1
  H  H214  1  0.16630000  0.13520000  0.43060000  1
  H  H215  1  0.66630000  0.93060000  0.63520000  1
  H  H216  1  0.14860000  0.96610000  0.55870000  1
  H  H217  1  0.64860000  0.05870000  0.46610000  1
  H  H218  1  0.53390000  0.35140000  0.94130000  1
  H  H219  1  0.03390000  0.44130000  0.85140000  1
  H  H220  1  0.56350000  0.52250000  0.82460000  1
  H  H221  1  0.06350000  0.32460000  0.02250000  1
  H  H222  1  0.36160000  0.91220000  0.02850000  1
  H  H223  1  0.86160000  0.52850000  0.41220000  1
  H  H224  1  0.52850000  0.41220000  0.86160000  1
  H  H225  1  0.02850000  0.36160000  0.91220000  1
  H  H226  1  0.01190000  0.55770000  0.66460000  1
  H  H227  1  0.51190000  0.16460000  0.05770000  1
  H  H228  1  0.65160000  0.18940000  0.29220000  1
  H  H229  1  0.15160000  0.79220000  0.68940000  1
  H  H230  1  0.44130000  0.85140000  0.03390000  1
  H  H231  1  0.94130000  0.53390000  0.35140000  1
  N  N232  1  0.75000000  0.89045000  0.60955000  1
  N  N233  1  0.75000000  0.13445000  0.36555000  1
  N  N234  1  0.25000000  0.86555000  0.63445000  1
  N  N235  1  0.25000000  0.10955000  0.39045000  1
  N  N236  1  0.13445000  0.36555000  0.75000000  1
  N  N237  1  0.63445000  0.25000000  0.86555000  1
  N  N238  1  0.89045000  0.60955000  0.75000000  1
  N  N239  1  0.39045000  0.25000000  0.10955000  1
  N  N240  1  0.60955000  0.75000000  0.89045000  1
  N  N241  1  0.10955000  0.39045000  0.25000000  1
  N  N242  1  0.86555000  0.63445000  0.25000000  1
  N  N243  1  0.36555000  0.75000000  0.13445000  1
  Ni  Ni244  1  0.75000000  0.81884000  0.68116000  1
  Ni  Ni245  1  0.25000000  0.18116000  0.31884000  1
  Ni  Ni246  1  0.81884000  0.68116000  0.75000000  1
  Ni  Ni247  1  0.31884000  0.25000000  0.18116000  1
  Ni  Ni248  1  0.68116000  0.75000000  0.81884000  1
  Ni  Ni249  1  0.18116000  0.31884000  0.25000000  1
  O  O250  1  0.25000000  0.25000000  0.25000000  1
  O  O251  1  0.75000000  0.75000000  0.75000000  1
  O  O252  1  0.34737000  0.36993000  0.20200000  1
  O  O253  1  0.84737000  0.70200000  0.86993000  1
  O  O254  1  0.23097000  0.23756000  0.08307000  1
  O  O255  1  0.73097000  0.58307000  0.73756000  1
  O  O256  1  0.73756000  0.73097000  0.58307000  1
  O  O257  1  0.23756000  0.08307000  0.23097000  1
  O  O258  1  0.86993000  0.84737000  0.70200000  1
  O  O259  1  0.36993000  0.20200000  0.34737000  1
  O  O260  1  0.41693000  0.26244000  0.26903000  1
  O  O261  1  0.91693000  0.76903000  0.76244000  1
  O  O262  1  0.29800000  0.13007000  0.15263000  1
  O  O263  1  0.79800000  0.65263000  0.63007000  1
  O  O264  1  0.20200000  0.34737000  0.36993000  1
  O  O265  1  0.70200000  0.86993000  0.84737000  1
  O  O266  1  0.08307000  0.23097000  0.23756000  1
  O  O267  1  0.58307000  0.73756000  0.73097000  1
  O  O268  1  0.13007000  0.15263000  0.29800000  1
  O  O269  1  0.63007000  0.79800000  0.65263000  1
  O  O270  1  0.26244000  0.26903000  0.41693000  1
  O  O271  1  0.76244000  0.91693000  0.76903000  1
  O  O272  1  0.76903000  0.76244000  0.91693000  1
  O  O273  1  0.26903000  0.41693000  0.26244000  1
  O  O274  1  0.65263000  0.63007000  0.79800000  1
  O  O275  1  0.15263000  0.29800000  0.13007000  1
