# generated using pymatgen
data_Co3H27C44NO16
_symmetry_space_group_name_H-M   'P 1'
_cell_length_a   15.89830000
_cell_length_b   16.34180000
_cell_length_c   26.42200000
_cell_angle_alpha   90.00000000
_cell_angle_beta   90.00000000
_cell_angle_gamma   116.88100000
_symmetry_Int_Tables_number   1
_chemical_formula_structural   Co3H27C44NO16
_chemical_formula_sum   'Co12 H108 C176 N4 O64'
_cell_volume   6122.87743924
_cell_formula_units_Z   4
loop_
 _symmetry_equiv_pos_site_id
 _symmetry_equiv_pos_as_xyz
  1  'x, y, z'
loop_
 _atom_site_type_symbol
 _atom_site_label
 _atom_site_symmetry_multiplicity
 _atom_site_fract_x
 _atom_site_fract_y
 _atom_site_fract_z
 _atom_site_occupancy
  Co  Co0  1  0.76981000  0.47780000  0.49653000  1
  Co  Co1  1  0.76981000  0.97780000  0.00347000  1
  Co  Co2  1  0.60895000  0.55918000  0.47631000  1
  Co  Co3  1  0.60895000  0.05918000  0.02369000  1
  Co  Co4  1  0.55314000  0.32009000  0.49159000  1
  Co  Co5  1  0.55314000  0.82009000  0.00841000  1
  Co  Co6  1  0.44686000  0.17991000  0.99159000  1
  Co  Co7  1  0.44686000  0.67991000  0.50841000  1
  Co  Co8  1  0.39105000  0.94082000  0.97631000  1
  Co  Co9  1  0.39105000  0.44082000  0.52369000  1
  Co  Co10  1  0.23019000  0.02220000  0.99653000  1
  Co  Co11  1  0.23019000  0.52220000  0.50347000  1
  H  H12  1  0.99640000  0.34070000  0.84340000  1
  H  H13  1  0.99640000  0.84070000  0.65660000  1
  H  H14  1  0.95310000  0.47470000  0.96110000  1
  H  H15  1  0.95310000  0.97470000  0.53890000  1
  H  H16  1  0.94400000  0.02500000  0.93300000  1
  H  H17  1  0.94400000  0.52500000  0.56700000  1
  H  H18  1  0.92100000  0.47900000  0.42590000  1
  H  H19  1  0.92100000  0.97900000  0.07410000  1
  H  H20  1  0.91830000  0.56360000  0.25780000  1
  H  H21  1  0.91830000  0.06360000  0.24220000  1
  H  H22  1  0.90120000  0.20060000  0.88160000  1
  H  H23  1  0.90120000  0.70060000  0.61840000  1
  H  H24  1  0.89950000  0.26330000  0.33240000  1
  H  H25  1  0.89950000  0.76330000  0.16760000  1
  H  H26  1  0.88380000  0.54540000  0.34450000  1
  H  H27  1  0.88380000  0.04540000  0.15550000  1
  H  H28  1  0.88080000  0.78920000  0.80840000  1
  H  H29  1  0.88080000  0.28920000  0.69160000  1
  H  H30  1  0.87650000  0.82460000  0.36640000  1
  H  H31  1  0.87650000  0.32460000  0.13360000  1
  H  H32  1  0.85330000  0.03480000  0.43530000  1
  H  H33  1  0.85330000  0.53480000  0.06470000  1
  H  H34  1  0.85170000  0.85790000  0.87810000  1
  H  H35  1  0.85170000  0.35790000  0.62190000  1
  H  H36  1  0.84860000  0.33270000  0.99670000  1
  H  H37  1  0.84860000  0.83270000  0.50330000  1
  H  H38  1  0.84320000  0.34140000  0.38450000  1
  H  H39  1  0.84320000  0.84140000  0.11550000  1
  H  H40  1  0.74680000  0.04990000  0.81750000  1
  H  H41  1  0.74680000  0.54990000  0.68250000  1
  H  H42  1  0.73020000  0.72180000  0.40050000  1
  H  H43  1  0.73020000  0.22180000  0.09950000  1
  H  H44  1  0.70620000  0.93070000  0.46760000  1
  H  H45  1  0.70620000  0.43070000  0.03240000  1
  H  H46  1  0.69860000  0.12030000  0.26420000  1
  H  H47  1  0.69860000  0.62030000  0.23580000  1
  H  H48  1  0.67100000  0.02470000  0.36380000  1
  H  H49  1  0.67100000  0.52470000  0.13620000  1
  H  H50  1  0.66270000  0.59630000  0.32150000  1
  H  H51  1  0.66270000  0.09630000  0.17850000  1
  H  H52  1  0.66240000  0.23340000  0.76900000  1
  H  H53  1  0.66240000  0.73340000  0.73100000  1
  H  H54  1  0.65690000  0.02650000  0.89010000  1
  H  H55  1  0.65690000  0.52650000  0.60990000  1
  H  H56  1  0.61300000  0.94900000  0.96900000  1
  H  H57  1  0.61300000  0.44900000  0.53100000  1
  H  H58  1  0.61260000  0.10350000  0.41480000  1
  H  H59  1  0.61260000  0.60350000  0.08520000  1
  H  H60  1  0.60880000  0.59990000  0.80500000  1
  H  H61  1  0.60880000  0.09990000  0.69500000  1
  H  H62  1  0.57710000  0.21320000  0.84190000  1
  H  H63  1  0.57710000  0.71320000  0.65810000  1
  H  H64  1  0.57620000  0.67150000  0.87640000  1
  H  H65  1  0.57620000  0.17150000  0.62360000  1
  H  H66  1  0.42380000  0.82850000  0.37640000  1
  H  H67  1  0.42380000  0.32850000  0.12360000  1
  H  H68  1  0.42290000  0.28680000  0.34190000  1
  H  H69  1  0.42290000  0.78680000  0.15810000  1
  H  H70  1  0.39120000  0.90010000  0.30500000  1
  H  H71  1  0.39120000  0.40010000  0.19500000  1
  H  H72  1  0.38740000  0.39650000  0.91480000  1
  H  H73  1  0.38740000  0.89650000  0.58520000  1
  H  H74  1  0.38700000  0.55100000  0.46900000  1
  H  H75  1  0.38700000  0.05100000  0.03100000  1
  H  H76  1  0.34310000  0.47350000  0.39010000  1
  H  H77  1  0.34310000  0.97350000  0.10990000  1
  H  H78  1  0.33760000  0.26660000  0.26900000  1
  H  H79  1  0.33760000  0.76660000  0.23100000  1
  H  H80  1  0.33730000  0.90370000  0.82150000  1
  H  H81  1  0.33730000  0.40370000  0.67850000  1
  H  H82  1  0.32900000  0.47530000  0.86380000  1
  H  H83  1  0.32900000  0.97530000  0.63620000  1
  H  H84  1  0.30140000  0.37970000  0.76420000  1
  H  H85  1  0.30140000  0.87970000  0.73580000  1
  H  H86  1  0.29380000  0.56930000  0.96760000  1
  H  H87  1  0.29380000  0.06930000  0.53240000  1
  H  H88  1  0.26980000  0.77820000  0.90050000  1
  H  H89  1  0.26980000  0.27820000  0.59950000  1
  H  H90  1  0.25320000  0.45010000  0.31750000  1
  H  H91  1  0.25320000  0.95010000  0.18250000  1
  H  H92  1  0.15680000  0.15860000  0.88450000  1
  H  H93  1  0.15680000  0.65860000  0.61550000  1
  H  H94  1  0.15140000  0.16730000  0.49670000  1
  H  H95  1  0.15140000  0.66730000  0.00330000  1
  H  H96  1  0.14830000  0.64210000  0.37810000  1
  H  H97  1  0.14830000  0.14210000  0.12190000  1
  H  H98  1  0.14670000  0.46520000  0.93530000  1
  H  H99  1  0.14670000  0.96520000  0.56470000  1
  H  H100  1  0.12350000  0.67540000  0.86640000  1
  H  H101  1  0.12350000  0.17540000  0.63360000  1
  H  H102  1  0.11920000  0.71080000  0.30840000  1
  H  H103  1  0.11920000  0.21080000  0.19160000  1
  H  H104  1  0.11620000  0.95460000  0.84450000  1
  H  H105  1  0.11620000  0.45460000  0.65550000  1
  H  H106  1  0.10050000  0.23670000  0.83240000  1
  H  H107  1  0.10050000  0.73670000  0.66760000  1
  H  H108  1  0.09880000  0.29940000  0.38160000  1
  H  H109  1  0.09880000  0.79940000  0.11840000  1
  H  H110  1  0.08170000  0.93640000  0.75780000  1
  H  H111  1  0.08170000  0.43640000  0.74220000  1
  H  H112  1  0.07900000  0.02100000  0.92590000  1
  H  H113  1  0.07900000  0.52100000  0.57410000  1
  H  H114  1  0.05600000  0.47500000  0.43300000  1
  H  H115  1  0.05600000  0.97500000  0.06700000  1
  H  H116  1  0.04690000  0.02530000  0.46110000  1
  H  H117  1  0.04690000  0.52530000  0.03890000  1
  H  H118  1  0.00360000  0.15930000  0.34340000  1
  H  H119  1  0.00360000  0.65930000  0.15660000  1
  C  C120  1  0.98140000  0.41830000  0.89830000  1
  C  C121  1  0.98140000  0.91830000  0.60170000  1
  C  C122  1  0.96700000  0.33900000  0.87500000  1
  C  C123  1  0.96700000  0.83900000  0.62500000  1
  C  C124  1  0.95930000  0.01280000  0.95910000  1
  C  C125  1  0.95930000  0.51280000  0.54090000  1
  C  C126  1  0.95490000  0.48660000  0.45620000  1
  C  C127  1  0.95490000  0.98660000  0.04380000  1
  C  C128  1  0.94040000  0.41870000  0.94450000  1
  C  C129  1  0.94040000  0.91870000  0.55550000  1
  C  C130  1  0.90980000  0.25610000  0.89730000  1
  C  C131  1  0.90980000  0.75610000  0.60270000  1
  C  C132  1  0.87980000  0.33430000  0.96570000  1
  C  C133  1  0.87980000  0.83430000  0.53430000  1
  C  C134  1  0.87690000  0.93970000  0.39753000  1
  C  C135  1  0.87690000  0.43970000  0.10247000  1
  C  C136  1  0.86590000  0.57020000  0.27070000  1
  C  C137  1  0.86590000  0.07020000  0.22930000  1
  C  C138  1  0.86440000  0.25340000  0.94260000  1
  C  C139  1  0.86440000  0.75340000  0.55740000  1
  C  C140  1  0.84540000  0.55970000  0.32230000  1
  C  C141  1  0.84540000  0.05970000  0.17770000  1
  C  C142  1  0.84190000  0.84630000  0.38710000  1
  C  C143  1  0.84190000  0.34630000  0.11290000  1
  C  C144  1  0.84110000  0.23070000  0.34950000  1
  C  C145  1  0.84110000  0.73070000  0.15050000  1
  C  C146  1  0.82830000  0.97120000  0.42780000  1
  C  C147  1  0.82830000  0.47120000  0.07220000  1
  C  C148  1  0.81890000  0.76540000  0.82200000  1
  C  C149  1  0.81890000  0.26540000  0.67800000  1
  C  C150  1  0.80970000  0.09020000  0.26130000  1
  C  C151  1  0.80970000  0.59020000  0.23870000  1
  C  C152  1  0.80710000  0.27710000  0.37980000  1
  C  C153  1  0.80710000  0.77710000  0.12020000  1
  C  C154  1  0.80110000  0.80620000  0.86310000  1
  C  C155  1  0.80110000  0.30620000  0.63690000  1
  C  C156  1  0.79840000  0.16260000  0.96630000  1
  C  C157  1  0.79840000  0.66260000  0.53370000  1
  C  C158  1  0.79150000  0.13810000  0.34380000  1
  C  C159  1  0.79150000  0.63810000  0.15620000  1
  C  C160  1  0.77030000  0.56980000  0.34160000  1
  C  C161  1  0.77030000  0.06980000  0.15840000  1
  C  C162  1  0.75540000  0.78550000  0.40761000  1
  C  C163  1  0.75540000  0.28550000  0.09239000  1
  C  C164  1  0.74640000  0.68980000  0.80040000  1
  C  C165  1  0.74640000  0.18980000  0.69960000  1
  C  C166  1  0.74200000  0.55460000  0.39730000  1
  C  C167  1  0.74200000  0.05460000  0.10270000  1
  C  C168  1  0.74160000  0.90920000  0.44740000  1
  C  C169  1  0.74160000  0.40920000  0.05260000  1
  C  C170  1  0.73540000  0.60300000  0.25760000  1
  C  C171  1  0.73540000  0.10300000  0.24240000  1
  C  C172  1  0.71910000  0.23040000  0.40409000  1
  C  C173  1  0.71910000  0.73040000  0.09591000  1
  C  C174  1  0.71550000  0.59050000  0.30870000  1
  C  C175  1  0.71550000  0.09050000  0.19130000  1
  C  C176  1  0.71080000  0.77380000  0.88370000  1
  C  C177  1  0.71080000  0.27380000  0.61630000  1
  C  C178  1  0.71000000  0.08180000  0.82200000  1
  C  C179  1  0.71000000  0.14180000  0.78530000  1
  C  C180  1  0.71000000  0.64180000  0.71470000  1
  C  C181  1  0.71000000  0.58180000  0.67800000  1
  C  C182  1  0.70650000  0.81640000  0.43763000  1
  C  C183  1  0.70650000  0.31640000  0.06237000  1
  C  C184  1  0.70550000  0.08930000  0.36790000  1
  C  C185  1  0.70550000  0.58930000  0.13210000  1
  C  C186  1  0.69080000  0.82380000  0.92578000  1
  C  C187  1  0.69080000  0.32380000  0.57422000  1
  C  C188  1  0.68420000  0.28350000  0.43605000  1
  C  C189  1  0.68420000  0.78350000  0.06395000  1
  C  C190  1  0.67110000  0.13660000  0.39790000  1
  C  C191  1  0.67110000  0.63660000  0.10210000  1
  C  C192  1  0.66100000  0.19020000  0.79350000  1
  C  C193  1  0.66100000  0.69020000  0.70650000  1
  C  C194  1  0.65760000  0.65330000  0.81980000  1
  C  C195  1  0.65760000  0.15330000  0.68020000  1
  C  C196  1  0.65660000  0.06830000  0.86520000  1
  C  C197  1  0.65660000  0.56830000  0.63480000  1
  C  C198  1  0.63800000  0.69600000  0.86260000  1
  C  C199  1  0.63800000  0.19600000  0.63740000  1
  C  C200  1  0.61440000  0.75070000  0.46183000  1
  C  C201  1  0.61440000  0.25070000  0.03817000  1
  C  C202  1  0.60940000  0.17720000  0.83670000  1
  C  C203  1  0.60940000  0.67720000  0.66330000  1
  C  C204  1  0.60230000  0.11430000  0.87330000  1
  C  C205  1  0.60230000  0.61430000  0.62670000  1
  C  C206  1  0.54430000  0.10360000  0.91980000  1
  C  C207  1  0.54430000  0.60360000  0.58020000  1
  C  C208  1  0.45570000  0.39640000  0.41980000  1
  C  C209  1  0.45570000  0.89640000  0.08020000  1
  C  C210  1  0.39770000  0.38570000  0.37330000  1
  C  C211  1  0.39770000  0.88570000  0.12670000  1
  C  C212  1  0.39060000  0.32280000  0.33670000  1
  C  C213  1  0.39060000  0.82280000  0.16330000  1
  C  C214  1  0.38560000  0.74930000  0.96183000  1
  C  C215  1  0.38560000  0.24930000  0.53817000  1
  C  C216  1  0.36200000  0.80400000  0.36260000  1
  C  C217  1  0.36200000  0.30400000  0.13740000  1
  C  C218  1  0.34340000  0.43170000  0.36520000  1
  C  C219  1  0.34340000  0.93170000  0.13480000  1
  C  C220  1  0.34240000  0.84670000  0.31980000  1
  C  C221  1  0.34240000  0.34670000  0.18020000  1
  C  C222  1  0.33900000  0.30980000  0.29350000  1
  C  C223  1  0.33900000  0.80980000  0.20650000  1
  C  C224  1  0.32890000  0.36340000  0.89790000  1
  C  C225  1  0.32890000  0.86340000  0.60210000  1
  C  C226  1  0.31580000  0.21650000  0.93605000  1
  C  C227  1  0.31580000  0.71650000  0.56395000  1
  C  C228  1  0.30920000  0.67620000  0.42578000  1
  C  C229  1  0.30920000  0.17620000  0.07422000  1
  C  C230  1  0.29450000  0.41070000  0.86790000  1
  C  C231  1  0.29450000  0.91070000  0.63210000  1
  C  C232  1  0.29350000  0.68360000  0.93763000  1
  C  C233  1  0.29350000  0.18360000  0.56237000  1
  C  C234  1  0.29000000  0.41820000  0.32200000  1
  C  C235  1  0.29000000  0.35820000  0.28530000  1
  C  C236  1  0.29000000  0.85820000  0.21470000  1
  C  C237  1  0.29000000  0.91820000  0.17800000  1
  C  C238  1  0.28920000  0.72620000  0.38370000  1
  C  C239  1  0.28920000  0.22620000  0.11630000  1
  C  C240  1  0.28450000  0.90950000  0.80870000  1
  C  C241  1  0.28450000  0.40950000  0.69130000  1
  C  C242  1  0.28090000  0.26960000  0.90409000  1
  C  C243  1  0.28090000  0.76960000  0.59591000  1
  C  C244  1  0.26460000  0.89700000  0.75760000  1
  C  C245  1  0.26460000  0.39700000  0.74240000  1
  C  C246  1  0.25840000  0.59080000  0.94740000  1
  C  C247  1  0.25840000  0.09080000  0.55260000  1
  C  C248  1  0.25800000  0.94540000  0.89730000  1
  C  C249  1  0.25800000  0.44540000  0.60270000  1
  C  C250  1  0.25360000  0.81020000  0.30040000  1
  C  C251  1  0.25360000  0.31020000  0.19960000  1
  C  C252  1  0.24460000  0.71450000  0.90761000  1
  C  C253  1  0.24460000  0.21450000  0.59239000  1
  C  C254  1  0.22970000  0.93020000  0.84160000  1
  C  C255  1  0.22970000  0.43020000  0.65840000  1
  C  C256  1  0.20850000  0.36190000  0.84380000  1
  C  C257  1  0.20850000  0.86190000  0.65620000  1
  C  C258  1  0.20160000  0.33740000  0.46630000  1
  C  C259  1  0.20160000  0.83740000  0.03370000  1
  C  C260  1  0.19890000  0.69380000  0.36310000  1
  C  C261  1  0.19890000  0.19380000  0.13690000  1
  C  C262  1  0.19290000  0.22290000  0.87980000  1
  C  C263  1  0.19290000  0.72290000  0.62020000  1
  C  C264  1  0.19030000  0.40980000  0.76130000  1
  C  C265  1  0.19030000  0.90980000  0.73870000  1
  C  C266  1  0.18110000  0.73460000  0.32200000  1
  C  C267  1  0.18110000  0.23460000  0.17800000  1
  C  C268  1  0.17170000  0.52880000  0.92780000  1
  C  C269  1  0.17170000  0.02880000  0.57220000  1
  C  C270  1  0.15890000  0.26930000  0.84950000  1
  C  C271  1  0.15890000  0.76930000  0.65050000  1
  C  C272  1  0.15810000  0.65370000  0.88710000  1
  C  C273  1  0.15810000  0.15370000  0.61290000  1
  C  C274  1  0.15460000  0.94030000  0.82230000  1
  C  C275  1  0.15460000  0.44030000  0.67770000  1
  C  C276  1  0.13560000  0.24660000  0.44260000  1
  C  C277  1  0.13560000  0.74660000  0.05740000  1
  C  C278  1  0.13410000  0.92980000  0.77070000  1
  C  C279  1  0.13410000  0.42980000  0.72930000  1
  C  C280  1  0.12310000  0.56030000  0.89753000  1
  C  C281  1  0.12310000  0.06030000  0.60247000  1
  C  C282  1  0.12020000  0.16570000  0.46570000  1
  C  C283  1  0.12020000  0.66570000  0.03430000  1
  C  C284  1  0.09020000  0.24390000  0.39730000  1
  C  C285  1  0.09020000  0.74390000  0.10270000  1
  C  C286  1  0.05960000  0.08130000  0.44450000  1
  C  C287  1  0.05960000  0.58130000  0.05550000  1
  C  C288  1  0.04510000  0.01340000  0.95620000  1
  C  C289  1  0.04510000  0.51340000  0.54380000  1
  C  C290  1  0.04070000  0.48720000  0.45910000  1
  C  C291  1  0.04070000  0.98720000  0.04090000  1
  C  C292  1  0.03300000  0.16100000  0.37500000  1
  C  C293  1  0.03300000  0.66100000  0.12500000  1
  C  C294  1  0.01860000  0.08170000  0.39830000  1
  C  C295  1  0.01860000  0.58170000  0.10170000  1
  N  N296  1  0.91230000  0.49850000  0.49752000  1
  N  N297  1  0.91230000  0.99850000  0.00248000  1
  N  N298  1  0.08770000  0.00150000  0.99752000  1
  N  N299  1  0.08770000  0.50150000  0.50248000  1
  O  O300  1  0.96270000  0.99610000  0.37484000  1
  O  O301  1  0.96270000  0.49610000  0.12516000  1
  O  O302  1  0.82840000  0.09320000  0.31252000  1
  O  O303  1  0.82840000  0.59320000  0.18748000  1
  O  O304  1  0.81620000  0.09660000  0.96019000  1
  O  O305  1  0.81620000  0.59660000  0.53981000  1
  O  O306  1  0.79760000  0.54440000  0.42681000  1
  O  O307  1  0.79760000  0.04440000  0.07319000  1
  O  O308  1  0.76490000  0.65130000  0.75734000  1
  O  O309  1  0.76490000  0.15130000  0.74266000  1
  O  O310  1  0.75740000  0.89850000  0.93873000  1
  O  O311  1  0.75740000  0.39850000  0.56127000  1
  O  O312  1  0.74120000  0.36060000  0.45143000  1
  O  O313  1  0.74120000  0.86060000  0.04857000  1
  O  O314  1  0.72890000  0.16160000  0.99002000  1
  O  O315  1  0.72890000  0.66160000  0.50998000  1
  O  O316  1  0.66480000  0.55360000  0.40765000  1
  O  O317  1  0.66480000  0.05360000  0.09235000  1
  O  O318  1  0.63030000  0.95380000  0.99622000  1
  O  O319  1  0.63030000  0.45380000  0.50378000  1
  O  O320  1  0.60850000  0.78880000  0.94325000  1
  O  O321  1  0.60850000  0.28880000  0.55675000  1
  O  O322  1  0.59610000  0.24710000  0.44518000  1
  O  O323  1  0.59610000  0.74710000  0.05482000  1
  O  O324  1  0.57930000  0.66500000  0.45384000  1
  O  O325  1  0.57930000  0.16500000  0.04616000  1
  O  O326  1  0.57360000  0.78440000  0.48948000  1
  O  O327  1  0.57360000  0.28440000  0.01052000  1
  O  O328  1  0.53180000  0.03730000  0.94987000  1
  O  O329  1  0.53180000  0.53730000  0.55013000  1
  O  O330  1  0.51390000  0.16000000  0.92664000  1
  O  O331  1  0.51390000  0.66000000  0.57336000  1
  O  O332  1  0.48610000  0.34000000  0.42664000  1
  O  O333  1  0.48610000  0.84000000  0.07336000  1
  O  O334  1  0.46820000  0.46270000  0.44987000  1
  O  O335  1  0.46820000  0.96270000  0.05013000  1
  O  O336  1  0.42640000  0.71560000  0.98948000  1
  O  O337  1  0.42640000  0.21560000  0.51052000  1
  O  O338  1  0.42070000  0.83500000  0.95384000  1
  O  O339  1  0.42070000  0.33500000  0.54616000  1
  O  O340  1  0.40390000  0.25290000  0.94518000  1
  O  O341  1  0.40390000  0.75290000  0.55482000  1
  O  O342  1  0.39150000  0.71120000  0.44325000  1
  O  O343  1  0.39150000  0.21120000  0.05675000  1
  O  O344  1  0.36970000  0.54620000  0.49622000  1
  O  O345  1  0.36970000  0.04620000  0.00378000  1
  O  O346  1  0.33520000  0.94640000  0.90765000  1
  O  O347  1  0.33520000  0.44640000  0.59235000  1
  O  O348  1  0.27110000  0.33840000  0.49002000  1
  O  O349  1  0.27110000  0.83840000  0.00998000  1
  O  O350  1  0.25880000  0.13940000  0.95143000  1
  O  O351  1  0.25880000  0.63940000  0.54857000  1
  O  O352  1  0.24260000  0.60150000  0.43873000  1
  O  O353  1  0.24260000  0.10150000  0.06127000  1
  O  O354  1  0.23510000  0.84870000  0.25734000  1
  O  O355  1  0.23510000  0.34870000  0.24266000  1
  O  O356  1  0.20240000  0.95560000  0.92681000  1
  O  O357  1  0.20240000  0.45560000  0.57319000  1
  O  O358  1  0.18380000  0.40340000  0.46019000  1
  O  O359  1  0.18380000  0.90340000  0.03981000  1
  O  O360  1  0.17160000  0.40680000  0.81252000  1
  O  O361  1  0.17160000  0.90680000  0.68748000  1
  O  O362  1  0.03730000  0.50390000  0.87484000  1
  O  O363  1  0.03730000  0.00390000  0.62516000  1
