# generated using pymatgen
data_FeH4C8O5
_symmetry_space_group_name_H-M   'P 1'
_cell_length_a   11.92900000
_cell_length_b   12.12180466
_cell_length_c   12.12180466
_cell_angle_alpha   75.98886601
_cell_angle_beta   60.52477310
_cell_angle_gamma   60.52477310
_symmetry_Int_Tables_number   1
_chemical_formula_structural   FeH4C8O5
_chemical_formula_sum   'Fe4 H16 C32 O20'
_cell_volume   1328.44789095
_cell_formula_units_Z   4
loop_
 _symmetry_equiv_pos_site_id
 _symmetry_equiv_pos_as_xyz
  1  'x, y, z'
loop_
 _atom_site_type_symbol
 _atom_site_label
 _atom_site_symmetry_multiplicity
 _atom_site_fract_x
 _atom_site_fract_y
 _atom_site_fract_z
 _atom_site_occupancy
  C  C0  1  0.79710000  0.00000000  0.00000000  1
  C  C1  1  0.56230000  0.00000000  0.00000000  1
  C  C2  1  0.43770000  0.00000000  0.00000000  1
  C  C3  1  0.20290000  0.00000000  0.00000000  1
  C  C4  1  0.95290000  0.50000000  0.50000000  1
  C  C5  1  0.54710000  0.50000000  0.50000000  1
  C  C6  1  0.31230000  0.50000000  0.50000000  1
  C  C7  1  0.18770000  0.50000000  0.50000000  1
  C  C8  1  0.65940000  0.89200000  0.02980000  1
  C  C9  1  0.16880000  0.52980000  0.39200000  1
  C  C10  1  0.78380000  0.88726000  0.02614000  1
  C  C11  1  0.05280000  0.52614000  0.38726000  1
  C  C12  1  0.44860000  0.89200000  0.97020000  1
  C  C13  1  0.43920000  0.47020000  0.39200000  1
  C  C14  1  0.32894000  0.88726000  0.97386000  1
  C  C15  1  0.55994000  0.47386000  0.38726000  1
  C  C16  1  0.89010000  0.76850000  0.04930000  1
  C  C17  1  0.04210000  0.54930000  0.26850000  1
  C  C18  1  0.34140000  0.76850000  0.95070000  1
  C  C19  1  0.68940000  0.45070000  0.26850000  1
  C  C20  1  0.40860000  0.54930000  0.73150000  1
  C  C21  1  0.06060000  0.23150000  0.04930000  1
  C  C22  1  0.85990000  0.45070000  0.73150000  1
  C  C23  1  0.70790000  0.23150000  0.95070000  1
  C  C24  1  0.42106000  0.52614000  0.61274000  1
  C  C25  1  0.19006000  0.11274000  0.02614000  1
  C  C26  1  0.30140000  0.52980000  0.60800000  1
  C  C27  1  0.31080000  0.10800000  0.02980000  1
  C  C28  1  0.96620000  0.47386000  0.61274000  1
  C  C29  1  0.69720000  0.11274000  0.97386000  1
  C  C30  1  0.09060000  0.47020000  0.60800000  1
  C  C31  1  0.58120000  0.10800000  0.97020000  1
  Fe  Fe32  1  0.19347000  0.61306000  1.00000000  1
  Fe  Fe33  1  0.94347000  0.50000000  0.11306000  1
  Fe  Fe34  1  0.55653000  0.50000000  0.88694000  1
  Fe  Fe35  1  0.80653000  0.38694000  1.00000000  1
  H  H36  1  0.87680000  0.00000000  0.00000000  1
  H  H37  1  0.12320000  0.00000000  0.00000000  1
  H  H38  1  0.87320000  0.50000000  0.50000000  1
  H  H39  1  0.62680000  0.50000000  0.50000000  1
  H  H40  1  0.64390000  0.81830000  0.05350000  1
  H  H41  1  0.23430000  0.55350000  0.31830000  1
  H  H42  1  0.53780000  0.81830000  0.94650000  1
  H  H43  1  0.44740000  0.44650000  0.31830000  1
  H  H44  1  0.56620000  0.55880000  0.05880000  1
  H  H45  1  0.87500000  0.55880000  0.94120000  1
  H  H46  1  0.37500000  0.44120000  0.05880000  1
  H  H47  1  0.18380000  0.44120000  0.94120000  1
  H  H48  1  0.21220000  0.55350000  0.68170000  1
  H  H49  1  0.30260000  0.18170000  0.05350000  1
  H  H50  1  0.10610000  0.44650000  0.68170000  1
  H  H51  1  0.51570000  0.18170000  0.94650000  1
  O  O52  1  0.84727000  0.68668000  0.11444000  1
  O  O53  1  0.10161000  0.61444000  0.18668000  1
  O  O54  1  0.22718000  0.75702000  0.00200000  1
  O  O55  1  0.76380000  0.50200000  0.25702000  1
  O  O56  1  0.01580000  0.75702000  0.99800000  1
  O  O57  1  0.97918000  0.49800000  0.25702000  1
  O  O58  1  0.46605000  0.68668000  0.88556000  1
  O  O59  1  0.71171000  0.38556000  0.18668000  1
  O  O60  1  0.62130000  0.50370000  0.00370000  1
  O  O61  1  0.87500000  0.50370000  0.99630000  1
  O  O62  1  0.37500000  0.49630000  0.00370000  1
  O  O63  1  0.12870000  0.49630000  0.99630000  1
  O  O64  1  0.28395000  0.61444000  0.81332000  1
  O  O65  1  0.03829000  0.31332000  0.11444000  1
  O  O66  1  0.73420000  0.50200000  0.74298000  1
  O  O67  1  0.77082000  0.24298000  0.00200000  1
  O  O68  1  0.52282000  0.49800000  0.74298000  1
  O  O69  1  0.98620000  0.24298000  0.99800000  1
  O  O70  1  0.90273000  0.38556000  0.81332000  1
  O  O71  1  0.64839000  0.31332000  0.88556000  1
