# generated using pymatgen
data_FePO4
_symmetry_space_group_name_H-M   'P 1'
_cell_length_a   8.71119394
_cell_length_b   8.71119394
_cell_length_c   8.71119394
_cell_angle_alpha   107.79354847
_cell_angle_beta   107.79354847
_cell_angle_gamma   112.88133348
_symmetry_Int_Tables_number   1
_chemical_formula_structural   FePO4
_chemical_formula_sum   'Fe4 P4 O16'
_cell_volume   507.51445506
_cell_formula_units_Z   4
loop_
 _symmetry_equiv_pos_site_id
 _symmetry_equiv_pos_as_xyz
  1  'x, y, z'
loop_
 _atom_site_type_symbol
 _atom_site_label
 _atom_site_symmetry_multiplicity
 _atom_site_fract_x
 _atom_site_fract_y
 _atom_site_fract_z
 _atom_site_occupancy
  Fe  Fe0  1  0.76396000  0.49846000  1.00000000  1
  Fe  Fe1  1  0.50154000  0.50154000  0.26550000  1
  Fe  Fe2  1  0.49846000  0.76396000  1.00000000  1
  Fe  Fe3  1  0.23604000  0.23604000  0.73450000  1
  O  O4  1  0.30090000  0.08320000  0.82650000  1
  O  O5  1  0.74330000  0.91680000  0.21770000  1
  O  O6  1  0.47440000  0.25670000  0.17350000  1
  O  O7  1  0.91680000  0.74330000  0.21770000  1
  O  O8  1  0.65440000  0.25520000  1.00000000  1
  O  O9  1  0.74480000  0.74480000  0.39920000  1
  O  O10  1  0.45100000  0.96380000  1.00000000  1
  O  O11  1  0.03620000  0.03620000  0.48720000  1
  O  O12  1  0.96380000  0.45100000  1.00000000  1
  O  O13  1  0.54900000  0.54900000  0.51280000  1
  O  O14  1  0.25520000  0.65440000  1.00000000  1
  O  O15  1  0.34560000  0.34560000  0.60080000  1
  O  O16  1  0.08320000  0.30090000  0.82650000  1
  O  O17  1  0.52560000  0.69910000  0.78230000  1
  O  O18  1  0.25670000  0.47440000  0.17350000  1
  O  O19  1  0.69910000  0.52560000  0.78230000  1
  P  P20  1  0.47046000  0.14214000  1.00000000  1
  P  P21  1  0.85786000  0.85786000  0.32832000  1
  P  P22  1  0.14214000  0.47046000  1.00000000  1
  P  P23  1  0.52954000  0.52954000  0.67168000  1
