# generated using pymatgen
data_Ni3H4(C5O4)4
_symmetry_space_group_name_H-M   'P 1'
_cell_length_a   9.54000000
_cell_length_b   10.99462305
_cell_length_c   11.15100000
_cell_angle_alpha   79.96361859
_cell_angle_beta   66.31600000
_cell_angle_gamma   64.28795940
_symmetry_Int_Tables_number   1
_chemical_formula_structural   Ni3H4(C5O4)4
_chemical_formula_sum   'Ni3 H4 C20 O16'
_cell_volume   965.04864213
_cell_formula_units_Z   1
loop_
 _symmetry_equiv_pos_site_id
 _symmetry_equiv_pos_as_xyz
  1  'x, y, z'
loop_
 _atom_site_type_symbol
 _atom_site_label
 _atom_site_symmetry_multiplicity
 _atom_site_fract_x
 _atom_site_fract_y
 _atom_site_fract_z
 _atom_site_occupancy
  C  C0  1  0.20580000  0.58440000  0.23680000  1
  C  C1  1  0.79020000  0.41560000  0.23680000  1
  C  C2  1  0.15760000  0.41600000  0.92730000  1
  C  C3  1  0.57360000  0.58400000  0.92730000  1
  C  C4  1  0.09190000  0.54260000  0.87900000  1
  C  C5  1  0.63450000  0.45740000  0.87900000  1
  C  C6  1  0.16960000  0.23320000  0.09160000  1
  C  C7  1  0.40280000  0.76680000  0.09160000  1
  C  C8  1  0.07240000  0.36780000  0.04800000  1
  C  C9  1  0.44020000  0.63220000  0.04800000  1
  C  C10  1  0.92760000  0.63220000  0.95200000  1
  C  C11  1  0.55980000  0.36780000  0.95200000  1
  C  C12  1  0.83040000  0.76680000  0.90840000  1
  C  C13  1  0.59720000  0.23320000  0.90840000  1
  C  C14  1  0.90810000  0.45740000  0.12100000  1
  C  C15  1  0.36550000  0.54260000  0.12100000  1
  C  C16  1  0.84240000  0.58400000  0.07270000  1
  C  C17  1  0.42640000  0.41600000  0.07270000  1
  C  C18  1  0.79420000  0.41560000  0.76320000  1
  C  C19  1  0.20980000  0.58440000  0.76320000  1
  H  H20  1  0.26510000  0.35820000  0.87760000  1
  H  H21  1  0.62330000  0.64180000  0.87760000  1
  H  H22  1  0.73490000  0.64180000  0.12240000  1
  H  H23  1  0.37670000  0.35820000  0.12240000  1
  Ni  Ni24  1  0.50000000  0.00000000  0.00000000  1
  Ni  Ni25  1  0.00000000  0.50000000  0.50000000  1
  Ni  Ni26  1  0.50000000  0.50000000  0.50000000  1
  O  O27  1  0.20080000  0.49900000  0.33110000  1
  O  O28  1  0.69980000  0.50100000  0.33110000  1
  O  O29  1  0.09170000  0.69380000  0.23690000  1
  O  O30  1  0.78550000  0.30620000  0.23690000  1
  O  O31  1  0.27250000  0.14520000  0.00600000  1
  O  O32  1  0.41770000  0.85480000  0.00600000  1
  O  O33  1  0.15020000  0.21820000  0.20950000  1
  O  O34  1  0.36840000  0.78180000  0.20950000  1
  O  O35  1  0.84980000  0.78180000  0.79050000  1
  O  O36  1  0.63160000  0.21820000  0.79050000  1
  O  O37  1  0.72750000  0.85480000  0.99400000  1
  O  O38  1  0.58230000  0.14520000  0.99400000  1
  O  O39  1  0.90830000  0.30620000  0.76310000  1
  O  O40  1  0.21450000  0.69380000  0.76310000  1
  O  O41  1  0.79920000  0.50100000  0.66890000  1
  O  O42  1  0.30020000  0.49900000  0.66890000  1
