# generated using pymatgen
data_Tb2H40C52O19
_symmetry_space_group_name_H-M   'P 1'
_cell_length_a   7.06650000
_cell_length_b   14.52620000
_cell_length_c   16.71094738
_cell_angle_alpha   104.06595930
_cell_angle_beta   102.20675091
_cell_angle_gamma   90.00000000
_symmetry_Int_Tables_number   1
_chemical_formula_structural   Tb2H40C52O19
_chemical_formula_sum   'Tb2 H40 C52 O19'
_cell_volume   1623.92533310
_cell_formula_units_Z   1
loop_
 _symmetry_equiv_pos_site_id
 _symmetry_equiv_pos_as_xyz
  1  'x, y, z'
loop_
 _atom_site_type_symbol
 _atom_site_label
 _atom_site_symmetry_multiplicity
 _atom_site_fract_x
 _atom_site_fract_y
 _atom_site_fract_z
 _atom_site_occupancy
  Tb  Tb0  1  0.50772000  0.96952000  0.50268000  1
  Tb  Tb1  1  0.00504000  0.03048000  0.49732000  1
  H  H2  1  0.65100000  0.21170000  0.57180000  1
  H  H3  1  0.39310000  0.88330000  0.26740000  1
  H  H4  1  0.84990000  0.79420000  0.71380000  1
  H  H5  1  0.36250000  0.43390000  0.20720000  1
  H  H6  1  0.29210000  0.52700000  0.10100000  1
  H  H7  1  0.88830000  0.32450000  0.65800000  1
  H  H8  1  0.38150000  0.34600000  0.13360000  1
  H  H9  1  0.40280000  0.79130000  0.13340000  1
  H  H10  1  0.56190000  0.68420000  0.28140000  1
  H  H11  1  0.31510000  0.43390000  0.03320000  1
  H  H12  1  0.19110000  0.47300000  0.89900000  1
  H  H13  1  0.28190000  0.56610000  0.96680000  1
  H  H14  1  0.96620000  0.87460000  0.62920000  1
  H  H15  1  0.59520000  0.34120000  0.25260000  1
  H  H16  1  0.15530000  0.56610000  0.79280000  1
  H  H17  1  0.24790000  0.65400000  0.86640000  1
  H  H18  1  0.12570000  0.11670000  0.73260000  1
  H  H19  1  0.26940000  0.20870000  0.86660000  1
  H  H20  1  0.79740000  0.26110000  0.33920000  1
  H  H21  1  0.71300000  0.56330000  0.20340000  1
  H  H22  1  0.28050000  0.31580000  0.71860000  1
  H  H23  1  0.34260000  0.65880000  0.74740000  1
  H  H24  1  0.81520000  0.87220000  0.20020000  1
  H  H25  1  0.07920000  0.78830000  0.42820000  1
  H  H26  1  0.50960000  0.43670000  0.79660000  1
  H  H27  1  0.91450000  0.42900000  0.17580000  1
  H  H28  1  0.82460000  0.78020000  0.06780000  1
  H  H29  1  0.89140000  0.49570000  0.11320000  1
  H  H30  1  0.45820000  0.73890000  0.66080000  1
  H  H31  1  0.61500000  0.12780000  0.79980000  1
  H  H32  1  0.75680000  0.21980000  0.93220000  1
  H  H33  1  0.13610000  0.20580000  0.28620000  1
  H  H34  1  0.89400000  0.35250000  0.00960000  1
  H  H35  1  0.95960000  0.28670000  0.07140000  1
  H  H36  1  0.23030000  0.67550000  0.34200000  1
  H  H37  1  0.77820000  0.50430000  0.88680000  1
  H  H38  1  0.88440000  0.64750000  0.99040000  1
  H  H39  1  0.73870000  0.57100000  0.82420000  1
  H  H40  1  0.88820000  0.71330000  0.92860000  1
  H  H41  1  0.33700000  0.12540000  0.37080000  1
  C  C42  1  0.62380000  0.25540000  0.61820000  1
  C  C43  1  0.96360000  0.67070000  0.95780000  1
  C  C44  1  0.12757000  0.41300000  0.10674000  1
  C  C45  1  0.11340000  0.77620000  0.08860000  1
  C  C46  1  0.38990000  0.16780000  0.34680000  1
  C  C47  1  0.27850000  0.86250000  0.22740000  1
  C  C48  1  0.75100000  0.05950000  0.66640000  1
  C  C49  1  0.34580000  0.27680000  0.25820000  1
  C  C50  1  0.76520000  0.32390000  0.66940000  1
  C  C51  1  0.85300000  0.11370000  0.75240000  1
  C  C52  1  0.02480000  0.22380000  0.91140000  1
  C  C53  1  0.29200000  0.37950000  0.16560000  1
  C  C54  1  0.02083000  0.58700000  0.89326000  1
  C  C55  1  0.28430000  0.80720000  0.14720000  1
  C  C56  1  0.22260000  0.47140000  0.06080000  1
  C  C57  1  0.16180000  0.52860000  0.93920000  1
  C  C58  1  0.59280000  0.18360000  0.36240000  1
  C  C59  1  0.54360000  0.29700000  0.27520000  1
  C  C60  1  0.97450000  0.78450000  0.70460000  1
  C  C61  1  0.05110000  0.13750000  0.77260000  1
  C  C62  1  0.13710000  0.19280000  0.85280000  1
  C  C63  1  0.12640000  0.62050000  0.83440000  1
  C  C64  1  0.70820000  0.82360000  0.41220000  1
  C  C65  1  0.72850000  0.13420000  0.41600000  1
  C  C66  1  0.66400000  0.24850000  0.32760000  1
  C  C67  1  0.08760000  0.72320000  0.74180000  1
  C  C68  1  0.04310000  0.83220000  0.65320000  1
  C  C69  1  0.69610000  0.68110000  0.29500000  1
  C  C70  1  0.80700000  0.74700000  0.36300000  1
  C  C71  1  0.78750000  0.61020000  0.24680000  1
  C  C72  1  0.26840000  0.70300000  0.72480000  1
  C  C73  1  0.23040000  0.81640000  0.63760000  1
  C  C74  1  0.00560000  0.74460000  0.38180000  1
  C  C75  1  0.33640000  0.75150000  0.67240000  1
  C  C76  1  0.40110000  0.31890000  0.70500000  1
  C  C77  1  0.29600000  0.17640000  0.58780000  1
  C  C78  1  0.98610000  0.60860000  0.26260000  1
  C  C79  1  0.31250000  0.86580000  0.58400000  1
  C  C80  1  0.93430000  0.85560000  0.18720000  1
  C  C81  1  0.08460000  0.94050000  0.33360000  1
  C  C82  1  0.09580000  0.67610000  0.33060000  1
  C  C83  1  0.54070000  0.38980000  0.75320000  1
  C  C84  1  0.44400000  0.25300000  0.63700000  1
  C  C85  1  0.93920000  0.80050000  0.10780000  1
  C  C86  1  0.98450000  0.46980000  0.15240000  1
  C  C87  1  0.10060000  0.88630000  0.24760000  1
  C  C88  1  0.74710000  0.14440000  0.81280000  1
  C  C89  1  0.83140000  0.19950000  0.89220000  1
  C  C90  1  0.00580000  0.32930000  0.04220000  1
  C  C91  1  0.26990000  0.21550000  0.29540000  1
  C  C92  1  0.83210000  0.53020000  0.84760000  1
  C  C93  1  0.72350000  0.39140000  0.73740000  1
  O  O94  1  0.21619000  0.31790000  0.20758000  1
  O  O95  1  0.08010000  0.50000000  1.00000000  1
  O  O96  1  0.87187000  0.45550000  0.78174000  1
  O  O97  1  0.13266000  0.72000000  0.01232000  1
  O  O98  1  0.52735000  0.82470000  0.39730000  1
  O  O99  1  0.12034000  0.28000000  0.98768000  1
  O  O100  1  0.00861000  0.68210000  0.79242000  1
  O  O101  1  0.66538000  0.06650000  0.44156000  1
  O  O102  1  0.83861000  0.04090000  0.60622000  1
  O  O103  1  0.80643000  0.88940000  0.47226000  1
  O  O104  1  0.90729000  0.15670000  0.43358000  1
  O  O105  1  0.13005000  0.17530000  0.60270000  1
  O  O106  1  0.92590000  0.96550000  0.34660000  1
  O  O107  1  0.22382000  0.93350000  0.55844000  1
  O  O108  1  0.33417000  0.11060000  0.52774000  1
  O  O109  1  0.23239000  0.95910000  0.39378000  1
  O  O110  1  0.09013000  0.54450000  0.21826000  1
  O  O111  1  0.47371000  0.84330000  0.56642000  1
  O  O112  1  0.57930000  0.03450000  0.65340000  1
