# generated using pymatgen
data_Mg3H24C42N6O25
_symmetry_space_group_name_H-M   'P 1'
_cell_length_a   15.33660000
_cell_length_b   16.61650000
_cell_length_c   16.61650000
_cell_angle_alpha   120.00000000
_cell_angle_beta   90.00000000
_cell_angle_gamma   90.00000000
_symmetry_Int_Tables_number   1
_chemical_formula_structural   Mg3H24C42N6O25
_chemical_formula_sum   'Mg6 H48 C84 N12 O50'
_cell_volume   3667.23572054
_cell_formula_units_Z   2
loop_
 _symmetry_equiv_pos_site_id
 _symmetry_equiv_pos_as_xyz
  1  'x, y, z'
loop_
 _atom_site_type_symbol
 _atom_site_label
 _atom_site_symmetry_multiplicity
 _atom_site_fract_x
 _atom_site_fract_y
 _atom_site_fract_z
 _atom_site_occupancy
  Mg  Mg0  1  0.25000000  0.73497000  0.26504000  1
  Mg  Mg1  1  0.25000000  0.73497000  0.46994000  1
  Mg  Mg2  1  0.25000000  0.53007000  0.26504000  1
  Mg  Mg3  1  0.75000000  0.46993000  0.73496000  1
  Mg  Mg4  1  0.75000000  0.26503000  0.53006000  1
  Mg  Mg5  1  0.75000000  0.26503000  0.73496000  1
  H  H6  1  0.75000000  0.98490000  0.20960000  1
  H  H7  1  0.75000000  0.98490000  0.77530000  1
  H  H8  1  0.25000000  0.93370000  0.30430000  1
  H  H9  1  0.25000000  0.93370000  0.62940000  1
  H  H10  1  0.40910000  0.89360000  0.30380000  1
  H  H11  1  0.09090000  0.89360000  0.30380000  1
  H  H12  1  0.40910000  0.89360000  0.58980000  1
  H  H13  1  0.09090000  0.89360000  0.58980000  1
  H  H14  1  0.75000000  0.79040000  0.01510000  1
  H  H15  1  0.75000000  0.79040000  0.77530000  1
  H  H16  1  0.25000000  0.77530000  0.79040000  1
  H  H17  1  0.25000000  0.77530000  0.98490000  1
  H  H18  1  0.40910000  0.69620000  0.10640000  1
  H  H19  1  0.09090000  0.69620000  0.10640000  1
  H  H20  1  0.40910000  0.69620000  0.58980000  1
  H  H21  1  0.09090000  0.69620000  0.58980000  1
  H  H22  1  0.25000000  0.69570000  0.06630000  1
  H  H23  1  0.25000000  0.69570000  0.62940000  1
  H  H24  1  0.75000000  0.62940000  0.69570000  1
  H  H25  1  0.75000000  0.62940000  0.93370000  1
  H  H26  1  0.90910000  0.58980000  0.69620000  1
  H  H27  1  0.59090000  0.58980000  0.69620000  1
  H  H28  1  0.90910000  0.58980000  0.89360000  1
  H  H29  1  0.59090000  0.58980000  0.89360000  1
  H  H30  1  0.40910000  0.41020000  0.10640000  1
  H  H31  1  0.09090000  0.41020000  0.10640000  1
  H  H32  1  0.40910000  0.41020000  0.30380000  1
  H  H33  1  0.09090000  0.41020000  0.30380000  1
  H  H34  1  0.25000000  0.37060000  0.06630000  1
  H  H35  1  0.25000000  0.37060000  0.30430000  1
  H  H36  1  0.75000000  0.30430000  0.37060000  1
  H  H37  1  0.75000000  0.30430000  0.93370000  1
  H  H38  1  0.90910000  0.30380000  0.41020000  1
  H  H39  1  0.59090000  0.30380000  0.41020000  1
  H  H40  1  0.90910000  0.30380000  0.89360000  1
  H  H41  1  0.59090000  0.30380000  0.89360000  1
  H  H42  1  0.75000000  0.22470000  0.01510000  1
  H  H43  1  0.75000000  0.22470000  0.20960000  1
  H  H44  1  0.25000000  0.20960000  0.22470000  1
  H  H45  1  0.25000000  0.20960000  0.98490000  1
  H  H46  1  0.90910000  0.10640000  0.41020000  1
  H  H47  1  0.59090000  0.10640000  0.41020000  1
  H  H48  1  0.90910000  0.10640000  0.69620000  1
  H  H49  1  0.59090000  0.10640000  0.69620000  1
  H  H50  1  0.75000000  0.06630000  0.37060000  1
  H  H51  1  0.75000000  0.06630000  0.69570000  1
  H  H52  1  0.25000000  0.01510000  0.22470000  1
  H  H53  1  0.25000000  0.01510000  0.79040000  1
  C  C54  1  0.46850000  0.96490000  0.41040000  1
  C  C55  1  0.03150000  0.96490000  0.41040000  1
  C  C56  1  0.46850000  0.96490000  0.55450000  1
  C  C57  1  0.03150000  0.96490000  0.55450000  1
  C  C58  1  0.25000000  0.95310000  0.04690000  1
  C  C59  1  0.25000000  0.95310000  0.90620000  1
  C  C60  1  0.25000000  0.95060000  0.19330000  1
  C  C61  1  0.25000000  0.95060000  0.75730000  1
  C  C62  1  0.43730000  0.92990000  0.46495000  1
  C  C63  1  0.06270000  0.92990000  0.46495000  1
  C  C64  1  0.75000000  0.90620000  0.95310000  1
  C  C65  1  0.25000000  0.90250000  0.23970000  1
  C  C66  1  0.25000000  0.90250000  0.66280000  1
  C  C67  1  0.25000000  0.90045000  0.09955000  1
  C  C68  1  0.25000000  0.90045000  0.80090000  1
  C  C69  1  0.36920000  0.85480000  0.42740000  1
  C  C70  1  0.13080000  0.85480000  0.42740000  1
  C  C71  1  0.25000000  0.80670000  0.04940000  1
  C  C72  1  0.25000000  0.80670000  0.75730000  1
  C  C73  1  0.75000000  0.80090000  0.90045000  1
  C  C74  1  0.25000000  0.76030000  0.09750000  1
  C  C75  1  0.25000000  0.76030000  0.66280000  1
  C  C76  1  0.75000000  0.75730000  0.80670000  1
  C  C77  1  0.75000000  0.75730000  0.95060000  1
  C  C78  1  0.75000000  0.66280000  0.76030000  1
  C  C79  1  0.75000000  0.66280000  0.90250000  1
  C  C80  1  0.46850000  0.58960000  0.03510000  1
  C  C81  1  0.03150000  0.58960000  0.03510000  1
  C  C82  1  0.46850000  0.58960000  0.55450000  1
  C  C83  1  0.03150000  0.58960000  0.55450000  1
  C  C84  1  0.36920000  0.57260000  0.14520000  1
  C  C85  1  0.13080000  0.57260000  0.14520000  1
  C  C86  1  0.36920000  0.57260000  0.42740000  1
  C  C87  1  0.13080000  0.57260000  0.42740000  1
  C  C88  1  0.96850000  0.55450000  0.58960000  1
  C  C89  1  0.53150000  0.55450000  0.58960000  1
  C  C90  1  0.96850000  0.55450000  0.96490000  1
  C  C91  1  0.53150000  0.55450000  0.96490000  1
  C  C92  1  0.43730000  0.53505000  0.07010000  1
  C  C93  1  0.06270000  0.53505000  0.07010000  1
  C  C94  1  0.43730000  0.53505000  0.46495000  1
  C  C95  1  0.06270000  0.53505000  0.46495000  1
  C  C96  1  0.93730000  0.46495000  0.53505000  1
  C  C97  1  0.56270000  0.46495000  0.53505000  1
  C  C98  1  0.93730000  0.46495000  0.92990000  1
  C  C99  1  0.56270000  0.46495000  0.92990000  1
  C  C100  1  0.46850000  0.44550000  0.03510000  1
  C  C101  1  0.03150000  0.44550000  0.03510000  1
  C  C102  1  0.46850000  0.44550000  0.41040000  1
  C  C103  1  0.03150000  0.44550000  0.41040000  1
  C  C104  1  0.86920000  0.42740000  0.57260000  1
  C  C105  1  0.63080000  0.42740000  0.57260000  1
  C  C106  1  0.86920000  0.42740000  0.85480000  1
  C  C107  1  0.63080000  0.42740000  0.85480000  1
  C  C108  1  0.96850000  0.41040000  0.44550000  1
  C  C109  1  0.53150000  0.41040000  0.44550000  1
  C  C110  1  0.96850000  0.41040000  0.96490000  1
  C  C111  1  0.53150000  0.41040000  0.96490000  1
  C  C112  1  0.25000000  0.33720000  0.09750000  1
  C  C113  1  0.25000000  0.33720000  0.23970000  1
  C  C114  1  0.25000000  0.24270000  0.04940000  1
  C  C115  1  0.25000000  0.24270000  0.19330000  1
  C  C116  1  0.75000000  0.23970000  0.33720000  1
  C  C117  1  0.75000000  0.23970000  0.90250000  1
  C  C118  1  0.25000000  0.19910000  0.09955000  1
  C  C119  1  0.75000000  0.19330000  0.24270000  1
  C  C120  1  0.75000000  0.19330000  0.95060000  1
  C  C121  1  0.86920000  0.14520000  0.57260000  1
  C  C122  1  0.63080000  0.14520000  0.57260000  1
  C  C123  1  0.75000000  0.09955000  0.19910000  1
  C  C124  1  0.75000000  0.09955000  0.90045000  1
  C  C125  1  0.75000000  0.09750000  0.33720000  1
  C  C126  1  0.75000000  0.09750000  0.76030000  1
  C  C127  1  0.25000000  0.09380000  0.04690000  1
  C  C128  1  0.93730000  0.07010000  0.53505000  1
  C  C129  1  0.56270000  0.07010000  0.53505000  1
  C  C130  1  0.75000000  0.04940000  0.24270000  1
  C  C131  1  0.75000000  0.04940000  0.80670000  1
  C  C132  1  0.75000000  0.04690000  0.09380000  1
  C  C133  1  0.75000000  0.04690000  0.95310000  1
  C  C134  1  0.96850000  0.03510000  0.44550000  1
  C  C135  1  0.53150000  0.03510000  0.44550000  1
  C  C136  1  0.96850000  0.03510000  0.58960000  1
  C  C137  1  0.53150000  0.03510000  0.58960000  1
  N  N138  1  0.75000000  0.95280000  0.04720000  1
  N  N139  1  0.75000000  0.95280000  0.90560000  1
  N  N140  1  0.25000000  0.90560000  0.95280000  1
  N  N141  1  0.25000000  0.80935000  0.19065000  1
  N  N142  1  0.25000000  0.80935000  0.61870000  1
  N  N143  1  0.75000000  0.61870000  0.80935000  1
  N  N144  1  0.25000000  0.38130000  0.19065000  1
  N  N145  1  0.75000000  0.19065000  0.38130000  1
  N  N146  1  0.75000000  0.19065000  0.80935000  1
  N  N147  1  0.75000000  0.09440000  0.04720000  1
  N  N148  1  0.25000000  0.04720000  0.09440000  1
  N  N149  1  0.25000000  0.04720000  0.95280000  1
  O  O150  1  0.44590000  0.93470000  0.32040000  1
  O  O151  1  0.05410000  0.93470000  0.32040000  1
  O  O152  1  0.44590000  0.93470000  0.61430000  1
  O  O153  1  0.05410000  0.93470000  0.61430000  1
  O  O154  1  0.34354000  0.82510000  0.34510000  1
  O  O155  1  0.15646000  0.82510000  0.34510000  1
  O  O156  1  0.34354000  0.82510000  0.48000000  1
  O  O157  1  0.15646000  0.82510000  0.48000000  1
  O  O158  1  0.44590000  0.67960000  0.06530000  1
  O  O159  1  0.05410000  0.67960000  0.06530000  1
  O  O160  1  0.44590000  0.67960000  0.61430000  1
  O  O161  1  0.05410000  0.67960000  0.61430000  1
  O  O162  1  0.25000000  0.66666667  0.33333333  1
  O  O163  1  0.34354000  0.65490000  0.17490000  1
  O  O164  1  0.15646000  0.65490000  0.17490000  1
  O  O165  1  0.34354000  0.65490000  0.48000000  1
  O  O166  1  0.15646000  0.65490000  0.48000000  1
  O  O167  1  0.94590000  0.61430000  0.67960000  1
  O  O168  1  0.55410000  0.61430000  0.67960000  1
  O  O169  1  0.94590000  0.61430000  0.93470000  1
  O  O170  1  0.55410000  0.61430000  0.93470000  1
  O  O171  1  0.34354000  0.52000000  0.17490000  1
  O  O172  1  0.15646000  0.52000000  0.17490000  1
  O  O173  1  0.34354000  0.52000000  0.34510000  1
  O  O174  1  0.15646000  0.52000000  0.34510000  1
  O  O175  1  0.84354000  0.48000000  0.65490000  1
  O  O176  1  0.65646000  0.48000000  0.65490000  1
  O  O177  1  0.84354000  0.48000000  0.82510000  1
  O  O178  1  0.65646000  0.48000000  0.82510000  1
  O  O179  1  0.44590000  0.38570000  0.06530000  1
  O  O180  1  0.05410000  0.38570000  0.06530000  1
  O  O181  1  0.44590000  0.38570000  0.32040000  1
  O  O182  1  0.05410000  0.38570000  0.32040000  1
  O  O183  1  0.84354000  0.34510000  0.52000000  1
  O  O184  1  0.65646000  0.34510000  0.52000000  1
  O  O185  1  0.84354000  0.34510000  0.82510000  1
  O  O186  1  0.65646000  0.34510000  0.82510000  1
  O  O187  1  0.75000000  0.33333333  0.66666667  1
  O  O188  1  0.94590000  0.32040000  0.38570000  1
  O  O189  1  0.55410000  0.32040000  0.38570000  1
  O  O190  1  0.94590000  0.32040000  0.93470000  1
  O  O191  1  0.55410000  0.32040000  0.93470000  1
  O  O192  1  0.84354000  0.17490000  0.52000000  1
  O  O193  1  0.65646000  0.17490000  0.52000000  1
  O  O194  1  0.84354000  0.17490000  0.65490000  1
  O  O195  1  0.65646000  0.17490000  0.65490000  1
  O  O196  1  0.94590000  0.06530000  0.38570000  1
  O  O197  1  0.55410000  0.06530000  0.38570000  1
  O  O198  1  0.94590000  0.06530000  0.67960000  1
  O  O199  1  0.55410000  0.06530000  0.67960000  1
