# generated using pymatgen
data_AgH20(C5N)4
_symmetry_space_group_name_H-M   'P 1'
_cell_length_a   10.80955579
_cell_length_b   10.80955579
_cell_length_c   10.92610000
_cell_angle_alpha   105.82269121
_cell_angle_beta   105.82269121
_cell_angle_gamma   101.82493208
_symmetry_Int_Tables_number   1
_chemical_formula_structural   AgH20(C5N)4
_chemical_formula_sum   'Ag2 H40 C40 N8'
_cell_volume   1126.69800634
_cell_formula_units_Z   2
loop_
 _symmetry_equiv_pos_site_id
 _symmetry_equiv_pos_as_xyz
  1  'x, y, z'
loop_
 _atom_site_type_symbol
 _atom_site_label
 _atom_site_symmetry_multiplicity
 _atom_site_fract_x
 _atom_site_fract_y
 _atom_site_fract_z
 _atom_site_occupancy
  Ag  Ag0  1  0.88972000  0.00456000  0.16925000  1
  Ag  Ag1  1  0.00456000  0.88972000  0.66925000  1
  C  C2  1  0.90370000  0.05070000  0.48720000  1
  C  C3  1  0.05070000  0.90370000  0.98720000  1
  C  C4  1  0.84300000  0.99400000  0.84960000  1
  C  C5  1  0.99400000  0.84300000  0.34960000  1
  C  C6  1  0.80780000  0.91540000  0.39140000  1
  C  C7  1  0.91540000  0.80780000  0.89140000  1
  C  C8  1  0.49130000  0.19550000  0.99730000  1
  C  C9  1  0.19550000  0.49130000  0.49730000  1
  C  C10  1  0.40170000  0.26910000  0.98600000  1
  C  C11  1  0.26910000  0.40170000  0.48600000  1
  C  C12  1  0.57320000  0.02780000  0.07950000  1
  C  C13  1  0.02780000  0.57320000  0.57950000  1
  C  C14  1  0.47710000  0.10390000  0.06450000  1
  C  C15  1  0.10390000  0.47710000  0.56450000  1
  C  C16  1  0.29800000  0.25220000  0.03760000  1
  C  C17  1  0.25220000  0.29800000  0.53760000  1
  C  C18  1  0.72680000  0.76340000  0.68160000  1
  C  C19  1  0.76340000  0.72680000  0.18160000  1
  C  C20  1  0.37430000  0.08410000  0.11580000  1
  C  C21  1  0.08410000  0.37430000  0.61580000  1
  C  C22  1  0.28080000  0.15760000  0.09770000  1
  C  C23  1  0.15760000  0.28080000  0.59770000  1
  C  C24  1  0.61190000  0.73370000  0.73050000  1
  C  C25  1  0.73370000  0.61190000  0.23050000  1
  C  C26  1  0.51850000  0.80330000  0.72090000  1
  C  C27  1  0.80330000  0.51850000  0.22090000  1
  C  C28  1  0.16700000  0.13180000  0.15460000  1
  C  C29  1  0.13180000  0.16700000  0.65460000  1
  C  C30  1  0.59780000  0.63500000  0.79390000  1
  C  C31  1  0.63500000  0.59780000  0.29390000  1
  C  C32  1  0.41210000  0.77570000  0.77040000  1
  C  C33  1  0.77570000  0.41210000  0.27040000  1
  C  C34  1  0.31660000  0.84820000  0.75630000  1
  C  C35  1  0.84820000  0.31660000  0.25630000  1
  C  C36  1  0.49160000  0.60860000  0.84370000  1
  C  C37  1  0.60860000  0.49160000  0.34370000  1
  C  C38  1  0.39940000  0.67820000  0.83180000  1
  C  C39  1  0.67820000  0.39940000  0.33180000  1
  C  C40  1  0.09021000  0.97939000  0.44720000  1
  C  C41  1  0.97939000  0.09021000  0.94720000  1
  H  H42  1  0.66060000  0.32760000  0.36490000  1
  H  H43  1  0.32760000  0.66060000  0.86490000  1
  H  H44  1  0.86680000  0.08900000  0.55750000  1
  H  H45  1  0.08900000  0.86680000  0.05750000  1
  H  H46  1  0.80590000  0.03110000  0.77910000  1
  H  H47  1  0.03110000  0.80590000  0.27910000  1
  H  H48  1  0.56110000  0.20690000  0.96030000  1
  H  H49  1  0.20690000  0.56110000  0.46030000  1
  H  H50  1  0.77970000  0.98410000  0.89930000  1
  H  H51  1  0.98410000  0.77970000  0.39930000  1
  H  H52  1  0.41100000  0.33300000  0.94170000  1
  H  H53  1  0.33300000  0.41100000  0.44170000  1
  H  H54  1  0.79500000  0.85400000  0.44250000  1
  H  H55  1  0.85400000  0.79500000  0.94250000  1
  H  H56  1  0.71900000  0.92560000  0.34840000  1
  H  H57  1  0.92560000  0.71900000  0.84840000  1
  H  H58  1  0.30630000  0.23910000  0.53120000  1
  H  H59  1  0.23910000  0.30630000  0.03120000  1
  H  H60  1  0.69880000  0.79860000  0.60730000  1
  H  H61  1  0.79860000  0.69880000  0.10730000  1
  H  H62  1  0.67730000  0.74410000  0.14250000  1
  H  H63  1  0.74410000  0.67730000  0.64250000  1
  H  H64  1  0.52590000  0.87070000  0.68050000  1
  H  H65  1  0.87070000  0.52590000  0.18050000  1
  H  H66  1  0.36650000  0.02210000  0.16240000  1
  H  H67  1  0.02210000  0.36650000  0.66240000  1
  H  H68  1  0.21900000  0.15240000  0.69510000  1
  H  H69  1  0.15240000  0.21900000  0.19510000  1
  H  H70  1  0.19610000  0.09570000  0.22810000  1
  H  H71  1  0.09570000  0.19610000  0.72810000  1
  H  H72  1  0.58600000  0.66140000  0.30280000  1
  H  H73  1  0.66140000  0.58600000  0.80280000  1
  H  H74  1  0.17900000  0.96920000  0.49050000  1
  H  H75  1  0.96920000  0.17900000  0.99050000  1
  H  H76  1  0.10320000  0.04140000  0.39670000  1
  H  H77  1  0.04140000  0.10320000  0.89670000  1
  H  H78  1  0.11330000  0.91390000  0.93670000  1
  H  H79  1  0.91390000  0.11330000  0.43670000  1
  H  H80  1  0.48410000  0.54250000  0.88550000  1
  H  H81  1  0.54250000  0.48410000  0.38550000  1
  N  N82  1  0.85655000  0.86105000  0.78480000  1
  N  N83  1  0.86105000  0.85655000  0.28480000  1
  N  N84  1  0.64890000  0.96950000  0.08690000  1
  N  N85  1  0.96950000  0.64890000  0.58690000  1
  N  N86  1  0.23750000  0.90610000  0.74330000  1
  N  N87  1  0.90610000  0.23750000  0.24330000  1
  N  N88  1  0.03687000  0.03653000  0.05260000  1
  N  N89  1  0.03653000  0.03687000  0.55260000  1
