# generated using pymatgen
data_TbP2H5C2O7
_symmetry_space_group_name_H-M   'P 1'
_cell_length_a   8.30340000
_cell_length_b   10.29700000
_cell_length_c   10.50000000
_cell_angle_alpha   90.00000000
_cell_angle_beta   90.00000000
_cell_angle_gamma   90.00000000
_symmetry_Int_Tables_number   1
_chemical_formula_structural   TbP2H5C2O7
_chemical_formula_sum   'Tb4 P8 H20 C8 O28'
_cell_volume   897.75115290
_cell_formula_units_Z   4
loop_
 _symmetry_equiv_pos_site_id
 _symmetry_equiv_pos_as_xyz
  1  'x, y, z'
loop_
 _atom_site_type_symbol
 _atom_site_label
 _atom_site_symmetry_multiplicity
 _atom_site_fract_x
 _atom_site_fract_y
 _atom_site_fract_z
 _atom_site_occupancy
  Tb  Tb0  1  0.25000000  0.86000000  0.12043000  1
  Tb  Tb1  1  0.75000000  0.64000000  0.62043000  1
  Tb  Tb2  1  0.25000000  0.36000000  0.37957000  1
  Tb  Tb3  1  0.75000000  0.14000000  0.87957000  1
  P  P4  1  0.93270000  0.83280000  0.87330000  1
  P  P5  1  0.56730000  0.83280000  0.87330000  1
  P  P6  1  0.43270000  0.66720000  0.37330000  1
  P  P7  1  0.06730000  0.66720000  0.37330000  1
  P  P8  1  0.93270000  0.33280000  0.62670000  1
  P  P9  1  0.56730000  0.33280000  0.62670000  1
  P  P10  1  0.43270000  0.16720000  0.12670000  1
  P  P11  1  0.06730000  0.16720000  0.12670000  1
  H  H12  1  0.82650000  0.99660000  0.03820000  1
  H  H13  1  0.67350000  0.99660000  0.03820000  1
  H  H14  1  0.25000000  0.87570000  0.50140000  1
  H  H15  1  0.34360000  0.79820000  0.60750000  1
  H  H16  1  0.15640000  0.79820000  0.60750000  1
  H  H17  1  0.84360000  0.70180000  0.10750000  1
  H  H18  1  0.65640000  0.70180000  0.10750000  1
  H  H19  1  0.75000000  0.62430000  0.00140000  1
  H  H20  1  0.32650000  0.50340000  0.53820000  1
  H  H21  1  0.17350000  0.50340000  0.53820000  1
  H  H22  1  0.82650000  0.49660000  0.46180000  1
  H  H23  1  0.67350000  0.49660000  0.46180000  1
  H  H24  1  0.25000000  0.37570000  0.99860000  1
  H  H25  1  0.34360000  0.29820000  0.89250000  1
  H  H26  1  0.15640000  0.29820000  0.89250000  1
  H  H27  1  0.84360000  0.20180000  0.39250000  1
  H  H28  1  0.65640000  0.20180000  0.39250000  1
  H  H29  1  0.75000000  0.12430000  0.49860000  1
  H  H30  1  0.32650000  0.00340000  0.96180000  1
  H  H31  1  0.17350000  0.00340000  0.96180000  1
  C  C32  1  0.75000000  0.82270000  0.96800000  1
  C  C33  1  0.25000000  0.79970000  0.55400000  1
  C  C34  1  0.75000000  0.70030000  0.05400000  1
  C  C35  1  0.25000000  0.67730000  0.46800000  1
  C  C36  1  0.75000000  0.32270000  0.53200000  1
  C  C37  1  0.25000000  0.29970000  0.94600000  1
  C  C38  1  0.75000000  0.20030000  0.44600000  1
  C  C39  1  0.25000000  0.17730000  0.03200000  1
  O  O40  1  0.93070000  0.97050000  0.81780000  1
  O  O41  1  0.56930000  0.97050000  0.81780000  1
  O  O42  1  0.75000000  0.94220000  0.04490000  1
  O  O43  1  0.42940000  0.81170000  0.96330000  1
  O  O44  1  0.07060000  0.81170000  0.96330000  1
  O  O45  1  0.42600000  0.77040000  0.27030000  1
  O  O46  1  0.07400000  0.77040000  0.27030000  1
  O  O47  1  0.92600000  0.72960000  0.77030000  1
  O  O48  1  0.57400000  0.72960000  0.77030000  1
  O  O49  1  0.92940000  0.68830000  0.46330000  1
  O  O50  1  0.57060000  0.68830000  0.46330000  1
  O  O51  1  0.25000000  0.55780000  0.54490000  1
  O  O52  1  0.43070000  0.52950000  0.31780000  1
  O  O53  1  0.06930000  0.52950000  0.31780000  1
  O  O54  1  0.93070000  0.47050000  0.68220000  1
  O  O55  1  0.56930000  0.47050000  0.68220000  1
  O  O56  1  0.75000000  0.44220000  0.45510000  1
  O  O57  1  0.42940000  0.31170000  0.53670000  1
  O  O58  1  0.07060000  0.31170000  0.53670000  1
  O  O59  1  0.42600000  0.27040000  0.22970000  1
  O  O60  1  0.07400000  0.27040000  0.22970000  1
  O  O61  1  0.92600000  0.22960000  0.72970000  1
  O  O62  1  0.57400000  0.22960000  0.72970000  1
  O  O63  1  0.92940000  0.18830000  0.03670000  1
  O  O64  1  0.57060000  0.18830000  0.03670000  1
  O  O65  1  0.25000000  0.05780000  0.95510000  1
  O  O66  1  0.43070000  0.02950000  0.18220000  1
  O  O67  1  0.06930000  0.02950000  0.18220000  1
