# generated using pymatgen
data_SmH8C18N3O8
_symmetry_space_group_name_H-M   'P 1'
_cell_length_a   10.29085379
_cell_length_b   10.29085379
_cell_length_c   21.23126864
_cell_angle_alpha   98.75316962
_cell_angle_beta   98.75316962
_cell_angle_gamma   111.84375124
_symmetry_Int_Tables_number   1
_chemical_formula_structural   SmH8C18N3O8
_chemical_formula_sum   'Sm4 H32 C72 N12 O32'
_cell_volume   2008.55049490
_cell_formula_units_Z   4
loop_
 _symmetry_equiv_pos_site_id
 _symmetry_equiv_pos_as_xyz
  1  'x, y, z'
loop_
 _atom_site_type_symbol
 _atom_site_label
 _atom_site_symmetry_multiplicity
 _atom_site_fract_x
 _atom_site_fract_y
 _atom_site_fract_z
 _atom_site_occupancy
  C  C0  1  0.21620000  0.09660000  0.28680000  1
  C  C1  1  0.61070000  0.71010000  0.28640000  1
  C  C2  1  0.97170000  0.90130000  0.82800000  1
  C  C3  1  0.91100000  0.78900000  0.64340000  1
  C  C4  1  0.04687000  0.32167000  0.31074000  1
  C  C5  1  0.59670000  0.69030000  0.21760000  1
  C  C6  1  0.58860000  0.29640000  0.79960000  1
  C  C7  1  0.44490000  0.53550000  0.89500000  1
  C  C8  1  0.97590000  0.90570000  0.76140000  1
  C  C9  1  0.41540000  0.52740000  0.82260000  1
  C  C10  1  0.84610000  0.51430000  0.23120000  1
  C  C11  1  0.90630000  0.55470000  0.29800000  1
  C  C12  1  0.77470000  0.10750000  0.70600000  1
  C  C13  1  0.22370000  0.10910000  0.15640000  1
  C  C14  1  0.36420000  0.50300000  0.68900000  1
  C  C15  1  0.05650000  0.03910000  0.88060000  1
  C  C16  1  0.74320000  0.81340000  0.33360000  1
  C  C17  1  0.84150000  0.17610000  0.77020000  1
  C  C18  1  0.34410000  0.17870000  0.27020000  1
  C  C19  1  0.27020000  0.84040000  0.83360000  1
  C  C20  1  0.59150000  0.07410000  0.38060000  1
  C  C21  1  0.93600000  0.57480000  0.18900000  1
  C  C22  1  0.79730000  0.18270000  0.65640000  1
  C  C23  1  0.34850000  0.18130000  0.20600000  1
  C  C24  1  0.49330000  0.64170000  0.79800000  1
  C  C25  1  0.46690000  0.63510000  0.73120000  1
  C  C26  1  0.60570000  0.03550000  0.26140000  1
  C  C27  1  0.04520000  0.65720000  0.32260000  1
  C  C28  1  0.25320000  0.46100000  0.29960000  1
  C  C29  1  0.10950000  0.70010000  0.39500000  1
  C  C30  1  0.27730000  0.87090000  0.71760000  1
  C  C31  1  0.73907000  0.51387000  0.81074000  1
  C  C32  1  0.60440000  0.98240000  0.14340000  1
  C  C33  1  0.67670000  0.10630000  0.32800000  1
  C  C34  1  0.32630000  0.92570000  0.78640000  1
  C  C35  1  0.94020000  0.32060000  0.78680000  1
  C  C36  1  0.67940000  0.05980000  0.21320000  1
  C  C37  1  0.07430000  0.67370000  0.21360000  1
  C  C38  1  0.89370000  0.32330000  0.67200000  1
  C  C39  1  0.01760000  0.39560000  0.85660000  1
  C  C40  1  0.48613000  0.26093000  0.18926000  1
  C  C41  1  0.12910000  0.72270000  0.28240000  1
  C  C42  1  0.29990000  0.89050000  0.60500000  1
  C  C43  1  0.53900000  0.74680000  0.70040000  1
  C  C44  1  0.34280000  0.95480000  0.67740000  1
  C  C45  1  0.96450000  0.39430000  0.73860000  1
  C  C46  1  0.36490000  0.53310000  0.26880000  1
  C  C47  1  0.35830000  0.50670000  0.20200000  1
  C  C48  1  0.81870000  0.65150000  0.79400000  1
  C  C49  1  0.81730000  0.20270000  0.34360000  1
  C  C50  1  0.42520000  0.06400000  0.81100000  1
  C  C51  1  0.92590000  0.40850000  0.61940000  1
  C  C52  1  0.15960000  0.72980000  0.16640000  1
  C  C53  1  0.82130000  0.65590000  0.72980000  1
  C  C54  1  0.82390000  0.15850000  0.22980000  1
  C  C55  1  0.18660000  0.25680000  0.66640000  1
  C  C56  1  0.96090000  0.94350000  0.11940000  1
  C  C57  1  0.49700000  0.63580000  0.31100000  1
  C  C58  1  0.89090000  0.77630000  0.84360000  1
  C  C59  1  0.89250000  0.22530000  0.29400000  1
  C  C60  1  0.44530000  0.09370000  0.70200000  1
  C  C61  1  0.48570000  0.15390000  0.76880000  1
  C  C62  1  0.47260000  0.58460000  0.17740000  1
  C  C63  1  0.09430000  0.02410000  0.23860000  1
  C  C64  1  0.46450000  0.55510000  0.10500000  1
  C  C65  1  0.70360000  0.41140000  0.20040000  1
  C  C66  1  0.30970000  0.40330000  0.78240000  1
  C  C67  1  0.67833000  0.95313000  0.68926000  1
  C  C68  1  0.21100000  0.08900000  0.35660000  1
  C  C69  1  0.09870000  0.02830000  0.17200000  1
  C  C70  1  0.28990000  0.38930000  0.71360000  1
  C  C71  1  0.90340000  0.78380000  0.71320000  1
  H  H72  1  0.85160000  0.51140000  0.32720000  1
  H  H73  1  0.22090000  0.66570000  0.82460000  1
  H  H74  1  0.09090000  0.38290000  0.40300000  1
  H  H75  1  0.82080000  0.12520000  0.80380000  1
  H  H76  1  0.34720000  0.49420000  0.64300000  1
  H  H77  1  0.67090000  0.74850000  0.19980000  1
  H  H78  1  0.50700000  0.97140000  0.25060000  1
  H  H79  1  0.22540000  0.11600000  0.11240000  1
  H  H80  1  0.74640000  0.13700000  0.61240000  1
  H  H81  1  0.02920000  0.99360000  0.75060000  1
  H  H82  1  0.20130000  0.77890000  0.69980000  1
  H  H83  1  0.89880000  0.54580000  0.14300000  1
  H  H84  1  0.42860000  0.23300000  0.30380000  1
  H  H85  1  0.77010000  0.56210000  0.90300000  1
  H  H86  1  0.90890000  0.85370000  0.32460000  1
  H  H87  1  0.56580000  0.72560000  0.82720000  1
  H  H88  1  0.27440000  0.43420000  0.17280000  1
  H  H89  1  0.14630000  0.09110000  0.67540000  1
  H  H90  1  0.43790000  0.22990000  0.09700000  1
  H  H91  1  0.76700000  0.57140000  0.69620000  1
  H  H92  1  0.45420000  0.10120000  0.85700000  1
  H  H93  1  0.22110000  0.79870000  0.30020000  1
  H  H94  1  0.00640000  0.97080000  0.24940000  1
  H  H95  1  0.86300000  0.25360000  0.38760000  1
  H  H96  1  0.88400000  0.77460000  0.88760000  1
  H  H97  1  0.02860000  0.49300000  0.74940000  1
  H  H98  1  0.25150000  0.32910000  0.80020000  1
  H  H99  1  0.50580000  0.65280000  0.35700000  1
  H  H100  1  0.87480000  0.17920000  0.19620000  1
  H  H101  1  0.61710000  0.90910000  0.59700000  1
  H  H102  1  0.33430000  0.77910000  0.17540000  1
  H  H103  1  0.48860000  0.14840000  0.67280000  1
  N  N104  1  0.13140000  0.37440000  0.36960000  1
  N  N105  1  0.65090000  0.34990000  0.86260000  1
  N  N106  1  0.11700000  0.37120000  0.26300000  1
  N  N107  1  0.64180000  0.39600000  0.76300000  1
  N  N108  1  0.26270000  0.46170000  0.36260000  1
  N  N109  1  0.74520000  0.48820000  0.86960000  1
  N  N110  1  0.51180000  0.25480000  0.13040000  1
  N  N111  1  0.53830000  0.73730000  0.63740000  1
  N  N112  1  0.60400000  0.35820000  0.23700000  1
  N  N113  1  0.62880000  0.88300000  0.73700000  1
  N  N114  1  0.65010000  0.34910000  0.13740000  1
  N  N115  1  0.62560000  0.86860000  0.63040000  1
  O  O116  1  0.48690000  0.95630000  0.37080000  1
  O  O117  1  0.33300000  0.13760000  0.39560000  1
  O  O118  1  0.18180000  0.71160000  0.80520000  1
  O  O119  1  0.55680000  0.63880000  0.08300000  1
  O  O120  1  0.02310000  0.05170000  0.93380000  1
  O  O121  1  0.75450000  0.83550000  0.39200000  1
  O  O122  1  0.04610000  0.61630000  0.43080000  1
  O  O123  1  0.95500000  0.90200000  0.62480000  1
  O  O124  1  0.47280000  0.91980000  0.12480000  1
  O  O125  1  0.56450000  0.63470000  0.93080000  1
  O  O126  1  0.30650000  0.88750000  0.89200000  1
  O  O127  1  0.63210000  0.16070000  0.43380000  1
  O  O128  1  0.19420000  0.77620000  0.58300000  1
  O  O129  1  0.84360000  0.87340000  0.30520000  1
  O  O130  1  0.00800000  0.31260000  0.89560000  1
  O  O131  1  0.16450000  0.13390000  0.87080000  1
  O  O132  1  0.86610000  0.83550000  0.12920000  1
  O  O133  1  0.68740000  0.99200000  0.10440000  1
  O  O134  1  0.12660000  0.15640000  0.69480000  1
  O  O135  1  0.22380000  0.80580000  0.41700000  1
  O  O136  1  0.83930000  0.36790000  0.56620000  1
  O  O137  1  0.11250000  0.69350000  0.10800000  1
  O  O138  1  0.36530000  0.43550000  0.06920000  1
  O  O139  1  0.08020000  0.52720000  0.87520000  1
  O  O140  1  0.09800000  0.04500000  0.37520000  1
  O  O141  1  0.38370000  0.95390000  0.56920000  1
  O  O142  1  0.16450000  0.24550000  0.60800000  1
  O  O143  1  0.94830000  0.97690000  0.06620000  1
  O  O144  1  0.36120000  0.44320000  0.91700000  1
  O  O145  1  0.28840000  0.81820000  0.19480000  1
  O  O146  1  0.86240000  0.66700000  0.60440000  1
  O  O147  1  0.04370000  0.51310000  0.62920000  1
  Sm  Sm148  1  0.97630000  0.59164000  0.52914000  1
  Sm  Sm149  1  0.68750000  0.80284000  0.02914000  1
  Sm  Sm150  1  0.19716000  0.31250000  0.97086000  1
  Sm  Sm151  1  0.40836000  0.02370000  0.47086000  1
