# generated using pymatgen
data_UH3(C2O)4
_symmetry_space_group_name_H-M   'P 1'
_cell_length_a   9.62210000
_cell_length_b   15.82740000
_cell_length_c   20.20220000
_cell_angle_alpha   96.85500000
_cell_angle_beta   90.00000000
_cell_angle_gamma   90.00000000
_symmetry_Int_Tables_number   1
_chemical_formula_structural   UH3(C2O)4
_chemical_formula_sum   'U8 H24 C64 O32'
_cell_volume   3054.65635133
_cell_formula_units_Z   8
loop_
 _symmetry_equiv_pos_site_id
 _symmetry_equiv_pos_as_xyz
  1  'x, y, z'
loop_
 _atom_site_type_symbol
 _atom_site_label
 _atom_site_symmetry_multiplicity
 _atom_site_fract_x
 _atom_site_fract_y
 _atom_site_fract_z
 _atom_site_occupancy
  U  U0  1  0.28330000  0.88561000  0.77564000  1
  U  U1  1  0.21670000  0.88561000  0.27564000  1
  U  U2  1  0.46825000  0.71588000  0.50769000  1
  U  U3  1  0.03175000  0.71588000  0.00769000  1
  U  U4  1  0.96825000  0.28412000  0.99231000  1
  U  U5  1  0.53175000  0.28412000  0.49231000  1
  U  U6  1  0.78330000  0.11439000  0.72436000  1
  U  U7  1  0.71670000  0.11439000  0.22436000  1
  H  H8  1  0.90110000  0.83690000  0.80780000  1
  H  H9  1  0.59890000  0.83690000  0.30780000  1
  H  H10  1  0.91170000  0.69090000  0.80210000  1
  H  H11  1  0.58830000  0.69090000  0.30210000  1
  H  H12  1  0.90680000  0.66970000  0.16930000  1
  H  H13  1  0.59320000  0.66970000  0.66930000  1
  H  H14  1  0.36730000  0.58750000  0.69190000  1
  H  H15  1  0.13270000  0.58750000  0.19190000  1
  H  H16  1  0.86590000  0.55920000  0.81470000  1
  H  H17  1  0.63410000  0.55920000  0.31470000  1
  H  H18  1  0.84440000  0.54620000  0.14050000  1
  H  H19  1  0.65560000  0.54620000  0.64050000  1
  H  H20  1  0.34440000  0.45380000  0.35950000  1
  H  H21  1  0.15560000  0.45380000  0.85950000  1
  H  H22  1  0.36590000  0.44080000  0.68530000  1
  H  H23  1  0.13410000  0.44080000  0.18530000  1
  H  H24  1  0.86730000  0.41250000  0.80810000  1
  H  H25  1  0.63270000  0.41250000  0.30810000  1
  H  H26  1  0.40680000  0.33030000  0.33070000  1
  H  H27  1  0.09320000  0.33030000  0.83070000  1
  H  H28  1  0.41170000  0.30910000  0.69790000  1
  H  H29  1  0.08830000  0.30910000  0.19790000  1
  H  H30  1  0.40110000  0.16310000  0.69220000  1
  H  H31  1  0.09890000  0.16310000  0.19220000  1
  C  C32  1  0.75660000  0.93650000  0.73650000  1
  C  C33  1  0.74340000  0.93650000  0.23650000  1
  C  C34  1  0.75450000  0.84210000  0.24040000  1
  C  C35  1  0.74550000  0.84210000  0.74040000  1
  C  C36  1  0.95770000  0.82640000  0.15680000  1
  C  C37  1  0.54230000  0.82640000  0.65680000  1
  C  C38  1  0.83970000  0.80300000  0.77890000  1
  C  C39  1  0.66030000  0.80300000  0.27890000  1
  C  C40  1  0.84880000  0.79210000  0.19900000  1
  C  C41  1  0.65120000  0.79210000  0.69900000  1
  C  C42  1  0.84530000  0.71630000  0.77590000  1
  C  C43  1  0.65470000  0.71630000  0.27590000  1
  C  C44  1  0.27200000  0.70510000  0.78260000  1
  C  C45  1  0.22800000  0.70510000  0.28260000  1
  C  C46  1  0.84310000  0.70360000  0.19690000  1
  C  C47  1  0.65690000  0.70360000  0.69690000  1
  C  C48  1  0.75300000  0.66360000  0.73410000  1
  C  C49  1  0.74700000  0.66360000  0.23410000  1
  C  C50  1  0.35430000  0.61610000  0.39440000  1
  C  C51  1  0.14570000  0.61610000  0.89440000  1
  C  C52  1  0.26720000  0.60990000  0.78120000  1
  C  C53  1  0.23280000  0.60990000  0.28120000  1
  C  C54  1  0.29660000  0.56990000  0.33180000  1
  C  C55  1  0.20340000  0.56990000  0.83180000  1
  C  C56  1  0.75790000  0.56940000  0.72860000  1
  C  C57  1  0.74210000  0.56940000  0.22860000  1
  C  C58  1  0.32550000  0.56060000  0.72650000  1
  C  C59  1  0.17450000  0.56060000  0.22650000  1
  C  C60  1  0.82290000  0.52670000  0.77770000  1
  C  C61  1  0.67710000  0.52670000  0.27770000  1
  C  C62  1  0.80040000  0.51910000  0.17450000  1
  C  C63  1  0.69960000  0.51910000  0.67450000  1
  C  C64  1  0.30040000  0.48090000  0.32550000  1
  C  C65  1  0.19960000  0.48090000  0.82550000  1
  C  C66  1  0.32290000  0.47330000  0.72230000  1
  C  C67  1  0.17710000  0.47330000  0.22230000  1
  C  C68  1  0.82550000  0.43940000  0.77350000  1
  C  C69  1  0.67450000  0.43940000  0.27350000  1
  C  C70  1  0.25790000  0.43060000  0.77140000  1
  C  C71  1  0.24210000  0.43060000  0.27140000  1
  C  C72  1  0.79660000  0.43010000  0.16820000  1
  C  C73  1  0.70340000  0.43010000  0.66820000  1
  C  C74  1  0.76720000  0.39010000  0.71880000  1
  C  C75  1  0.73280000  0.39010000  0.21880000  1
  C  C76  1  0.85430000  0.38390000  0.10560000  1
  C  C77  1  0.64570000  0.38390000  0.60560000  1
  C  C78  1  0.25300000  0.33640000  0.76590000  1
  C  C79  1  0.24700000  0.33640000  0.26590000  1
  C  C80  1  0.34310000  0.29640000  0.30310000  1
  C  C81  1  0.15690000  0.29640000  0.80310000  1
  C  C82  1  0.77200000  0.29490000  0.71740000  1
  C  C83  1  0.72800000  0.29490000  0.21740000  1
  C  C84  1  0.34530000  0.28370000  0.72410000  1
  C  C85  1  0.15470000  0.28370000  0.22410000  1
  C  C86  1  0.34880000  0.20790000  0.30100000  1
  C  C87  1  0.15120000  0.20790000  0.80100000  1
  C  C88  1  0.33970000  0.19700000  0.72110000  1
  C  C89  1  0.16030000  0.19700000  0.22110000  1
  C  C90  1  0.45770000  0.17360000  0.34320000  1
  C  C91  1  0.04230000  0.17360000  0.84320000  1
  C  C92  1  0.25450000  0.15790000  0.25960000  1
  C  C93  1  0.24550000  0.15790000  0.75960000  1
  C  C94  1  0.25660000  0.06350000  0.76350000  1
  C  C95  1  0.24340000  0.06350000  0.26350000  1
  O  O96  1  0.82260000  0.98370000  0.78080000  1
  O  O97  1  0.67740000  0.98370000  0.28080000  1
  O  O98  1  0.79460000  0.96710000  0.18720000  1
  O  O99  1  0.70540000  0.96710000  0.68720000  1
  O  O100  1  0.44020000  0.86600000  0.68070000  1
  O  O101  1  0.05980000  0.86600000  0.18070000  1
  O  O102  1  0.94020000  0.80920000  0.09310000  1
  O  O103  1  0.55980000  0.80920000  0.59310000  1
  O  O104  1  0.29680000  0.75260000  0.32540000  1
  O  O105  1  0.20320000  0.75260000  0.82540000  1
  O  O106  1  0.34570000  0.73580000  0.74000000  1
  O  O107  1  0.15430000  0.73580000  0.24000000  1
  O  O108  1  0.27590000  0.65160000  0.43880000  1
  O  O109  1  0.22410000  0.65160000  0.93880000  1
  O  O110  1  0.48500000  0.61590000  0.40460000  1
  O  O111  1  0.01500000  0.61590000  0.90460000  1
  O  O112  1  0.98500000  0.38410000  0.09540000  1
  O  O113  1  0.51500000  0.38410000  0.59540000  1
  O  O114  1  0.77590000  0.34840000  0.06120000  1
  O  O115  1  0.72410000  0.34840000  0.56120000  1
  O  O116  1  0.84570000  0.26420000  0.76000000  1
  O  O117  1  0.65430000  0.26420000  0.26000000  1
  O  O118  1  0.79680000  0.24740000  0.17460000  1
  O  O119  1  0.70320000  0.24740000  0.67460000  1
  O  O120  1  0.44020000  0.19080000  0.40690000  1
  O  O121  1  0.05980000  0.19080000  0.90690000  1
  O  O122  1  0.94020000  0.13400000  0.81930000  1
  O  O123  1  0.55980000  0.13400000  0.31930000  1
  O  O124  1  0.29460000  0.03290000  0.31280000  1
  O  O125  1  0.20540000  0.03290000  0.81280000  1
  O  O126  1  0.32260000  0.01630000  0.71920000  1
  O  O127  1  0.17740000  0.01630000  0.21920000  1
