# generated using pymatgen
data_AgH4C6NO2
_symmetry_space_group_name_H-M   'P 1'
_cell_length_a   7.16200000
_cell_length_b   19.74123290
_cell_length_c   19.74123290
_cell_angle_alpha   74.01438791
_cell_angle_beta   79.54885957
_cell_angle_gamma   79.54885957
_symmetry_Int_Tables_number   1
_chemical_formula_structural   AgH4C6NO2
_chemical_formula_sum   'Ag16 H64 C96 N16 O32'
_cell_volume   2613.07367300
_cell_formula_units_Z   16
loop_
 _symmetry_equiv_pos_site_id
 _symmetry_equiv_pos_as_xyz
  1  'x, y, z'
loop_
 _atom_site_type_symbol
 _atom_site_label
 _atom_site_symmetry_multiplicity
 _atom_site_fract_x
 _atom_site_fract_y
 _atom_site_fract_z
 _atom_site_occupancy
  Ag  Ag0  1  0.51583000  0.57289000  0.45871000  1
  Ag  Ag1  1  0.01583000  0.45871000  0.57289000  1
  Ag  Ag2  1  0.54743000  0.04129000  0.92711000  1
  Ag  Ag3  1  0.04743000  0.92711000  0.04129000  1
  Ag  Ag4  1  0.98611000  0.43921000  0.97929000  1
  Ag  Ag5  1  0.48611000  0.97929000  0.43921000  1
  Ag  Ag6  1  0.40461000  0.52071000  0.06079000  1
  Ag  Ag7  1  0.90461000  0.06079000  0.52071000  1
  Ag  Ag8  1  0.51389000  0.02071000  0.56079000  1
  Ag  Ag9  1  0.01389000  0.56079000  0.02071000  1
  Ag  Ag10  1  0.09539000  0.93921000  0.47929000  1
  Ag  Ag11  1  0.59539000  0.47929000  0.93921000  1
  Ag  Ag12  1  0.98417000  0.54129000  0.42711000  1
  Ag  Ag13  1  0.48417000  0.42711000  0.54129000  1
  Ag  Ag14  1  0.95257000  0.07289000  0.95871000  1
  Ag  Ag15  1  0.45257000  0.95871000  0.07289000  1
  C  C16  1  0.35650000  0.78640000  0.50280000  1
  C  C17  1  0.85650000  0.50280000  0.78640000  1
  C  C18  1  0.64570000  0.99720000  0.71360000  1
  C  C19  1  0.14570000  0.71360000  0.99720000  1
  C  C20  1  0.15762000  0.96398000  0.74918000  1
  C  C21  1  0.65762000  0.74918000  0.96398000  1
  C  C22  1  0.87078000  0.75082000  0.53602000  1
  C  C23  1  0.37078000  0.53602000  0.75082000  1
  C  C24  1  0.21898000  0.92612000  0.69732000  1
  C  C25  1  0.71898000  0.69732000  0.92612000  1
  C  C26  1  0.84242000  0.80268000  0.57388000  1
  C  C27  1  0.34242000  0.57388000  0.80268000  1
  C  C28  1  0.43770000  0.71900000  0.49560000  1
  C  C29  1  0.93770000  0.49560000  0.71900000  1
  C  C30  1  0.65230000  0.00440000  0.78100000  1
  C  C31  1  0.15230000  0.78100000  0.00440000  1
  C  C32  1  0.77530000  0.45370000  0.12630000  1
  C  C33  1  0.27530000  0.12630000  0.45370000  1
  C  C34  1  0.35530000  0.37370000  0.04630000  1
  C  C35  1  0.85530000  0.04630000  0.37370000  1
  C  C36  1  0.15710000  0.97910000  0.87130000  1
  C  C37  1  0.65710000  0.87130000  0.97910000  1
  C  C38  1  0.00750000  0.62870000  0.52090000  1
  C  C39  1  0.50750000  0.52090000  0.62870000  1
  C  C40  1  0.22740000  0.94070000  0.81430000  1
  C  C41  1  0.72740000  0.81430000  0.94070000  1
  C  C42  1  0.98240000  0.68570000  0.55930000  1
  C  C43  1  0.48240000  0.55930000  0.68570000  1
  C  C44  1  0.05632000  0.23828000  0.89468000  1
  C  C45  1  0.55632000  0.89468000  0.23828000  1
  C  C46  1  0.18928000  0.60532000  0.26172000  1
  C  C47  1  0.68928000  0.26172000  0.60532000  1
  C  C48  1  0.35240000  0.86480000  0.71080000  1
  C  C49  1  0.85240000  0.71080000  0.86480000  1
  C  C50  1  0.92800000  0.78920000  0.63520000  1
  C  C51  1  0.42800000  0.63520000  0.78920000  1
  C  C52  1  0.06549000  0.30541000  0.90061000  1
  C  C53  1  0.56549000  0.90061000  0.30541000  1
  C  C54  1  0.27151000  0.59939000  0.19459000  1
  C  C55  1  0.77151000  0.19459000  0.59939000  1
  C  C56  1  0.36250000  0.87990000  0.82550000  1
  C  C57  1  0.86250000  0.82550000  0.87990000  1
  C  C58  1  0.06790000  0.67450000  0.62010000  1
  C  C59  1  0.56790000  0.62010000  0.67450000  1
  C  C60  1  0.42360000  0.84240000  0.77520000  1
  C  C61  1  0.92360000  0.77520000  0.84240000  1
  C  C62  1  0.04120000  0.72480000  0.65760000  1
  C  C63  1  0.54120000  0.65760000  0.72480000  1
  C  C64  1  0.07640000  0.22480000  0.15760000  1
  C  C65  1  0.57640000  0.15760000  0.22480000  1
  C  C66  1  0.45880000  0.34240000  0.27520000  1
  C  C67  1  0.95880000  0.27520000  0.34240000  1
  C  C68  1  0.13750000  0.17450000  0.12010000  1
  C  C69  1  0.63750000  0.12010000  0.17450000  1
  C  C70  1  0.43210000  0.37990000  0.32550000  1
  C  C71  1  0.93210000  0.32550000  0.37990000  1
  C  C72  1  0.43451000  0.09939000  0.69459000  1
  C  C73  1  0.93451000  0.69459000  0.09939000  1
  C  C74  1  0.22849000  0.80541000  0.40061000  1
  C  C75  1  0.72849000  0.40061000  0.80541000  1
  C  C76  1  0.14760000  0.28920000  0.13520000  1
  C  C77  1  0.64760000  0.13520000  0.28920000  1
  C  C78  1  0.57200000  0.36480000  0.21080000  1
  C  C79  1  0.07200000  0.21080000  0.36480000  1
  C  C80  1  0.44368000  0.10532000  0.76172000  1
  C  C81  1  0.94368000  0.76172000  0.10532000  1
  C  C82  1  0.31072000  0.73828000  0.39468000  1
  C  C83  1  0.81072000  0.39468000  0.73828000  1
  C  C84  1  0.27260000  0.18570000  0.05930000  1
  C  C85  1  0.77260000  0.05930000  0.18570000  1
  C  C86  1  0.51760000  0.44070000  0.31430000  1
  C  C87  1  0.01760000  0.31430000  0.44070000  1
  C  C88  1  0.34290000  0.12870000  0.02090000  1
  C  C89  1  0.84290000  0.02090000  0.12870000  1
  C  C90  1  0.49250000  0.47910000  0.37130000  1
  C  C91  1  0.99250000  0.37130000  0.47910000  1
  C  C92  1  0.72470000  0.87370000  0.54630000  1
  C  C93  1  0.22470000  0.54630000  0.87370000  1
  C  C94  1  0.14470000  0.95370000  0.62630000  1
  C  C95  1  0.64470000  0.62630000  0.95370000  1
  C  C96  1  0.06230000  0.50440000  0.28100000  1
  C  C97  1  0.56230000  0.28100000  0.50440000  1
  C  C98  1  0.84770000  0.21900000  0.99560000  1
  C  C99  1  0.34770000  0.99560000  0.21900000  1
  C  C100  1  0.28102000  0.30268000  0.07388000  1
  C  C101  1  0.78102000  0.07388000  0.30268000  1
  C  C102  1  0.65758000  0.42612000  0.19732000  1
  C  C103  1  0.15758000  0.19732000  0.42612000  1
  C  C104  1  0.34238000  0.25082000  0.03602000  1
  C  C105  1  0.84238000  0.03602000  0.25082000  1
  C  C106  1  0.62922000  0.46398000  0.24918000  1
  C  C107  1  0.12922000  0.24918000  0.46398000  1
  C  C108  1  0.14350000  0.49720000  0.21360000  1
  C  C109  1  0.64350000  0.21360000  0.49720000  1
  C  C110  1  0.85430000  0.28640000  0.00280000  1
  C  C111  1  0.35430000  0.00280000  0.28640000  1
  H  H112  1  0.37670000  0.80170000  0.54210000  1
  H  H113  1  0.87670000  0.54210000  0.80170000  1
  H  H114  1  0.72050000  0.95790000  0.69830000  1
  H  H115  1  0.22050000  0.69830000  0.95790000  1
  H  H116  1  0.68640000  0.50600000  0.24000000  1
  H  H117  1  0.18640000  0.24000000  0.50600000  1
  H  H118  1  0.43240000  0.26000000  0.99400000  1
  H  H119  1  0.93240000  0.99400000  0.26000000  1
  H  H120  1  0.51310000  0.68950000  0.53030000  1
  H  H121  1  0.01310000  0.53030000  0.68950000  1
  H  H122  1  0.73290000  0.96970000  0.81050000  1
  H  H123  1  0.23290000  0.81050000  0.96970000  1
  H  H124  1  0.39440000  0.83830000  0.67590000  1
  H  H125  1  0.89440000  0.67590000  0.83830000  1
  H  H126  1  0.90860000  0.82410000  0.66170000  1
  H  H127  1  0.40860000  0.66170000  0.82410000  1
  H  H128  1  0.12940000  0.22290000  0.85510000  1
  H  H129  1  0.62940000  0.85510000  0.22290000  1
  H  H130  1  0.20740000  0.64490000  0.27710000  1
  H  H131  1  0.70740000  0.27710000  0.64490000  1
  H  H132  1  0.98490000  0.21560000  0.19920000  1
  H  H133  1  0.48490000  0.19920000  0.21560000  1
  H  H134  1  0.39970000  0.30080000  0.28440000  1
  H  H135  1  0.89970000  0.28440000  0.30080000  1
  H  H136  1  0.85300000  0.36930000  0.36430000  1
  H  H137  1  0.35300000  0.36430000  0.36930000  1
  H  H138  1  0.58660000  0.13570000  0.13070000  1
  H  H139  1  0.08660000  0.13070000  0.13570000  1
  H  H140  1  0.14520000  0.33490000  0.86530000  1
  H  H141  1  0.64520000  0.86530000  0.33490000  1
  H  H142  1  0.34540000  0.63470000  0.16510000  1
  H  H143  1  0.84540000  0.16510000  0.63470000  1
  H  H144  1  0.35480000  0.13470000  0.66510000  1
  H  H145  1  0.85480000  0.66510000  0.13470000  1
  H  H146  1  0.15460000  0.83490000  0.36530000  1
  H  H147  1  0.65460000  0.36530000  0.83490000  1
  H  H148  1  0.64700000  0.63570000  0.63070000  1
  H  H149  1  0.14700000  0.63070000  0.63570000  1
  H  H150  1  0.91340000  0.86930000  0.86430000  1
  H  H151  1  0.41340000  0.86430000  0.86930000  1
  H  H152  1  0.51510000  0.80080000  0.78440000  1
  H  H153  1  0.01510000  0.78440000  0.80080000  1
  H  H154  1  0.10030000  0.71560000  0.69920000  1
  H  H155  1  0.60030000  0.69920000  0.71560000  1
  H  H156  1  0.37060000  0.14490000  0.77710000  1
  H  H157  1  0.87060000  0.77710000  0.14490000  1
  H  H158  1  0.29260000  0.72290000  0.35510000  1
  H  H159  1  0.79260000  0.35510000  0.72290000  1
  H  H160  1  0.10560000  0.32410000  0.16170000  1
  H  H161  1  0.60560000  0.16170000  0.32410000  1
  H  H162  1  0.59140000  0.33830000  0.17590000  1
  H  H163  1  0.09140000  0.17590000  0.33830000  1
  H  H164  1  0.98690000  0.46970000  0.31050000  1
  H  H165  1  0.48690000  0.31050000  0.46970000  1
  H  H166  1  0.76710000  0.18950000  0.03030000  1
  H  H167  1  0.26710000  0.03030000  0.18950000  1
  H  H168  1  0.81360000  0.76000000  0.49400000  1
  H  H169  1  0.31360000  0.49400000  0.76000000  1
  H  H170  1  0.06760000  0.00600000  0.74000000  1
  H  H171  1  0.56760000  0.74000000  0.00600000  1
  H  H172  1  0.12330000  0.45790000  0.19830000  1
  H  H173  1  0.62330000  0.19830000  0.45790000  1
  H  H174  1  0.77950000  0.30170000  0.04210000  1
  H  H175  1  0.27950000  0.04210000  0.30170000  1
  N  N176  1  0.94843000  0.19417000  0.94257000  1
  N  N177  1  0.44843000  0.94257000  0.19417000  1
  N  N178  1  0.08517000  0.55743000  0.30583000  1
  N  N179  1  0.58517000  0.30583000  0.55743000  1
  N  N180  1  0.96505000  0.33007000  0.95483000  1
  N  N181  1  0.46505000  0.95483000  0.33007000  1
  N  N182  1  0.24995000  0.54517000  0.16993000  1
  N  N183  1  0.74995000  0.16993000  0.54517000  1
  N  N184  1  0.53495000  0.04517000  0.66993000  1
  N  N185  1  0.03495000  0.66993000  0.04517000  1
  N  N186  1  0.25005000  0.83007000  0.45483000  1
  N  N187  1  0.75005000  0.45483000  0.83007000  1
  N  N188  1  0.55157000  0.05743000  0.80583000  1
  N  N189  1  0.05157000  0.80583000  0.05743000  1
  N  N190  1  0.41483000  0.69417000  0.44257000  1
  N  N191  1  0.91483000  0.44257000  0.69417000  1
  O  O192  1  0.57105000  0.53472000  0.35878000  1
  O  O193  1  0.07105000  0.35878000  0.53472000  1
  O  O194  1  0.46455000  0.14122000  0.96528000  1
  O  O195  1  0.96455000  0.96528000  0.14122000  1
  O  O196  1  0.79755000  0.41621000  0.08209000  1
  O  O197  1  0.29755000  0.08209000  0.41621000  1
  O  O198  1  0.29585000  0.41791000  0.08379000  1
  O  O199  1  0.79585000  0.08379000  0.41791000  1
  O  O200  1  0.84080000  0.51001000  0.11819000  1
  O  O201  1  0.34080000  0.11819000  0.51001000  1
  O  O202  1  0.46900000  0.38181000  0.98999000  1
  O  O203  1  0.96900000  0.98999000  0.38181000  1
  O  O204  1  0.21884000  0.95270000  0.93042000  1
  O  O205  1  0.71884000  0.93042000  0.95270000  1
  O  O206  1  0.10196000  0.56958000  0.54730000  1
  O  O207  1  0.60196000  0.54730000  0.56958000  1
  O  O208  1  0.28116000  0.06958000  0.04730000  1
  O  O209  1  0.78116000  0.04730000  0.06958000  1
  O  O210  1  0.39804000  0.45270000  0.43042000  1
  O  O211  1  0.89804000  0.43042000  0.45270000  1
  O  O212  1  0.65920000  0.88181000  0.48999000  1
  O  O213  1  0.15920000  0.48999000  0.88181000  1
  O  O214  1  0.03100000  0.01001000  0.61819000  1
  O  O215  1  0.53100000  0.61819000  0.01001000  1
  O  O216  1  0.70245000  0.91791000  0.58379000  1
  O  O217  1  0.20245000  0.58379000  0.91791000  1
  O  O218  1  0.20415000  0.91621000  0.58209000  1
  O  O219  1  0.70415000  0.58209000  0.91621000  1
  O  O220  1  0.92895000  0.64122000  0.46528000  1
  O  O221  1  0.42895000  0.46528000  0.64122000  1
  O  O222  1  0.03545000  0.03472000  0.85878000  1
  O  O223  1  0.53545000  0.85878000  0.03472000  1
