# generated using pymatgen
data_CrGa3P4H26C8(N3O8)2
_symmetry_space_group_name_H-M   'P 1'
_cell_length_a   13.44700000
_cell_length_b   14.40743549
_cell_length_c   14.40743549
_cell_angle_alpha   110.78201556
_cell_angle_beta   108.12628794
_cell_angle_gamma   108.12628794
_symmetry_Int_Tables_number   1
_chemical_formula_structural   CrGa3P4H26C8(N3O8)2
_chemical_formula_sum   'Cr3 Ga9 P12 H78 C24 N18 O48'
_cell_volume   2183.32136799
_cell_formula_units_Z   3
loop_
 _symmetry_equiv_pos_site_id
 _symmetry_equiv_pos_as_xyz
  1  'x, y, z'
loop_
 _atom_site_type_symbol
 _atom_site_label
 _atom_site_symmetry_multiplicity
 _atom_site_fract_x
 _atom_site_fract_y
 _atom_site_fract_z
 _atom_site_occupancy
  C  C0  1  0.16530000  0.59750000  0.55660000  1
  C  C1  1  0.91840000  0.59240000  0.61260000  1
  C  C2  1  0.20020000  0.98150000  0.32690000  1
  C  C3  1  0.60080000  0.98890000  0.32380000  1
  C  C4  1  0.87330000  0.67310000  0.65460000  1
  C  C5  1  0.27700000  0.67620000  0.66510000  1
  C  C6  1  0.61190000  0.33490000  0.01110000  1
  C  C7  1  0.56780000  0.95910000  0.40250000  1
  C  C8  1  0.21870000  0.34540000  0.01850000  1
  C  C9  1  0.30580000  0.38740000  0.97980000  1
  C  C10  1  0.32600000  0.02020000  0.40760000  1
  C  C11  1  0.60870000  0.44340000  0.04090000  1
  C  C12  1  0.39130000  0.55660000  0.95910000  1
  C  C13  1  0.67400000  0.97980000  0.59240000  1
  C  C14  1  0.69420000  0.61260000  0.02020000  1
  C  C15  1  0.78130000  0.65460000  0.98150000  1
  C  C16  1  0.43220000  0.04090000  0.59750000  1
  C  C17  1  0.38810000  0.66510000  0.98890000  1
  C  C18  1  0.72300000  0.32380000  0.33490000  1
  C  C19  1  0.12670000  0.32690000  0.34540000  1
  C  C20  1  0.39920000  0.01110000  0.67620000  1
  C  C21  1  0.79980000  0.01850000  0.67310000  1
  C  C22  1  0.08160000  0.40760000  0.38740000  1
  C  C23  1  0.83470000  0.40250000  0.44340000  1
  Cr  Cr24  1  0.26477000  0.45732000  0.59271000  1
  Cr  Cr25  1  0.67206000  0.40729000  0.86461000  1
  Cr  Cr26  1  0.80745000  0.13539000  0.54268000  1
  Ga  Ga27  1  0.48063000  0.62720000  0.45304000  1
  Ga  Ga28  1  0.85343000  0.82584000  0.37280000  1
  Ga  Ga29  1  0.97241000  0.45304000  0.82584000  1
  Ga  Ga30  1  0.19255000  0.86461000  0.45732000  1
  Ga  Ga31  1  0.02759000  0.54696000  0.17416000  1
  Ga  Ga32  1  0.32794000  0.59271000  0.13539000  1
  Ga  Ga33  1  0.14657000  0.17416000  0.62720000  1
  Ga  Ga34  1  0.51937000  0.37280000  0.54696000  1
  Ga  Ga35  1  0.73523000  0.54268000  0.40729000  1
  H  H36  1  0.77290000  0.46300000  0.54610000  1
  H  H37  1  0.11610000  0.82710000  0.25660000  1
  H  H38  1  0.51790000  0.23970000  0.85070000  1
  H  H39  1  0.62950000  0.22730000  0.88560000  1
  H  H40  1  0.13380000  0.63310000  0.51260000  1
  H  H41  1  0.10880000  0.57030000  0.58050000  1
  H  H42  1  0.03570000  0.85980000  0.30040000  1
  H  H43  1  0.97900000  0.62480000  0.59100000  1
  H  H44  1  0.19670000  0.96920000  0.25490000  1
  H  H45  1  0.63170000  0.93400000  0.29350000  1
  H  H46  1  0.27170000  0.33190000  0.90300000  1
  H  H47  1  0.93980000  0.57110000  0.66810000  1
  H  H48  1  0.50070000  0.87950000  0.36690000  1
  H  H49  1  0.54870000  0.98560000  0.26200000  1
  H  H50  1  0.73530000  0.69960000  0.55940000  1
  H  H51  1  0.56310000  0.27640000  0.01440000  1
  H  H52  1  0.14720000  0.33100000  0.97260000  1
  H  H53  1  0.81620000  0.64160000  0.66900000  1
  H  H54  1  0.85950000  0.74340000  0.57050000  1
  H  H55  1  0.22750000  0.28570000  0.03080000  1
  H  H56  1  0.35420000  0.96620000  0.37520000  1
  H  H57  1  0.33820000  0.70650000  0.64050000  1
  H  H58  1  0.22680000  0.45390000  0.91690000  1
  H  H59  1  0.27820000  0.61100000  0.76030000  1
  H  H60  1  0.69010000  0.91690000  0.46300000  1
  H  H61  1  0.17460000  0.02740000  0.35840000  1
  H  H62  1  0.37880000  0.51260000  0.87950000  1
  H  H63  1  0.71100000  0.57050000  0.82710000  1
  H  H64  1  0.52830000  0.41950000  0.98980000  1
  H  H65  1  0.82410000  0.55940000  0.85980000  1
  H  H66  1  0.69770000  0.35950000  0.06600000  1
  H  H67  1  0.40220000  0.65830000  0.77270000  1
  H  H68  1  0.53850000  0.01020000  0.42970000  1
  H  H69  1  0.38800000  0.40900000  0.03380000  1
  H  H70  1  0.74390000  0.11440000  0.34170000  1
  H  H71  1  0.94180000  0.74510000  0.71430000  1
  H  H72  1  0.28670000  0.73800000  0.72360000  1
  H  H73  1  0.33280000  0.85070000  0.61100000  1
  H  H74  1  0.63130000  0.90300000  0.57110000  1
  H  H75  1  0.36870000  0.09700000  0.42890000  1
  H  H76  1  0.66720000  0.14930000  0.38900000  1
  H  H77  1  0.71330000  0.26200000  0.27640000  1
  H  H78  1  0.05820000  0.25490000  0.28570000  1
  H  H79  1  0.25610000  0.88560000  0.65830000  1
  H  H80  1  0.61200000  0.59100000  0.96620000  1
  H  H81  1  0.46150000  0.98980000  0.57030000  1
  H  H82  1  0.59780000  0.34170000  0.22730000  1
  H  H83  1  0.30230000  0.64050000  0.93400000  1
  H  H84  1  0.17590000  0.44060000  0.14020000  1
  H  H85  1  0.47170000  0.58050000  0.01020000  1
  H  H86  1  0.28900000  0.42950000  0.17290000  1
  H  H87  1  0.62120000  0.48740000  0.12050000  1
  H  H88  1  0.82540000  0.97260000  0.64160000  1
  H  H89  1  0.30990000  0.08310000  0.53700000  1
  H  H90  1  0.72180000  0.38900000  0.23970000  1
  H  H91  1  0.77320000  0.54610000  0.08310000  1
  H  H92  1  0.66180000  0.29350000  0.35950000  1
  H  H93  1  0.64580000  0.03380000  0.62480000  1
  H  H94  1  0.77250000  0.71430000  0.96920000  1
  H  H95  1  0.14050000  0.25660000  0.42950000  1
  H  H96  1  0.18380000  0.35840000  0.33100000  1
  H  H97  1  0.85280000  0.66900000  0.02740000  1
  H  H98  1  0.43690000  0.72360000  0.98560000  1
  H  H99  1  0.26470000  0.30040000  0.44060000  1
  H  H100  1  0.45130000  0.01440000  0.73800000  1
  H  H101  1  0.49930000  0.12050000  0.63310000  1
  H  H102  1  0.06020000  0.42890000  0.33190000  1
  H  H103  1  0.72830000  0.66810000  0.09700000  1
  H  H104  1  0.36830000  0.06600000  0.70650000  1
  H  H105  1  0.80330000  0.03080000  0.74510000  1
  H  H106  1  0.02100000  0.37520000  0.40900000  1
  H  H107  1  0.96430000  0.14020000  0.69960000  1
  H  H108  1  0.89120000  0.42970000  0.41950000  1
  H  H109  1  0.86620000  0.36690000  0.48740000  1
  H  H110  1  0.37050000  0.77270000  0.11440000  1
  H  H111  1  0.48210000  0.76030000  0.14930000  1
  H  H112  1  0.88390000  0.17290000  0.74340000  1
  H  H113  1  0.22710000  0.53700000  0.45390000  1
  N  N114  1  0.81660000  0.49210000  0.51040000  1
  N  N115  1  0.59390000  0.28030000  0.89380000  1
  N  N116  1  0.12200000  0.87370000  0.31380000  1
  N  N117  1  0.80820000  0.68620000  0.55990000  1
  N  N118  1  0.31360000  0.61350000  0.71970000  1
  N  N119  1  0.75170000  0.55990000  0.87370000  1
  N  N120  1  0.30620000  0.48960000  0.98170000  1
  N  N121  1  0.67550000  0.98170000  0.49210000  1
  N  N122  1  0.70010000  0.10620000  0.38650000  1
  N  N123  1  0.29990000  0.89380000  0.61350000  1
  N  N124  1  0.32450000  0.01830000  0.50790000  1
  N  N125  1  0.69380000  0.51040000  0.01830000  1
  N  N126  1  0.24830000  0.44010000  0.12630000  1
  N  N127  1  0.68640000  0.38650000  0.28030000  1
  N  N128  1  0.19180000  0.31380000  0.44010000  1
  N  N129  1  0.87800000  0.12630000  0.68620000  1
  N  N130  1  0.40610000  0.71970000  0.10620000  1
  N  N131  1  0.18340000  0.50790000  0.48960000  1
  O  O132  1  0.88173000  0.71403000  0.29456000  1
  O  O133  1  0.11816000  0.40146000  0.60822000  1
  O  O134  1  0.65003000  0.31124000  0.72155000  1
  O  O135  1  0.33879000  0.41031000  0.68876000  1
  O  O136  1  0.40409000  0.52370000  0.57727000  1
  O  O137  1  0.69336000  0.77551000  0.32627000  1
  O  O138  1  0.36709000  0.67373000  0.44924000  1
  O  O139  1  0.58717000  0.70544000  0.41947000  1
  O  O140  1  0.07152000  0.72155000  0.41031000  1
  O  O141  1  0.80120000  0.22699000  0.90601000  1
  O  O142  1  0.83230000  0.41947000  0.71403000  1
  O  O143  1  0.59720000  0.52313000  0.65017000  1
  O  O144  1  0.50994000  0.39178000  0.79324000  1
  O  O145  1  0.28330000  0.79324000  0.40146000  1
  O  O146  1  0.94703000  0.34983000  0.87296000  1
  O  O147  1  0.08215000  0.44924000  0.77551000  1
  O  O148  1  0.90978000  0.92854000  0.33160000  1
  O  O149  1  0.57818000  0.66840000  0.59694000  1
  O  O150  1  0.82682000  0.42273000  0.94643000  1
  O  O151  1  0.92593000  0.87296000  0.52313000  1
  O  O152  1  0.89519000  0.09399000  0.32098000  1
  O  O153  1  0.57421000  0.67902000  0.77301000  1
  O  O154  1  0.11961000  0.94643000  0.52370000  1
  O  O155  1  0.98124000  0.40306000  0.07146000  1
  O  O156  1  0.01876000  0.59694000  0.92854000  1
  O  O157  1  0.88039000  0.05357000  0.47630000  1
  O  O158  1  0.42579000  0.32098000  0.22699000  1
  O  O159  1  0.10481000  0.90601000  0.67902000  1
  O  O160  1  0.07407000  0.12704000  0.47687000  1
  O  O161  1  0.17318000  0.57727000  0.05357000  1
  O  O162  1  0.42182000  0.33160000  0.40306000  1
  O  O163  1  0.09022000  0.07146000  0.66840000  1
  O  O164  1  0.91785000  0.55076000  0.22449000  1
  O  O165  1  0.05297000  0.65017000  0.12704000  1
  O  O166  1  0.71670000  0.20676000  0.59854000  1
  O  O167  1  0.49006000  0.60822000  0.20676000  1
  O  O168  1  0.40280000  0.47687000  0.34983000  1
  O  O169  1  0.16770000  0.58053000  0.28597000  1
  O  O170  1  0.19880000  0.77301000  0.09399000  1
  O  O171  1  0.92848000  0.27845000  0.58969000  1
  O  O172  1  0.41283000  0.29456000  0.58053000  1
  O  O173  1  0.63291000  0.32627000  0.55076000  1
  O  O174  1  0.30664000  0.22449000  0.67373000  1
  O  O175  1  0.59591000  0.47630000  0.42273000  1
  O  O176  1  0.66121000  0.58969000  0.31124000  1
  O  O177  1  0.34997000  0.68876000  0.27845000  1
  O  O178  1  0.88184000  0.59854000  0.39178000  1
  O  O179  1  0.11827000  0.28597000  0.70544000  1
  P  P180  1  0.06178000  0.35260000  0.66638000  1
  P  P181  1  0.39540000  0.33362000  0.68622000  1
  P  P182  1  0.29082000  0.68622000  0.35260000  1
  P  P183  1  0.53793000  0.60149000  0.65482000  1
  P  P184  1  0.88311000  0.34518000  0.94667000  1
  P  P185  1  0.93644000  0.05333000  0.39851000  1
  P  P186  1  0.06356000  0.94667000  0.60149000  1
  P  P187  1  0.11689000  0.65482000  0.05333000  1
  P  P188  1  0.46207000  0.39851000  0.34518000  1
  P  P189  1  0.70918000  0.31378000  0.64740000  1
  P  P190  1  0.60460000  0.66638000  0.31378000  1
  P  P191  1  0.93822000  0.64740000  0.33362000  1
