# generated using pymatgen
data_SmAgH8C18(NO2)4
_symmetry_space_group_name_H-M   'P 1'
_cell_length_a   8.59550000
_cell_length_b   17.82200000
_cell_length_c   25.36300000
_cell_angle_alpha   90.00000000
_cell_angle_beta   90.00000000
_cell_angle_gamma   90.00000000
_symmetry_Int_Tables_number   1
_chemical_formula_structural   SmAgH8C18(NO2)4
_chemical_formula_sum   'Sm8 Ag8 H64 C144 N32 O64'
_cell_volume   3885.33263236
_cell_formula_units_Z   8
loop_
 _symmetry_equiv_pos_site_id
 _symmetry_equiv_pos_as_xyz
  1  'x, y, z'
loop_
 _atom_site_type_symbol
 _atom_site_label
 _atom_site_symmetry_multiplicity
 _atom_site_fract_x
 _atom_site_fract_y
 _atom_site_fract_z
 _atom_site_occupancy
  Sm  Sm0  1  0.83696000  0.21637000  0.97613000  1
  Sm  Sm1  1  0.83696000  0.71637000  0.52387000  1
  Sm  Sm2  1  0.66304000  0.71637000  0.97613000  1
  Sm  Sm3  1  0.66304000  0.21637000  0.52387000  1
  Sm  Sm4  1  0.33696000  0.78363000  0.47613000  1
  Sm  Sm5  1  0.33696000  0.28363000  0.02387000  1
  Sm  Sm6  1  0.16304000  0.28363000  0.47613000  1
  Sm  Sm7  1  0.16304000  0.78363000  0.02387000  1
  Ag  Ag8  1  0.96100000  0.54946000  0.27343000  1
  Ag  Ag9  1  0.96100000  0.04946000  0.22657000  1
  Ag  Ag10  1  0.53900000  0.04946000  0.27343000  1
  Ag  Ag11  1  0.53900000  0.54946000  0.22657000  1
  Ag  Ag12  1  0.46100000  0.45054000  0.77343000  1
  Ag  Ag13  1  0.46100000  0.95054000  0.72657000  1
  Ag  Ag14  1  0.03900000  0.95054000  0.77343000  1
  Ag  Ag15  1  0.03900000  0.45054000  0.72657000  1
  H  H16  1  0.96690000  0.49090000  0.95420000  1
  H  H17  1  0.96690000  0.99090000  0.54580000  1
  H  H18  1  0.94450000  0.59960000  0.79300000  1
  H  H19  1  0.94450000  0.09960000  0.70700000  1
  H  H20  1  0.92900000  0.15090000  0.40330000  1
  H  H21  1  0.92900000  0.65090000  0.09670000  1
  H  H22  1  0.89840000  0.41930000  0.36040000  1
  H  H23  1  0.89840000  0.91930000  0.13960000  1
  H  H24  1  0.88090000  0.99660000  0.93060000  1
  H  H25  1  0.88090000  0.49660000  0.56940000  1
  H  H26  1  0.81650000  0.33940000  0.79720000  1
  H  H27  1  0.81650000  0.83940000  0.70280000  1
  H  H28  1  0.78100000  0.60840000  0.86750000  1
  H  H29  1  0.78100000  0.10840000  0.63250000  1
  H  H30  1  0.75300000  0.17400000  0.33750000  1
  H  H31  1  0.75300000  0.67400000  0.16250000  1
  H  H32  1  0.74700000  0.67400000  0.33750000  1
  H  H33  1  0.74700000  0.17400000  0.16250000  1
  H  H34  1  0.71900000  0.10840000  0.86750000  1
  H  H35  1  0.71900000  0.60840000  0.63250000  1
  H  H36  1  0.68350000  0.83940000  0.79720000  1
  H  H37  1  0.68350000  0.33940000  0.70280000  1
  H  H38  1  0.61910000  0.49660000  0.93060000  1
  H  H39  1  0.61910000  0.99660000  0.56940000  1
  H  H40  1  0.60160000  0.91930000  0.36040000  1
  H  H41  1  0.60160000  0.41930000  0.13960000  1
  H  H42  1  0.57100000  0.65090000  0.40330000  1
  H  H43  1  0.57100000  0.15090000  0.09670000  1
  H  H44  1  0.55550000  0.09960000  0.79300000  1
  H  H45  1  0.55550000  0.59960000  0.70700000  1
  H  H46  1  0.53310000  0.99090000  0.95420000  1
  H  H47  1  0.53310000  0.49090000  0.54580000  1
  H  H48  1  0.46690000  0.50910000  0.45420000  1
  H  H49  1  0.46690000  0.00910000  0.04580000  1
  H  H50  1  0.44450000  0.40040000  0.29300000  1
  H  H51  1  0.44450000  0.90040000  0.20700000  1
  H  H52  1  0.42900000  0.84910000  0.90330000  1
  H  H53  1  0.42900000  0.34910000  0.59670000  1
  H  H54  1  0.39840000  0.58070000  0.86040000  1
  H  H55  1  0.39840000  0.08070000  0.63960000  1
  H  H56  1  0.38090000  0.00340000  0.43060000  1
  H  H57  1  0.38090000  0.50340000  0.06940000  1
  H  H58  1  0.31650000  0.66060000  0.29720000  1
  H  H59  1  0.31650000  0.16060000  0.20280000  1
  H  H60  1  0.28100000  0.39160000  0.36750000  1
  H  H61  1  0.28100000  0.89160000  0.13250000  1
  H  H62  1  0.25300000  0.82600000  0.83750000  1
  H  H63  1  0.25300000  0.32600000  0.66250000  1
  H  H64  1  0.24700000  0.32600000  0.83750000  1
  H  H65  1  0.24700000  0.82600000  0.66250000  1
  H  H66  1  0.21900000  0.89160000  0.36750000  1
  H  H67  1  0.21900000  0.39160000  0.13250000  1
  H  H68  1  0.18350000  0.16060000  0.29720000  1
  H  H69  1  0.18350000  0.66060000  0.20280000  1
  H  H70  1  0.11910000  0.50340000  0.43060000  1
  H  H71  1  0.11910000  0.00340000  0.06940000  1
  H  H72  1  0.10160000  0.08070000  0.86040000  1
  H  H73  1  0.10160000  0.58070000  0.63960000  1
  H  H74  1  0.07100000  0.34910000  0.90330000  1
  H  H75  1  0.07100000  0.84910000  0.59670000  1
  H  H76  1  0.05550000  0.90040000  0.29300000  1
  H  H77  1  0.05550000  0.40040000  0.20700000  1
  H  H78  1  0.03310000  0.00910000  0.45420000  1
  H  H79  1  0.03310000  0.50910000  0.04580000  1
  C  C80  1  0.99030000  0.87250000  0.48158000  1
  C  C81  1  0.99030000  0.37250000  0.01842000  1
  C  C82  1  0.94950000  0.85550000  0.95178000  1
  C  C83  1  0.94950000  0.35550000  0.54822000  1
  C  C84  1  0.94550000  0.99140000  0.43667000  1
  C  C85  1  0.94550000  0.49140000  0.06333000  1
  C  C86  1  0.89450000  0.91820000  0.44333000  1
  C  C87  1  0.89450000  0.41820000  0.05667000  1
  C  C88  1  0.89410000  0.55910000  0.80849000  1
  C  C89  1  0.89410000  0.05910000  0.69151000  1
  C  C90  1  0.86390000  0.88840000  0.90577000  1
  C  C91  1  0.86390000  0.38840000  0.59423000  1
  C  C92  1  0.86120000  0.03750000  0.40276000  1
  C  C93  1  0.86120000  0.53750000  0.09724000  1
  C  C94  1  0.84050000  0.75790000  0.86270000  1
  C  C95  1  0.84050000  0.25790000  0.63730000  1
  C  C96  1  0.83940000  0.96540000  0.90480000  1
  C  C97  1  0.83940000  0.46540000  0.59520000  1
  C  C98  1  0.81390000  0.43710000  0.37961000  1
  C  C99  1  0.81390000  0.93710000  0.12039000  1
  C  C100  1  0.81190000  0.44680000  0.82451000  1
  C  C101  1  0.81190000  0.94680000  0.67549000  1
  C  C102  1  0.80650000  0.31480000  0.42526000  1
  C  C103  1  0.80650000  0.81480000  0.07474000  1
  C  C104  1  0.80610000  0.84100000  0.86505000  1
  C  C105  1  0.80610000  0.34100000  0.63495000  1
  C  C106  1  0.78020000  0.37010000  0.82424000  1
  C  C107  1  0.78020000  0.87010000  0.67576000  1
  C  C108  1  0.76740000  0.12690000  0.35249000  1
  C  C109  1  0.76740000  0.62690000  0.14751000  1
  C  C110  1  0.76060000  0.50940000  0.37235000  1
  C  C111  1  0.76060000  0.00940000  0.12765000  1
  C  C112  1  0.76030000  0.89140000  0.41591000  1
  C  C113  1  0.76030000  0.39140000  0.08409000  1
  C  C114  1  0.75010000  0.49410000  0.86343000  1
  C  C115  1  0.75010000  0.99410000  0.63657000  1
  C  C116  1  0.74990000  0.99410000  0.86343000  1
  C  C117  1  0.74990000  0.49410000  0.63657000  1
  C  C118  1  0.73970000  0.39140000  0.41591000  1
  C  C119  1  0.73970000  0.89140000  0.08409000  1
  C  C120  1  0.73940000  0.00940000  0.37235000  1
  C  C121  1  0.73940000  0.50940000  0.12765000  1
  C  C122  1  0.73260000  0.62690000  0.35249000  1
  C  C123  1  0.73260000  0.12690000  0.14751000  1
  C  C124  1  0.71980000  0.87010000  0.82424000  1
  C  C125  1  0.71980000  0.37010000  0.67576000  1
  C  C126  1  0.69390000  0.34100000  0.86505000  1
  C  C127  1  0.69390000  0.84100000  0.63495000  1
  C  C128  1  0.69350000  0.81480000  0.42526000  1
  C  C129  1  0.69350000  0.31480000  0.07474000  1
  C  C130  1  0.68810000  0.94680000  0.82451000  1
  C  C131  1  0.68810000  0.44680000  0.67549000  1
  C  C132  1  0.68610000  0.93710000  0.37961000  1
  C  C133  1  0.68610000  0.43710000  0.12039000  1
  C  C134  1  0.66060000  0.46540000  0.90480000  1
  C  C135  1  0.66060000  0.96540000  0.59520000  1
  C  C136  1  0.65950000  0.25790000  0.86270000  1
  C  C137  1  0.65950000  0.75790000  0.63730000  1
  C  C138  1  0.63880000  0.53750000  0.40276000  1
  C  C139  1  0.63880000  0.03750000  0.09724000  1
  C  C140  1  0.63610000  0.38840000  0.90577000  1
  C  C141  1  0.63610000  0.88840000  0.59423000  1
  C  C142  1  0.60590000  0.05910000  0.80849000  1
  C  C143  1  0.60590000  0.55910000  0.69151000  1
  C  C144  1  0.60550000  0.41820000  0.44333000  1
  C  C145  1  0.60550000  0.91820000  0.05667000  1
  C  C146  1  0.55450000  0.49140000  0.43667000  1
  C  C147  1  0.55450000  0.99140000  0.06333000  1
  C  C148  1  0.55050000  0.35550000  0.95178000  1
  C  C149  1  0.55050000  0.85550000  0.54822000  1
  C  C150  1  0.50970000  0.37250000  0.48158000  1
  C  C151  1  0.50970000  0.87250000  0.01842000  1
  C  C152  1  0.49030000  0.12750000  0.98158000  1
  C  C153  1  0.49030000  0.62750000  0.51842000  1
  C  C154  1  0.44950000  0.14450000  0.45178000  1
  C  C155  1  0.44950000  0.64450000  0.04822000  1
  C  C156  1  0.44550000  0.00860000  0.93667000  1
  C  C157  1  0.44550000  0.50860000  0.56333000  1
  C  C158  1  0.39450000  0.08180000  0.94333000  1
  C  C159  1  0.39450000  0.58180000  0.55667000  1
  C  C160  1  0.39410000  0.44090000  0.30849000  1
  C  C161  1  0.39410000  0.94090000  0.19151000  1
  C  C162  1  0.36390000  0.11160000  0.40577000  1
  C  C163  1  0.36390000  0.61160000  0.09423000  1
  C  C164  1  0.36120000  0.96250000  0.90276000  1
  C  C165  1  0.36120000  0.46250000  0.59724000  1
  C  C166  1  0.34050000  0.24210000  0.36270000  1
  C  C167  1  0.34050000  0.74210000  0.13730000  1
  C  C168  1  0.33940000  0.03460000  0.40480000  1
  C  C169  1  0.33940000  0.53460000  0.09520000  1
  C  C170  1  0.31390000  0.56290000  0.87961000  1
  C  C171  1  0.31390000  0.06290000  0.62039000  1
  C  C172  1  0.31190000  0.55320000  0.32451000  1
  C  C173  1  0.31190000  0.05320000  0.17549000  1
  C  C174  1  0.30650000  0.68520000  0.92526000  1
  C  C175  1  0.30650000  0.18520000  0.57474000  1
  C  C176  1  0.30610000  0.15900000  0.36505000  1
  C  C177  1  0.30610000  0.65900000  0.13495000  1
  C  C178  1  0.28020000  0.62990000  0.32424000  1
  C  C179  1  0.28020000  0.12990000  0.17576000  1
  C  C180  1  0.26740000  0.87310000  0.85249000  1
  C  C181  1  0.26740000  0.37310000  0.64751000  1
  C  C182  1  0.26060000  0.49060000  0.87235000  1
  C  C183  1  0.26060000  0.99060000  0.62765000  1
  C  C184  1  0.26030000  0.10860000  0.91591000  1
  C  C185  1  0.26030000  0.60860000  0.58409000  1
  C  C186  1  0.25010000  0.50590000  0.36343000  1
  C  C187  1  0.25010000  0.00590000  0.13657000  1
  C  C188  1  0.24990000  0.00590000  0.36343000  1
  C  C189  1  0.24990000  0.50590000  0.13657000  1
  C  C190  1  0.23970000  0.60860000  0.91591000  1
  C  C191  1  0.23970000  0.10860000  0.58409000  1
  C  C192  1  0.23940000  0.99060000  0.87235000  1
  C  C193  1  0.23940000  0.49060000  0.62765000  1
  C  C194  1  0.23260000  0.37310000  0.85249000  1
  C  C195  1  0.23260000  0.87310000  0.64751000  1
  C  C196  1  0.21980000  0.12990000  0.32424000  1
  C  C197  1  0.21980000  0.62990000  0.17576000  1
  C  C198  1  0.19390000  0.65900000  0.36505000  1
  C  C199  1  0.19390000  0.15900000  0.13495000  1
  C  C200  1  0.19350000  0.18520000  0.92526000  1
  C  C201  1  0.19350000  0.68520000  0.57474000  1
  C  C202  1  0.18810000  0.05320000  0.32451000  1
  C  C203  1  0.18810000  0.55320000  0.17549000  1
  C  C204  1  0.18610000  0.06290000  0.87961000  1
  C  C205  1  0.18610000  0.56290000  0.62039000  1
  C  C206  1  0.16060000  0.53460000  0.40480000  1
  C  C207  1  0.16060000  0.03460000  0.09520000  1
  C  C208  1  0.15950000  0.74210000  0.36270000  1
  C  C209  1  0.15950000  0.24210000  0.13730000  1
  C  C210  1  0.13880000  0.46250000  0.90276000  1
  C  C211  1  0.13880000  0.96250000  0.59724000  1
  C  C212  1  0.13610000  0.61160000  0.40577000  1
  C  C213  1  0.13610000  0.11160000  0.09423000  1
  C  C214  1  0.10590000  0.94090000  0.30849000  1
  C  C215  1  0.10590000  0.44090000  0.19151000  1
  C  C216  1  0.10550000  0.58180000  0.94333000  1
  C  C217  1  0.10550000  0.08180000  0.55667000  1
  C  C218  1  0.05450000  0.50860000  0.93667000  1
  C  C219  1  0.05450000  0.00860000  0.56333000  1
  C  C220  1  0.05050000  0.64450000  0.45178000  1
  C  C221  1  0.05050000  0.14450000  0.04822000  1
  C  C222  1  0.00970000  0.62750000  0.98158000  1
  C  C223  1  0.00970000  0.12750000  0.51842000  1
  N  N224  1  0.90400000  0.48980000  0.79066000  1
  N  N225  1  0.90400000  0.98980000  0.70934000  1
  N  N226  1  0.87400000  0.11220000  0.38986000  1
  N  N227  1  0.87400000  0.61220000  0.11014000  1
  N  N228  1  0.81470000  0.56700000  0.33952000  1
  N  N229  1  0.81470000  0.06700000  0.16048000  1
  N  N230  1  0.80400000  0.56490000  0.85135000  1
  N  N231  1  0.80400000  0.06490000  0.64865000  1
  N  N232  1  0.69600000  0.06490000  0.85135000  1
  N  N233  1  0.69600000  0.56490000  0.64865000  1
  N  N234  1  0.68530000  0.06700000  0.33952000  1
  N  N235  1  0.68530000  0.56700000  0.16048000  1
  N  N236  1  0.62600000  0.61220000  0.38986000  1
  N  N237  1  0.62600000  0.11220000  0.11014000  1
  N  N238  1  0.59600000  0.98980000  0.79066000  1
  N  N239  1  0.59600000  0.48980000  0.70934000  1
  N  N240  1  0.40400000  0.51020000  0.29066000  1
  N  N241  1  0.40400000  0.01020000  0.20934000  1
  N  N242  1  0.37400000  0.88780000  0.88986000  1
  N  N243  1  0.37400000  0.38780000  0.61014000  1
  N  N244  1  0.31470000  0.43300000  0.83952000  1
  N  N245  1  0.31470000  0.93300000  0.66048000  1
  N  N246  1  0.30400000  0.43510000  0.35135000  1
  N  N247  1  0.30400000  0.93510000  0.14865000  1
  N  N248  1  0.19600000  0.93510000  0.35135000  1
  N  N249  1  0.19600000  0.43510000  0.14865000  1
  N  N250  1  0.18530000  0.93300000  0.83952000  1
  N  N251  1  0.18530000  0.43300000  0.66048000  1
  N  N252  1  0.12600000  0.38780000  0.88986000  1
  N  N253  1  0.12600000  0.88780000  0.61014000  1
  N  N254  1  0.09600000  0.01020000  0.29066000  1
  N  N255  1  0.09600000  0.51020000  0.20934000  1
  O  O256  1  0.95160000  0.30785000  0.41833000  1
  O  O257  1  0.95160000  0.80785000  0.08167000  1
  O  O258  1  0.95030000  0.73560000  0.83630000  1
  O  O259  1  0.95030000  0.23560000  0.66370000  1
  O  O260  1  0.94090000  0.60982000  0.47290000  1
  O  O261  1  0.94090000  0.10982000  0.02710000  1
  O  O262  1  0.92450000  0.34091000  0.97954000  1
  O  O263  1  0.92450000  0.84091000  0.52046000  1
  O  O264  1  0.91050000  0.78998000  0.96831000  1
  O  O265  1  0.91050000  0.28998000  0.53169000  1
  O  O266  1  0.86560000  0.62642000  0.97474000  1
  O  O267  1  0.86560000  0.12642000  0.52526000  1
  O  O268  1  0.77970000  0.76125000  0.43863000  1
  O  O269  1  0.77970000  0.26125000  0.06137000  1
  O  O270  1  0.75370000  0.21430000  0.88704000  1
  O  O271  1  0.75370000  0.71430000  0.61296000  1
  O  O272  1  0.74630000  0.71430000  0.88704000  1
  O  O273  1  0.74630000  0.21430000  0.61296000  1
  O  O274  1  0.72030000  0.26125000  0.43863000  1
  O  O275  1  0.72030000  0.76125000  0.06137000  1
  O  O276  1  0.63440000  0.12642000  0.97474000  1
  O  O277  1  0.63440000  0.62642000  0.52526000  1
  O  O278  1  0.58950000  0.28998000  0.96831000  1
  O  O279  1  0.58950000  0.78998000  0.53169000  1
  O  O280  1  0.57550000  0.84091000  0.97954000  1
  O  O281  1  0.57550000  0.34091000  0.52046000  1
  O  O282  1  0.55910000  0.10982000  0.47290000  1
  O  O283  1  0.55910000  0.60982000  0.02710000  1
  O  O284  1  0.54970000  0.23560000  0.83630000  1
  O  O285  1  0.54970000  0.73560000  0.66370000  1
  O  O286  1  0.54840000  0.80785000  0.41833000  1
  O  O287  1  0.54840000  0.30785000  0.08167000  1
  O  O288  1  0.45160000  0.69215000  0.91833000  1
  O  O289  1  0.45160000  0.19215000  0.58167000  1
  O  O290  1  0.45030000  0.26440000  0.33630000  1
  O  O291  1  0.45030000  0.76440000  0.16370000  1
  O  O292  1  0.44090000  0.39018000  0.97290000  1
  O  O293  1  0.44090000  0.89018000  0.52710000  1
  O  O294  1  0.42450000  0.65909000  0.47954000  1
  O  O295  1  0.42450000  0.15909000  0.02046000  1
  O  O296  1  0.41050000  0.21002000  0.46831000  1
  O  O297  1  0.41050000  0.71002000  0.03169000  1
  O  O298  1  0.36560000  0.37358000  0.47474000  1
  O  O299  1  0.36560000  0.87358000  0.02526000  1
  O  O300  1  0.27970000  0.23875000  0.93863000  1
  O  O301  1  0.27970000  0.73875000  0.56137000  1
  O  O302  1  0.25370000  0.78570000  0.38704000  1
  O  O303  1  0.25370000  0.28570000  0.11296000  1
  O  O304  1  0.24630000  0.28570000  0.38704000  1
  O  O305  1  0.24630000  0.78570000  0.11296000  1
  O  O306  1  0.22030000  0.73875000  0.93863000  1
  O  O307  1  0.22030000  0.23875000  0.56137000  1
  O  O308  1  0.13440000  0.87358000  0.47474000  1
  O  O309  1  0.13440000  0.37358000  0.02526000  1
  O  O310  1  0.08950000  0.71002000  0.46831000  1
  O  O311  1  0.08950000  0.21002000  0.03169000  1
  O  O312  1  0.07550000  0.15909000  0.47954000  1
  O  O313  1  0.07550000  0.65909000  0.02046000  1
  O  O314  1  0.05910000  0.89018000  0.97290000  1
  O  O315  1  0.05910000  0.39018000  0.52710000  1
  O  O316  1  0.04970000  0.76440000  0.33630000  1
  O  O317  1  0.04970000  0.26440000  0.16370000  1
  O  O318  1  0.04840000  0.19215000  0.91833000  1
  O  O319  1  0.04840000  0.69215000  0.58167000  1
