# generated using pymatgen
data_AlPO4
_symmetry_space_group_name_H-M   'P 1'
_cell_length_a   12.66260878
_cell_length_b   12.66260878
_cell_length_c   12.66260878
_cell_angle_alpha   60.33148309
_cell_angle_beta   60.33148309
_cell_angle_gamma   60.33148309
_symmetry_Int_Tables_number   1
_chemical_formula_structural   AlPO4
_chemical_formula_sum   'Al12 P12 O48'
_cell_volume   1446.43688236
_cell_formula_units_Z   12
loop_
 _symmetry_equiv_pos_site_id
 _symmetry_equiv_pos_as_xyz
  1  'x, y, z'
loop_
 _atom_site_type_symbol
 _atom_site_label
 _atom_site_symmetry_multiplicity
 _atom_site_fract_x
 _atom_site_fract_y
 _atom_site_fract_z
 _atom_site_occupancy
  Al  Al0  1  0.29932000  0.53818000  0.04870000  1
  Al  Al1  1  0.45740000  0.68584000  0.20738000  1
  Al  Al2  1  0.04870000  0.29932000  0.53818000  1
  Al  Al3  1  0.20738000  0.45740000  0.68584000  1
  Al  Al4  1  0.46182000  0.95130000  0.70068000  1
  Al  Al5  1  0.31416000  0.79262000  0.54260000  1
  Al  Al6  1  0.68584000  0.20738000  0.45740000  1
  Al  Al7  1  0.53818000  0.04870000  0.29932000  1
  Al  Al8  1  0.79262000  0.54260000  0.31416000  1
  Al  Al9  1  0.95130000  0.70068000  0.46182000  1
  Al  Al10  1  0.54260000  0.31416000  0.79262000  1
  Al  Al11  1  0.70068000  0.46182000  0.95130000  1
  O  O12  1  0.99566000  0.64093000  0.34362000  1
  O  O13  1  0.25132000  0.94863000  0.54165000  1
  O  O14  1  0.51278000  0.77762000  0.22456000  1
  O  O15  1  0.92368000  0.25815000  0.56151000  1
  O  O16  1  0.25815000  0.56151000  0.92368000  1
  O  O17  1  0.34362000  0.99566000  0.64093000  1
  O  O18  1  0.35907000  0.65638000  0.00434000  1
  O  O19  1  0.43849000  0.07632000  0.74185000  1
  O  O20  1  0.94863000  0.54165000  0.25132000  1
  O  O21  1  0.45835000  0.74868000  0.05137000  1
  O  O22  1  0.22456000  0.51278000  0.77762000  1
  O  O23  1  0.22238000  0.77544000  0.48722000  1
  O  O24  1  0.30304000  0.69228000  0.69777000  1
  O  O25  1  0.44523000  0.82561000  0.83879000  1
  O  O26  1  0.52819000  0.24080000  0.55583000  1
  O  O27  1  0.38678000  0.08678000  0.40829000  1
  O  O28  1  0.55583000  0.52819000  0.24080000  1
  O  O29  1  0.40829000  0.38678000  0.08678000  1
  O  O30  1  0.82561000  0.83879000  0.44523000  1
  O  O31  1  0.08678000  0.40829000  0.38678000  1
  O  O32  1  0.69228000  0.69777000  0.30304000  1
  O  O33  1  0.24080000  0.55583000  0.52819000  1
  O  O34  1  0.69777000  0.30304000  0.69228000  1
  O  O35  1  0.83879000  0.44523000  0.82561000  1
  O  O36  1  0.16121000  0.55477000  0.17439000  1
  O  O37  1  0.30223000  0.69696000  0.30772000  1
  O  O38  1  0.75920000  0.44417000  0.47181000  1
  O  O39  1  0.30772000  0.30223000  0.69696000  1
  O  O40  1  0.91322000  0.59171000  0.61322000  1
  O  O41  1  0.17439000  0.16121000  0.55477000  1
  O  O42  1  0.59171000  0.61322000  0.91322000  1
  O  O43  1  0.44417000  0.47181000  0.75920000  1
  O  O44  1  0.61322000  0.91322000  0.59171000  1
  O  O45  1  0.47181000  0.75920000  0.44417000  1
  O  O46  1  0.55477000  0.17439000  0.16121000  1
  O  O47  1  0.69696000  0.30772000  0.30223000  1
  O  O48  1  0.77762000  0.22456000  0.51278000  1
  O  O49  1  0.77544000  0.48722000  0.22238000  1
  O  O50  1  0.54165000  0.25132000  0.94863000  1
  O  O51  1  0.05137000  0.45835000  0.74868000  1
  O  O52  1  0.56151000  0.92368000  0.25815000  1
  O  O53  1  0.64093000  0.34362000  0.99566000  1
  O  O54  1  0.65638000  0.00434000  0.35907000  1
  O  O55  1  0.74185000  0.43849000  0.07632000  1
  O  O56  1  0.07632000  0.74185000  0.43849000  1
  O  O57  1  0.48722000  0.22238000  0.77544000  1
  O  O58  1  0.74868000  0.05137000  0.45835000  1
  O  O59  1  0.00434000  0.35907000  0.65638000  1
  P  P60  1  0.70987000  0.95178000  0.46415000  1
  P  P61  1  0.55907000  0.78988000  0.30773000  1
  P  P62  1  0.30773000  0.55907000  0.78988000  1
  P  P63  1  0.46415000  0.70987000  0.95178000  1
  P  P64  1  0.04822000  0.53585000  0.29013000  1
  P  P65  1  0.21012000  0.69227000  0.44093000  1
  P  P66  1  0.78988000  0.30773000  0.55907000  1
  P  P67  1  0.95178000  0.46415000  0.70987000  1
  P  P68  1  0.53585000  0.29013000  0.04822000  1
  P  P69  1  0.69227000  0.44093000  0.21012000  1
  P  P70  1  0.44093000  0.21012000  0.69227000  1
  P  P71  1  0.29013000  0.04822000  0.53585000  1
