# generated using pymatgen
data_Nd2H10C21(NO4)3
_symmetry_space_group_name_H-M   'P 1'
_cell_length_a   17.35300000
_cell_length_b   17.51100000
_cell_length_c   30.45300000
_cell_angle_alpha   90.00000000
_cell_angle_beta   90.00000000
_cell_angle_gamma   119.54700000
_symmetry_Int_Tables_number   1
_chemical_formula_structural   Nd2H10C21(NO4)3
_chemical_formula_sum   'Nd16 H80 C168 N24 O96'
_cell_volume   8050.27324333
_cell_formula_units_Z   8
loop_
 _symmetry_equiv_pos_site_id
 _symmetry_equiv_pos_as_xyz
  1  'x, y, z'
loop_
 _atom_site_type_symbol
 _atom_site_label
 _atom_site_symmetry_multiplicity
 _atom_site_fract_x
 _atom_site_fract_y
 _atom_site_fract_z
 _atom_site_occupancy
  Nd  Nd0  1  0.99433000  0.30436000  0.92855000  1
  Nd  Nd1  1  0.99433000  0.30436000  0.57145000  1
  Nd  Nd2  1  0.81062000  0.80641000  0.42687000  1
  Nd  Nd3  1  0.81062000  0.80641000  0.07313000  1
  Nd  Nd4  1  0.69020000  0.19402000  0.92928000  1
  Nd  Nd5  1  0.69020000  0.19402000  0.57072000  1
  Nd  Nd6  1  0.50378000  0.69478000  0.42810000  1
  Nd  Nd7  1  0.50378000  0.69478000  0.07190000  1
  Nd  Nd8  1  0.49622000  0.30522000  0.92810000  1
  Nd  Nd9  1  0.49622000  0.30522000  0.57190000  1
  Nd  Nd10  1  0.30980000  0.80598000  0.42928000  1
  Nd  Nd11  1  0.30980000  0.80598000  0.07072000  1
  Nd  Nd12  1  0.18938000  0.19359000  0.92687000  1
  Nd  Nd13  1  0.18938000  0.19359000  0.57313000  1
  Nd  Nd14  1  0.00567000  0.69564000  0.42855000  1
  Nd  Nd15  1  0.00567000  0.69564000  0.07145000  1
  H  H16  1  0.95720000  0.52580000  0.99730000  1
  H  H17  1  0.95720000  0.52580000  0.50270000  1
  H  H18  1  0.93790000  0.34220000  0.78900000  1
  H  H19  1  0.93790000  0.34220000  0.71100000  1
  H  H20  1  0.93250000  0.97480000  0.99610000  1
  H  H21  1  0.93250000  0.97480000  0.50390000  1
  H  H22  1  0.90160000  0.84350000  0.28660000  1
  H  H23  1  0.90160000  0.84350000  0.21340000  1
  H  H24  1  0.87690000  0.60380000  0.28720000  1
  H  H25  1  0.87690000  0.60380000  0.21280000  1
  H  H26  1  0.83640000  0.09340000  0.43730000  1
  H  H27  1  0.83640000  0.09340000  0.06270000  1
  H  H28  1  0.79140000  0.02760000  0.91240000  1
  H  H29  1  0.79140000  0.02760000  0.58760000  1
  H  H30  1  0.77130000  0.87530000  0.28540000  1
  H  H31  1  0.77130000  0.87530000  0.21460000  1
  H  H32  1  0.75820000  0.46830000  0.91130000  1
  H  H33  1  0.75820000  0.46830000  0.58870000  1
  H  H34  1  0.75250000  0.59070000  0.93980000  1
  H  H35  1  0.75250000  0.59070000  0.56020000  1
  H  H36  1  0.73860000  0.52970000  0.41100000  1
  H  H37  1  0.73860000  0.52970000  0.08900000  1
  H  H38  1  0.73840000  0.40160000  0.43560000  1
  H  H39  1  0.73840000  0.40160000  0.06440000  1
  H  H40  1  0.73450000  0.09860000  0.78620000  1
  H  H41  1  0.73450000  0.09860000  0.71380000  1
  H  H42  1  0.71370000  0.96960000  0.41010000  1
  H  H43  1  0.71370000  0.96960000  0.08990000  1
  H  H44  1  0.66650000  0.90630000  0.93590000  1
  H  H45  1  0.66650000  0.90630000  0.56410000  1
  H  H46  1  0.63090000  0.39190000  0.78730000  1
  H  H47  1  0.63090000  0.39190000  0.71270000  1
  H  H48  1  0.59530000  0.14120000  0.78780000  1
  H  H49  1  0.59530000  0.14120000  0.71220000  1
  H  H50  1  0.56810000  0.03320000  0.48870000  1
  H  H51  1  0.56810000  0.03320000  0.01130000  1
  H  H52  1  0.54780000  0.48120000  0.49750000  1
  H  H53  1  0.54780000  0.48120000  0.00250000  1
  H  H54  1  0.54760000  0.64750000  0.28900000  1
  H  H55  1  0.54760000  0.64750000  0.21100000  1
  H  H56  1  0.45240000  0.35250000  0.78900000  1
  H  H57  1  0.45240000  0.35250000  0.71100000  1
  H  H58  1  0.45220000  0.51880000  0.99750000  1
  H  H59  1  0.45220000  0.51880000  0.50250000  1
  H  H60  1  0.43190000  0.96680000  0.98870000  1
  H  H61  1  0.43190000  0.96680000  0.51130000  1
  H  H62  1  0.40470000  0.85880000  0.28780000  1
  H  H63  1  0.40470000  0.85880000  0.21220000  1
  H  H64  1  0.36910000  0.60810000  0.28730000  1
  H  H65  1  0.36910000  0.60810000  0.21270000  1
  H  H66  1  0.33350000  0.09370000  0.43590000  1
  H  H67  1  0.33350000  0.09370000  0.06410000  1
  H  H68  1  0.28630000  0.03040000  0.91010000  1
  H  H69  1  0.28630000  0.03040000  0.58990000  1
  H  H70  1  0.26550000  0.90140000  0.28620000  1
  H  H71  1  0.26550000  0.90140000  0.21380000  1
  H  H72  1  0.26160000  0.59840000  0.93560000  1
  H  H73  1  0.26160000  0.59840000  0.56440000  1
  H  H74  1  0.26140000  0.47030000  0.91100000  1
  H  H75  1  0.26140000  0.47030000  0.58900000  1
  H  H76  1  0.24750000  0.40930000  0.43980000  1
  H  H77  1  0.24750000  0.40930000  0.06020000  1
  H  H78  1  0.24180000  0.53170000  0.41130000  1
  H  H79  1  0.24180000  0.53170000  0.08870000  1
  H  H80  1  0.22870000  0.12470000  0.78540000  1
  H  H81  1  0.22870000  0.12470000  0.71460000  1
  H  H82  1  0.20860000  0.97240000  0.41240000  1
  H  H83  1  0.20860000  0.97240000  0.08760000  1
  H  H84  1  0.16360000  0.90660000  0.93730000  1
  H  H85  1  0.16360000  0.90660000  0.56270000  1
  H  H86  1  0.12310000  0.39620000  0.78720000  1
  H  H87  1  0.12310000  0.39620000  0.71280000  1
  H  H88  1  0.09840000  0.15650000  0.78660000  1
  H  H89  1  0.09840000  0.15650000  0.71340000  1
  H  H90  1  0.06750000  0.02520000  0.49610000  1
  H  H91  1  0.06750000  0.02520000  0.00390000  1
  H  H92  1  0.06210000  0.65780000  0.28900000  1
  H  H93  1  0.06210000  0.65780000  0.21100000  1
  H  H94  1  0.04280000  0.47420000  0.49730000  1
  H  H95  1  0.04280000  0.47420000  0.00270000  1
  C  C96  1  0.96120000  0.09340000  0.93690000  1
  C  C97  1  0.96120000  0.09340000  0.56310000  1
  C  C98  1  0.91210000  0.53530000  0.98715000  1
  C  C99  1  0.91210000  0.53530000  0.51285000  1
  C  C100  1  0.89790000  0.79520000  0.22800000  1
  C  C101  1  0.89610000  0.29380000  0.77340000  1
  C  C102  1  0.89610000  0.29380000  0.72660000  1
  C  C103  1  0.89570000  0.73290000  0.34481000  1
  C  C104  1  0.89570000  0.73290000  0.15519000  1
  C  C105  1  0.89310000  0.73040000  0.29520000  1
  C  C106  1  0.89310000  0.73040000  0.20480000  1
  C  C107  1  0.88310000  0.65230000  0.27170000  1
  C  C108  1  0.88310000  0.65230000  0.22830000  1
  C  C109  1  0.87820000  0.96730000  0.98658000  1
  C  C110  1  0.87820000  0.02200000  0.95200000  1
  C  C111  1  0.87820000  0.02200000  0.54800000  1
  C  C112  1  0.87820000  0.96730000  0.51342000  1
  C  C113  1  0.86440000  0.40220000  0.93760000  1
  C  C114  1  0.86440000  0.40220000  0.56240000  1
  C  C115  1  0.85360000  0.47780000  0.95329000  1
  C  C116  1  0.85360000  0.47780000  0.54671000  1
  C  C117  1  0.84770000  0.19050000  0.99110000  1
  C  C118  1  0.84770000  0.19050000  0.50890000  1
  C  C119  1  0.84370000  0.61960000  0.98760000  1
  C  C120  1  0.84370000  0.61960000  0.51240000  1
  C  C121  1  0.84170000  0.23250000  0.84360000  1
  C  C122  1  0.84170000  0.23250000  0.65640000  1
  C  C123  1  0.83620000  0.68970000  0.49080000  1
  C  C124  1  0.83620000  0.68970000  0.00920000  1
  C  C125  1  0.83560000  0.22370000  0.79400000  1
  C  C126  1  0.83560000  0.22370000  0.70600000  1
  C  C127  1  0.79610000  0.99500000  0.93538000  1
  C  C128  1  0.79610000  0.99500000  0.56462000  1
  C  C129  1  0.79430000  0.50030000  0.93460000  1
  C  C130  1  0.79430000  0.50030000  0.56540000  1
  C  C131  1  0.79060000  0.57350000  0.95210000  1
  C  C132  1  0.79060000  0.57350000  0.54790000  1
  C  C133  1  0.78070000  0.07470000  0.44941000  1
  C  C134  1  0.78070000  0.07470000  0.05059000  1
  C  C135  1  0.77480000  0.14840000  0.72910000  1
  C  C136  1  0.77150000  0.11950000  0.48475000  1
  C  C137  1  0.77150000  0.11950000  0.01525000  1
  C  C138  1  0.72960000  0.87770000  0.98860000  1
  C  C139  1  0.72960000  0.87770000  0.51140000  1
  C  C140  1  0.72450000  0.82920000  0.22927000  1
  C  C141  1  0.72070000  0.92450000  0.94958000  1
  C  C142  1  0.72070000  0.92450000  0.55042000  1
  C  C143  1  0.70800000  0.00310000  0.43230000  1
  C  C144  1  0.70800000  0.00310000  0.06770000  1
  C  C145  1  0.70360000  0.42150000  0.44920000  1
  C  C146  1  0.70360000  0.42150000  0.05080000  1
  C  C147  1  0.70030000  0.49640000  0.43340000  1
  C  C148  1  0.70030000  0.49640000  0.06660000  1
  C  C149  1  0.66170000  0.31080000  0.99030000  1
  C  C150  1  0.66170000  0.31080000  0.50970000  1
  C  C151  1  0.66020000  0.76420000  0.34576000  1
  C  C152  1  0.66020000  0.76420000  0.15424000  1
  C  C153  1  0.65510000  0.38150000  0.48420000  1
  C  C154  1  0.65510000  0.38150000  0.01580000  1
  C  C155  1  0.65320000  0.75920000  0.29662000  1
  C  C156  1  0.65320000  0.75920000  0.20338000  1
  C  C157  1  0.65160000  0.81170000  0.48716000  1
  C  C158  1  0.65160000  0.81170000  0.01284000  1
  C  C159  1  0.64260000  0.52060000  0.45010000  1
  C  C160  1  0.64260000  0.52060000  0.04990000  1
  C  C161  1  0.63910000  0.59710000  0.43403000  1
  C  C162  1  0.63910000  0.59710000  0.06597000  1
  C  C163  1  0.62430000  0.98190000  0.44940000  1
  C  C164  1  0.62430000  0.98190000  0.05060000  1
  C  C165  1  0.62281000  0.03900000  0.48140000  1
  C  C166  1  0.62281000  0.03900000  0.01860000  1
  C  C167  1  0.62020000  0.34160000  0.77204000  1
  C  C168  1  0.62020000  0.34160000  0.72796000  1
  C  C169  1  0.60660000  0.26430000  0.84416000  1
  C  C170  1  0.60660000  0.26430000  0.65584000  1
  C  C171  1  0.60340000  0.26280000  0.79610000  1
  C  C172  1  0.60340000  0.26280000  0.70390000  1
  C  C173  1  0.59850000  0.18870000  0.72751000  1
  C  C174  1  0.59260000  0.69500000  0.27420000  1
  C  C175  1  0.59260000  0.69500000  0.22580000  1
  C  C176  1  0.58960000  0.46820000  0.48607000  1
  C  C177  1  0.58960000  0.46820000  0.01393000  1
  C  C178  1  0.54040000  0.90430000  0.43400000  1
  C  C179  1  0.54040000  0.90430000  0.06600000  1
  C  C180  1  0.45960000  0.09570000  0.93400000  1
  C  C181  1  0.45960000  0.09570000  0.56600000  1
  C  C182  1  0.41040000  0.53180000  0.98607000  1
  C  C183  1  0.41040000  0.53180000  0.51393000  1
  C  C184  1  0.40740000  0.30500000  0.77420000  1
  C  C185  1  0.40740000  0.30500000  0.72580000  1
  C  C186  1  0.40150000  0.81130000  0.22751000  1
  C  C187  1  0.39660000  0.73720000  0.29610000  1
  C  C188  1  0.39660000  0.73720000  0.20390000  1
  C  C189  1  0.39340000  0.73570000  0.34416000  1
  C  C190  1  0.39340000  0.73570000  0.15584000  1
  C  C191  1  0.37980000  0.65840000  0.27204000  1
  C  C192  1  0.37980000  0.65840000  0.22796000  1
  C  C193  1  0.37719000  0.96100000  0.98140000  1
  C  C194  1  0.37719000  0.96100000  0.51860000  1
  C  C195  1  0.37570000  0.01810000  0.94940000  1
  C  C196  1  0.37570000  0.01810000  0.55060000  1
  C  C197  1  0.36090000  0.40290000  0.93403000  1
  C  C198  1  0.36090000  0.40290000  0.56597000  1
  C  C199  1  0.35740000  0.47940000  0.95010000  1
  C  C200  1  0.35740000  0.47940000  0.54990000  1
  C  C201  1  0.34840000  0.18830000  0.98716000  1
  C  C202  1  0.34840000  0.18830000  0.51284000  1
  C  C203  1  0.34680000  0.24080000  0.79662000  1
  C  C204  1  0.34680000  0.24080000  0.70338000  1
  C  C205  1  0.34490000  0.61850000  0.98420000  1
  C  C206  1  0.34490000  0.61850000  0.51580000  1
  C  C207  1  0.33980000  0.23580000  0.84576000  1
  C  C208  1  0.33980000  0.23580000  0.65424000  1
  C  C209  1  0.33830000  0.68920000  0.49030000  1
  C  C210  1  0.33830000  0.68920000  0.00970000  1
  C  C211  1  0.29970000  0.50360000  0.93340000  1
  C  C212  1  0.29970000  0.50360000  0.56660000  1
  C  C213  1  0.29640000  0.57850000  0.94920000  1
  C  C214  1  0.29640000  0.57850000  0.55080000  1
  C  C215  1  0.29200000  0.99690000  0.93230000  1
  C  C216  1  0.29200000  0.99690000  0.56770000  1
  C  C217  1  0.27930000  0.07550000  0.44958000  1
  C  C218  1  0.27930000  0.07550000  0.05042000  1
  C  C219  1  0.27550000  0.17080000  0.72927000  1
  C  C220  1  0.27040000  0.12230000  0.48860000  1
  C  C221  1  0.27040000  0.12230000  0.01140000  1
  C  C222  1  0.22850000  0.88050000  0.98475000  1
  C  C223  1  0.22850000  0.88050000  0.51525000  1
  C  C224  1  0.22520000  0.85160000  0.22910000  1
  C  C225  1  0.21930000  0.92530000  0.94941000  1
  C  C226  1  0.21930000  0.92530000  0.55059000  1
  C  C227  1  0.20940000  0.42650000  0.45210000  1
  C  C228  1  0.20940000  0.42650000  0.04790000  1
  C  C229  1  0.20570000  0.49970000  0.43460000  1
  C  C230  1  0.20570000  0.49970000  0.06540000  1
  C  C231  1  0.20390000  0.00500000  0.43538000  1
  C  C232  1  0.20390000  0.00500000  0.06462000  1
  C  C233  1  0.16440000  0.77630000  0.29400000  1
  C  C234  1  0.16440000  0.77630000  0.20600000  1
  C  C235  1  0.16380000  0.31030000  0.99080000  1
  C  C236  1  0.16380000  0.31030000  0.50920000  1
  C  C237  1  0.15830000  0.76750000  0.34360000  1
  C  C238  1  0.15830000  0.76750000  0.15640000  1
  C  C239  1  0.15630000  0.38040000  0.48760000  1
  C  C240  1  0.15630000  0.38040000  0.01240000  1
  C  C241  1  0.15230000  0.80950000  0.49110000  1
  C  C242  1  0.15230000  0.80950000  0.00890000  1
  C  C243  1  0.14640000  0.52220000  0.45329000  1
  C  C244  1  0.14640000  0.52220000  0.04671000  1
  C  C245  1  0.13560000  0.59780000  0.43760000  1
  C  C246  1  0.13560000  0.59780000  0.06240000  1
  C  C247  1  0.12180000  0.03270000  0.48658000  1
  C  C248  1  0.12180000  0.97800000  0.45200000  1
  C  C249  1  0.12180000  0.97800000  0.04800000  1
  C  C250  1  0.12180000  0.03270000  0.01342000  1
  C  C251  1  0.11690000  0.34770000  0.77170000  1
  C  C252  1  0.11690000  0.34770000  0.72830000  1
  C  C253  1  0.10690000  0.26960000  0.79520000  1
  C  C254  1  0.10690000  0.26960000  0.70480000  1
  C  C255  1  0.10430000  0.26710000  0.84481000  1
  C  C256  1  0.10430000  0.26710000  0.65519000  1
  C  C257  1  0.10390000  0.70620000  0.27340000  1
  C  C258  1  0.10390000  0.70620000  0.22660000  1
  C  C259  1  0.10210000  0.20480000  0.72800000  1
  C  C260  1  0.08790000  0.46470000  0.48715000  1
  C  C261  1  0.08790000  0.46470000  0.01285000  1
  C  C262  1  0.03880000  0.90660000  0.43690000  1
  C  C263  1  0.03880000  0.90660000  0.06310000  1
  N  N264  1  0.90480000  0.59790000  0.49632000  1
  N  N265  1  0.90480000  0.59790000  0.00368000  1
  N  N266  1  0.89790000  0.79520000  0.27200000  1
  N  N267  1  0.80500000  0.90590000  0.49393000  1
  N  N268  1  0.80500000  0.90590000  0.00607000  1
  N  N269  1  0.77480000  0.14840000  0.77090000  1
  N  N270  1  0.72450000  0.82920000  0.27073000  1
  N  N271  1  0.69510000  0.10120000  0.99767000  1
  N  N272  1  0.69510000  0.10120000  0.50233000  1
  N  N273  1  0.59850000  0.18870000  0.77249000  1
  N  N274  1  0.59580000  0.40100000  0.99532000  1
  N  N275  1  0.59580000  0.40100000  0.50468000  1
  N  N276  1  0.40420000  0.59900000  0.49532000  1
  N  N277  1  0.40420000  0.59900000  0.00468000  1
  N  N278  1  0.40150000  0.81130000  0.27249000  1
  N  N279  1  0.30490000  0.89880000  0.49767000  1
  N  N280  1  0.30490000  0.89880000  0.00233000  1
  N  N281  1  0.27550000  0.17080000  0.77073000  1
  N  N282  1  0.22520000  0.85160000  0.27090000  1
  N  N283  1  0.19500000  0.09410000  0.99393000  1
  N  N284  1  0.19500000  0.09410000  0.50607000  1
  N  N285  1  0.10210000  0.20480000  0.77200000  1
  N  N286  1  0.09520000  0.40210000  0.99632000  1
  N  N287  1  0.09520000  0.40210000  0.50368000  1
  O  O288  1  0.96660000  0.90250000  0.44513000  1
  O  O289  1  0.96660000  0.90250000  0.05487000  1
  O  O290  1  0.95280000  0.15240000  0.91330000  1
  O  O291  1  0.95280000  0.15240000  0.58670000  1
  O  O292  1  0.92940000  0.21670000  0.49739000  1
  O  O293  1  0.92940000  0.21670000  0.00261000  1
  O  O294  1  0.92830000  0.39630000  0.94890000  1
  O  O295  1  0.92830000  0.39630000  0.55110000  1
  O  O296  1  0.90720000  0.67760000  0.36592000  1
  O  O297  1  0.90720000  0.67760000  0.13408000  1
  O  O298  1  0.90650000  0.30250000  0.85998000  1
  O  O299  1  0.90650000  0.30250000  0.64002000  1
  O  O300  1  0.88040000  0.71590000  0.45308000  1
  O  O301  1  0.88040000  0.71590000  0.04692000  1
  O  O302  1  0.87500000  0.78340000  0.36143000  1
  O  O303  1  0.87500000  0.78340000  0.13857000  1
  O  O304  1  0.83310000  0.21560000  0.95479000  1
  O  O305  1  0.83310000  0.21560000  0.54521000  1
  O  O306  1  0.79690000  0.34590000  0.91466000  1
  O  O307  1  0.79690000  0.34590000  0.58534000  1
  O  O308  1  0.78750000  0.71980000  0.99879000  1
  O  O309  1  0.78750000  0.71980000  0.50121000  1
  O  O310  1  0.78390000  0.17030000  0.86543000  1
  O  O311  1  0.78390000  0.17030000  0.63457000  1
  O  O312  1  0.73140000  0.81540000  0.36092000  1
  O  O313  1  0.73140000  0.81540000  0.13908000  1
  O  O314  1  0.71190000  0.28290000  0.49608000  1
  O  O315  1  0.71190000  0.28290000  0.00392000  1
  O  O316  1  0.70080000  0.65540000  0.41379000  1
  O  O317  1  0.70080000  0.65540000  0.08621000  1
  O  O318  1  0.66920000  0.78540000  0.45298000  1
  O  O319  1  0.66920000  0.78540000  0.04702000  1
  O  O320  1  0.63210000  0.21570000  0.86363000  1
  O  O321  1  0.63210000  0.21570000  0.63637000  1
  O  O322  1  0.62090000  0.28260000  0.95479000  1
  O  O323  1  0.62090000  0.28260000  0.54521000  1
  O  O324  1  0.59170000  0.31860000  0.86374000  1
  O  O325  1  0.59170000  0.31860000  0.63626000  1
  O  O326  1  0.58840000  0.71570000  0.36314000  1
  O  O327  1  0.58840000  0.71570000  0.13686000  1
  O  O328  1  0.57460000  0.78910000  0.99964000  1
  O  O329  1  0.57460000  0.78910000  0.50036000  1
  O  O330  1  0.57100000  0.60410000  0.44651000  1
  O  O331  1  0.57100000  0.60410000  0.05349000  1
  O  O332  1  0.54120000  0.84480000  0.41243000  1
  O  O333  1  0.54120000  0.84480000  0.08757000  1
  O  O334  1  0.53450000  0.09840000  0.94420000  1
  O  O335  1  0.53450000  0.09840000  0.55580000  1
  O  O336  1  0.46550000  0.90160000  0.44420000  1
  O  O337  1  0.46550000  0.90160000  0.05580000  1
  O  O338  1  0.45880000  0.15520000  0.91243000  1
  O  O339  1  0.45880000  0.15520000  0.58757000  1
  O  O340  1  0.42900000  0.39590000  0.94651000  1
  O  O341  1  0.42900000  0.39590000  0.55349000  1
  O  O342  1  0.42540000  0.21090000  0.49964000  1
  O  O343  1  0.42540000  0.21090000  0.00036000  1
  O  O344  1  0.41160000  0.28430000  0.86314000  1
  O  O345  1  0.41160000  0.28430000  0.63686000  1
  O  O346  1  0.40830000  0.68140000  0.36374000  1
  O  O347  1  0.40830000  0.68140000  0.13626000  1
  O  O348  1  0.37910000  0.71740000  0.45479000  1
  O  O349  1  0.37910000  0.71740000  0.04521000  1
  O  O350  1  0.36790000  0.78430000  0.36363000  1
  O  O351  1  0.36790000  0.78430000  0.13637000  1
  O  O352  1  0.33080000  0.21460000  0.95298000  1
  O  O353  1  0.33080000  0.21460000  0.54702000  1
  O  O354  1  0.29920000  0.34460000  0.91379000  1
  O  O355  1  0.29920000  0.34460000  0.58621000  1
  O  O356  1  0.28810000  0.71710000  0.99608000  1
  O  O357  1  0.28810000  0.71710000  0.50392000  1
  O  O358  1  0.26860000  0.18460000  0.86092000  1
  O  O359  1  0.26860000  0.18460000  0.63908000  1
  O  O360  1  0.21610000  0.82970000  0.36543000  1
  O  O361  1  0.21610000  0.82970000  0.13457000  1
  O  O362  1  0.21250000  0.28020000  0.49879000  1
  O  O363  1  0.21250000  0.28020000  0.00121000  1
  O  O364  1  0.20310000  0.65410000  0.41466000  1
  O  O365  1  0.20310000  0.65410000  0.08534000  1
  O  O366  1  0.16690000  0.78440000  0.45479000  1
  O  O367  1  0.16690000  0.78440000  0.04521000  1
  O  O368  1  0.12500000  0.21660000  0.86143000  1
  O  O369  1  0.12500000  0.21660000  0.63857000  1
  O  O370  1  0.11960000  0.28410000  0.95308000  1
  O  O371  1  0.11960000  0.28410000  0.54692000  1
  O  O372  1  0.09350000  0.69750000  0.35998000  1
  O  O373  1  0.09350000  0.69750000  0.14002000  1
  O  O374  1  0.09280000  0.32240000  0.86592000  1
  O  O375  1  0.09280000  0.32240000  0.63408000  1
  O  O376  1  0.07170000  0.60370000  0.44890000  1
  O  O377  1  0.07170000  0.60370000  0.05110000  1
  O  O378  1  0.07060000  0.78330000  0.99739000  1
  O  O379  1  0.07060000  0.78330000  0.50261000  1
  O  O380  1  0.04720000  0.84760000  0.41330000  1
  O  O381  1  0.04720000  0.84760000  0.08670000  1
  O  O382  1  0.03340000  0.09750000  0.94513000  1
  O  O383  1  0.03340000  0.09750000  0.55487000  1
