# generated using pymatgen
data_K2CoH4Ru2(C2O7)2
_symmetry_space_group_name_H-M   'P 1'
_cell_length_a   9.39230000
_cell_length_b   10.07000000
_cell_length_c   18.40800000
_cell_angle_alpha   90.00000000
_cell_angle_beta   90.00000000
_cell_angle_gamma   90.00000000
_symmetry_Int_Tables_number   1
_chemical_formula_structural   K2CoH4Ru2(C2O7)2
_chemical_formula_sum   'K8 Co4 H16 Ru8 C16 O56'
_cell_volume   1741.03712609
_cell_formula_units_Z   4
loop_
 _symmetry_equiv_pos_site_id
 _symmetry_equiv_pos_as_xyz
  1  'x, y, z'
loop_
 _atom_site_type_symbol
 _atom_site_label
 _atom_site_symmetry_multiplicity
 _atom_site_fract_x
 _atom_site_fract_y
 _atom_site_fract_z
 _atom_site_occupancy
  K  K0  1  0.50360000  0.05210000  0.06940000  1
  K  K1  1  0.99640000  0.55210000  0.06940000  1
  K  K2  1  0.50360000  0.55210000  0.43060000  1
  K  K3  1  0.99640000  0.05210000  0.43060000  1
  K  K4  1  0.00360000  0.94790000  0.56940000  1
  K  K5  1  0.49640000  0.44790000  0.56940000  1
  K  K6  1  0.00360000  0.44790000  0.93060000  1
  K  K7  1  0.49640000  0.94790000  0.93060000  1
  Co  Co8  1  0.75000000  0.31542000  0.25000000  1
  Co  Co9  1  0.75000000  0.81542000  0.25000000  1
  Co  Co10  1  0.25000000  0.18458000  0.75000000  1
  Co  Co11  1  0.25000000  0.68458000  0.75000000  1
  H  H12  1  0.57490000  0.19910000  0.17000000  1
  H  H13  1  0.92510000  0.69910000  0.17000000  1
  H  H14  1  0.66200000  0.10070000  0.19870000  1
  H  H15  1  0.83800000  0.60070000  0.19870000  1
  H  H16  1  0.66200000  0.60070000  0.30130000  1
  H  H17  1  0.83800000  0.10070000  0.30130000  1
  H  H18  1  0.57490000  0.69910000  0.33000000  1
  H  H19  1  0.92510000  0.19910000  0.33000000  1
  H  H20  1  0.07490000  0.80090000  0.67000000  1
  H  H21  1  0.42510000  0.30090000  0.67000000  1
  H  H22  1  0.16200000  0.89930000  0.69870000  1
  H  H23  1  0.33800000  0.39930000  0.69870000  1
  H  H24  1  0.16200000  0.39930000  0.80130000  1
  H  H25  1  0.33800000  0.89930000  0.80130000  1
  H  H26  1  0.07490000  0.30090000  0.83000000  1
  H  H27  1  0.42510000  0.80090000  0.83000000  1
  Ru  Ru28  1  0.05914000  0.09396000  0.01473000  1
  Ru  Ru29  1  0.44086000  0.59396000  0.01473000  1
  Ru  Ru30  1  0.05914000  0.59396000  0.48527000  1
  Ru  Ru31  1  0.44086000  0.09396000  0.48527000  1
  Ru  Ru32  1  0.55914000  0.90604000  0.51473000  1
  Ru  Ru33  1  0.94086000  0.40604000  0.51473000  1
  Ru  Ru34  1  0.55914000  0.40604000  0.98527000  1
  Ru  Ru35  1  0.94086000  0.90604000  0.98527000  1
  C  C36  1  0.23230000  0.85590000  0.02790000  1
  C  C37  1  0.26770000  0.35590000  0.02790000  1
  C  C38  1  0.58130000  0.47110000  0.13840000  1
  C  C39  1  0.91870000  0.97110000  0.13840000  1
  C  C40  1  0.58130000  0.97110000  0.36160000  1
  C  C41  1  0.91870000  0.47110000  0.36160000  1
  C  C42  1  0.23230000  0.35590000  0.47210000  1
  C  C43  1  0.26770000  0.85590000  0.47210000  1
  C  C44  1  0.73230000  0.14410000  0.52790000  1
  C  C45  1  0.76770000  0.64410000  0.52790000  1
  C  C46  1  0.08130000  0.52890000  0.63840000  1
  C  C47  1  0.41870000  0.02890000  0.63840000  1
  C  C48  1  0.08130000  0.02890000  0.86160000  1
  C  C49  1  0.41870000  0.52890000  0.86160000  1
  C  C50  1  0.73230000  0.64410000  0.97210000  1
  C  C51  1  0.76770000  0.14410000  0.97210000  1
  O  O52  1  0.11980000  0.79620000  0.00490000  1
  O  O53  1  0.38020000  0.29620000  0.00490000  1
  O  O54  1  0.23460000  0.98450000  0.03490000  1
  O  O55  1  0.26540000  0.48450000  0.03490000  1
  O  O56  1  0.15820000  0.29150000  0.04510000  1
  O  O57  1  0.34180000  0.79150000  0.04510000  1
  O  O58  1  0.61870000  0.38430000  0.09030000  1
  O  O59  1  0.88130000  0.88430000  0.09030000  1
  O  O60  1  0.50170000  0.57230000  0.12000000  1
  O  O61  1  0.99830000  0.07230000  0.12000000  1
  O  O62  1  0.61940000  0.46030000  0.20370000  1
  O  O63  1  0.88060000  0.96030000  0.20370000  1
  O  O64  1  0.61410000  0.17010000  0.20850000  1
  O  O65  1  0.88590000  0.67010000  0.20850000  1
  O  O66  1  0.61410000  0.67010000  0.29150000  1
  O  O67  1  0.88590000  0.17010000  0.29150000  1
  O  O68  1  0.61940000  0.96030000  0.29630000  1
  O  O69  1  0.88060000  0.46030000  0.29630000  1
  O  O70  1  0.50170000  0.07230000  0.38000000  1
  O  O71  1  0.99830000  0.57230000  0.38000000  1
  O  O72  1  0.61870000  0.88430000  0.40970000  1
  O  O73  1  0.88130000  0.38430000  0.40970000  1
  O  O74  1  0.15820000  0.79150000  0.45490000  1
  O  O75  1  0.34180000  0.29150000  0.45490000  1
  O  O76  1  0.23460000  0.48450000  0.46510000  1
  O  O77  1  0.26540000  0.98450000  0.46510000  1
  O  O78  1  0.11980000  0.29620000  0.49510000  1
  O  O79  1  0.38020000  0.79620000  0.49510000  1
  O  O80  1  0.61980000  0.20380000  0.50490000  1
  O  O81  1  0.88020000  0.70380000  0.50490000  1
  O  O82  1  0.73460000  0.01550000  0.53490000  1
  O  O83  1  0.76540000  0.51550000  0.53490000  1
  O  O84  1  0.65820000  0.70850000  0.54510000  1
  O  O85  1  0.84180000  0.20850000  0.54510000  1
  O  O86  1  0.11870000  0.61570000  0.59030000  1
  O  O87  1  0.38130000  0.11570000  0.59030000  1
  O  O88  1  0.00170000  0.42770000  0.62000000  1
  O  O89  1  0.49830000  0.92770000  0.62000000  1
  O  O90  1  0.11940000  0.53970000  0.70370000  1
  O  O91  1  0.38060000  0.03970000  0.70370000  1
  O  O92  1  0.11410000  0.82990000  0.70850000  1
  O  O93  1  0.38590000  0.32990000  0.70850000  1
  O  O94  1  0.11410000  0.32990000  0.79150000  1
  O  O95  1  0.38590000  0.82990000  0.79150000  1
  O  O96  1  0.11940000  0.03970000  0.79630000  1
  O  O97  1  0.38060000  0.53970000  0.79630000  1
  O  O98  1  0.00170000  0.92770000  0.88000000  1
  O  O99  1  0.49830000  0.42770000  0.88000000  1
  O  O100  1  0.11870000  0.11570000  0.90970000  1
  O  O101  1  0.38130000  0.61570000  0.90970000  1
  O  O102  1  0.65820000  0.20850000  0.95490000  1
  O  O103  1  0.84180000  0.70850000  0.95490000  1
  O  O104  1  0.73460000  0.51550000  0.96510000  1
  O  O105  1  0.76540000  0.01550000  0.96510000  1
  O  O106  1  0.61980000  0.70380000  0.99510000  1
  O  O107  1  0.88020000  0.20380000  0.99510000  1
