# generated using pymatgen
data_AgH12(C3N)6
_symmetry_space_group_name_H-M   'P 1'
_cell_length_a   13.74621036
_cell_length_b   13.74621036
_cell_length_c   24.55391277
_cell_angle_alpha   101.69612639
_cell_angle_beta   101.35727916
_cell_angle_gamma   106.62683269
_symmetry_Int_Tables_number   1
_chemical_formula_structural   AgH12(C3N)6
_chemical_formula_sum   'Ag8 H96 C144 N48'
_cell_volume   4189.60483809
_cell_formula_units_Z   8
loop_
 _symmetry_equiv_pos_site_id
 _symmetry_equiv_pos_as_xyz
  1  'x, y, z'
loop_
 _atom_site_type_symbol
 _atom_site_label
 _atom_site_symmetry_multiplicity
 _atom_site_fract_x
 _atom_site_fract_y
 _atom_site_fract_z
 _atom_site_occupancy
  Ag  Ag0  1  0.61343000  0.43407000  0.13216000  1
  Ag  Ag1  1  0.69809000  0.01873000  0.63216000  1
  Ag  Ag2  1  0.42442000  0.20291000  0.13279000  1
  Ag  Ag3  1  0.92988000  0.20837000  0.63279000  1
  Ag  Ag4  1  0.57558000  0.79709000  0.86721000  1
  Ag  Ag5  1  0.07012000  0.79163000  0.36721000  1
  Ag  Ag6  1  0.38657000  0.56594000  0.86785000  1
  Ag  Ag7  1  0.30191000  0.98127500  0.36784500  1
  C  C8  1  0.07490000  0.47760000  0.40690000  1
  C  C9  1  0.92930000  0.83200000  0.90690000  1
  C  C10  1  0.11950000  0.60850000  0.49600000  1
  C  C11  1  0.88750000  0.87650000  0.99600000  1
  C  C12  1  0.36160000  0.80920000  0.49960000  1
  C  C13  1  0.69040000  0.63800000  0.99960000  1
  C  C14  1  0.38120000  0.44410000  0.11630000  1
  C  C15  1  0.67220000  0.23510000  0.61630000  1
  C  C16  1  0.40860000  0.37350000  0.03090000  1
  C  C17  1  0.65740000  0.12230000  0.53090000  1
  C  C18  1  0.10660000  0.50710000  0.46670000  1
  C  C19  1  0.34480000  0.68950000  0.41090000  1
  C  C20  1  0.72140000  0.56610000  0.91090000  1
  C  C21  1  0.95960000  0.86010000  0.96670000  1
  C  C22  1  0.17270000  0.18100000  0.12050000  1
  C  C23  1  0.21290000  0.13630000  0.03560000  1
  C  C24  1  0.89930000  0.32270000  0.53560000  1
  C  C25  1  0.93950000  0.44780000  0.62050000  1
  C  C26  1  0.36220000  0.71210000  0.46990000  1
  C  C27  1  0.75780000  0.60770000  0.96990000  1
  C  C28  1  0.12730000  0.43250000  0.50060000  1
  C  C29  1  0.06810000  0.87330000  0.00060000  1
  C  C30  1  0.38060000  0.63530000  0.50210000  1
  C  C31  1  0.86680000  0.62150000  0.00210000  1
  C  C32  1  0.46410000  0.37680000  0.25590000  1
  C  C33  1  0.87910000  0.29180000  0.75590000  1
  C  C34  1  0.63330000  0.81060000  0.52590000  1
  C  C35  1  0.71530000  0.39260000  0.02590000  1
  C  C36  1  0.22320000  0.54560000  0.68100000  1
  C  C37  1  0.13540000  0.95780000  0.18100000  1
  C  C38  1  0.18220000  0.90990000  0.08790000  1
  C  C39  1  0.17800000  0.40570000  0.58790000  1
  C  C40  1  0.23460000  0.87600000  0.00660000  1
  C  C41  1  0.13060000  0.27200000  0.50660000  1
  C  C42  1  0.29590000  0.84230000  0.91840000  1
  C  C43  1  0.07610000  0.12250000  0.41840000  1
  C  C44  1  0.51260000  0.14960000  0.02100000  1
  C  C45  1  0.87140000  0.00840000  0.52100000  1
  C  C46  1  0.68780000  0.06030000  0.75750000  1
  C  C47  1  0.69720000  0.56970000  0.25750000  1
  C  C48  1  0.50040000  0.42000000  0.31500000  1
  C  C49  1  0.89500000  0.31460000  0.81500000  1
  C  C50  1  0.61810000  0.70890000  0.49540000  1
  C  C51  1  0.78650000  0.37730000  0.99540000  1
  C  C52  1  0.31390000  0.32140000  0.41510000  1
  C  C53  1  0.09370000  0.60120000  0.91510000  1
  C  C54  1  0.37770000  0.47170000  0.50480000  1
  C  C55  1  0.03310000  0.62710000  0.00480000  1
  C  C56  1  0.43690000  0.60470000  0.58780000  1
  C  C57  1  0.98310000  0.65090000  0.08780000  1
  C  C58  1  0.26530000  0.58190000  0.74020000  1
  C  C59  1  0.15830000  0.97490000  0.24020000  1
  C  C60  1  0.21990000  0.44700000  0.65170000  1
  C  C61  1  0.20470000  0.93180000  0.15170000  1
  C  C62  1  0.31680000  0.86340000  0.97740000  1
  C  C63  1  0.11400000  0.16060000  0.47740000  1
  C  C64  1  0.50500000  0.75160000  0.67800000  1
  C  C65  1  0.92640000  0.67300000  0.17800000  1
  C  C66  1  0.37180000  0.82400000  0.89200000  1
  C  C67  1  0.06800000  0.02020000  0.39200000  1
  C  C68  1  0.70490000  0.07810000  0.81680000  1
  C  C69  1  0.73870000  0.61190000  0.31680000  1
  C  C70  1  0.58450000  0.13120000  0.99090000  1
  C  C71  1  0.85970000  0.90640000  0.49090000  1
  C  C72  1  0.29990000  0.21790000  0.38820000  1
  C  C73  1  0.17030000  0.58830000  0.88820000  1
  C  C74  1  0.35680000  0.35940000  0.47440000  1
  C  C75  1  0.11500000  0.61760000  0.97440000  1
  C  C76  1  0.48080000  0.64520000  0.65120000  1
  C  C77  1  0.00600000  0.67040000  0.15120000  1
  C  C78  1  0.54090000  0.78610000  0.73700000  1
  C  C79  1  0.95090000  0.69610000  0.23700000  1
  C  C80  1  0.45910000  0.21390000  0.26300000  1
  C  C81  1  0.04910000  0.30390000  0.76300000  1
  C  C82  1  0.51920000  0.35480000  0.34880000  1
  C  C83  1  0.99400000  0.32960000  0.84880000  1
  C  C84  1  0.64320000  0.64060000  0.52560000  1
  C  C85  1  0.88500000  0.38240000  0.02560000  1
  C  C86  1  0.70010000  0.78210000  0.61180000  1
  C  C87  1  0.82970000  0.41170000  0.11180000  1
  C  C88  1  0.41550000  0.86880000  0.00910000  1
  C  C89  1  0.14030000  0.09360000  0.50910000  1
  C  C90  1  0.29510000  0.92190000  0.18320000  1
  C  C91  1  0.26130000  0.38810000  0.68320000  1
  C  C92  1  0.62820000  0.17600000  0.10800000  1
  C  C93  1  0.93200000  0.97980000  0.60800000  1
  C  C94  1  0.49500000  0.24840000  0.32200000  1
  C  C95  1  0.07360000  0.32700000  0.82200000  1
  C  C96  1  0.68320000  0.13660000  0.02260000  1
  C  C97  1  0.88600000  0.83940000  0.52260000  1
  C  C98  1  0.78010000  0.55300000  0.34830000  1
  C  C99  1  0.79530000  0.06820000  0.84830000  1
  C  C100  1  0.73470000  0.41810000  0.25980000  1
  C  C101  1  0.84170000  0.02510000  0.75980000  1
  C  C102  1  0.56310000  0.39530000  0.41220000  1
  C  C103  1  0.01690000  0.34910000  0.91220000  1
  C  C104  1  0.62230000  0.52830000  0.49520000  1
  C  C105  1  0.96690000  0.37290000  0.99520000  1
  C  C106  1  0.68610000  0.67860000  0.58490000  1
  C  C107  1  0.90630000  0.39880000  0.08490000  1
  C  C108  1  0.38190000  0.29110000  0.50460000  1
  C  C109  1  0.21350000  0.62270000  0.00460000  1
  C  C110  1  0.49960000  0.58000000  0.68500000  1
  C  C111  1  0.10500000  0.68540000  0.18500000  1
  C  C112  1  0.31220000  0.93970000  0.24250000  1
  C  C113  1  0.30280000  0.43030000  0.74250000  1
  C  C114  1  0.48740000  0.85040000  0.97900000  1
  C  C115  1  0.12860000  0.99160000  0.47900000  1
  C  C116  1  0.70410000  0.15770000  0.08160000  1
  C  C117  1  0.92390000  0.87750000  0.58160000  1
  C  C118  1  0.76540000  0.12400000  0.99340000  1
  C  C119  1  0.86940000  0.72800000  0.49340000  1
  C  C120  1  0.81780000  0.09010000  0.91210000  1
  C  C121  1  0.82200000  0.59430000  0.41210000  1
  C  C122  1  0.77680000  0.45440000  0.31900000  1
  C  C123  1  0.86460000  0.04220000  0.81900000  1
  C  C124  1  0.36670000  0.18940000  0.47410000  1
  C  C125  1  0.28470000  0.60740000  0.97410000  1
  C  C126  1  0.53590000  0.62320000  0.74410000  1
  C  C127  1  0.12090000  0.70820000  0.24410000  1
  C  C128  1  0.61940000  0.36470000  0.49790000  1
  C  C129  1  0.13320000  0.37850000  0.99790000  1
  C  C130  1  0.87270000  0.56750000  0.49940000  1
  C  C131  1  0.93190000  0.12670000  0.99940000  1
  C  C132  1  0.63780000  0.28790000  0.53010000  1
  C  C133  1  0.24220000  0.39230000  0.03010000  1
  C  C134  1  0.78710000  0.86370000  0.96440000  1
  C  C135  1  0.82730000  0.81900000  0.87950000  1
  C  C136  1  0.06050000  0.55220000  0.37950000  1
  C  C137  1  0.10070000  0.67730000  0.46440000  1
  C  C138  1  0.65520000  0.31050000  0.58910000  1
  C  C139  1  0.89340000  0.49290000  0.53330000  1
  C  C140  1  0.04040000  0.13990000  0.03330000  1
  C  C141  1  0.27860000  0.43390000  0.08910000  1
  C  C142  1  0.59140000  0.62650000  0.96910000  1
  C  C143  1  0.34260000  0.87770000  0.46910000  1
  C  C144  1  0.61880000  0.55590000  0.88370000  1
  C  C145  1  0.32780000  0.76490000  0.38370000  1
  C  C146  1  0.63840000  0.19080000  0.50040000  1
  C  C147  1  0.30960000  0.36200000  0.00040000  1
  C  C148  1  0.88050000  0.39150000  0.50400000  1
  C  C149  1  0.11250000  0.12350000  0.00400000  1
  C  C150  1  0.92510000  0.52240000  0.59310000  1
  C  C151  1  0.07070000  0.16800000  0.09310000  1
  H  H152  1  0.06370000  0.40920000  0.38590000  1
  H  H153  1  0.97670000  0.82220000  0.88590000  1
  H  H154  1  0.14030000  0.63050000  0.53620000  1
  H  H155  1  0.90570000  0.89590000  0.03620000  1
  H  H156  1  0.37390000  0.82730000  0.53960000  1
  H  H157  1  0.71230000  0.66570000  0.03960000  1
  H  H158  1  0.40650000  0.47470000  0.15600000  1
  H  H159  1  0.68130000  0.24950000  0.65600000  1
  H  H160  1  0.34440000  0.62520000  0.38960000  1
  H  H161  1  0.76440000  0.54520000  0.88960000  1
  H  H162  1  0.45310000  0.35300000  0.01050000  1
  H  H163  1  0.65750000  0.05740000  0.51050000  1
  H  H164  1  0.19360000  0.20270000  0.16070000  1
  H  H165  1  0.95800000  0.46710000  0.66070000  1
  H  H166  1  0.26110000  0.12490000  0.01560000  1
  H  H167  1  0.89070000  0.25450000  0.51560000  1
  H  H168  1  0.45190000  0.42090000  0.23320000  1
  H  H169  1  0.61410000  0.85550000  0.50560000  1
  H  H170  1  0.65010000  0.39150000  0.00560000  1
  H  H171  1  0.81230000  0.28130000  0.73320000  1
  H  H172  1  0.19720000  0.58730000  0.66090000  1
  H  H173  1  0.07360000  0.96370000  0.16090000  1
  H  H174  1  0.23160000  0.84020000  0.89640000  1
  H  H175  1  0.05620000  0.16480000  0.39640000  1
  H  H176  1  0.62720000  0.06740000  0.73660000  1
  H  H177  1  0.66920000  0.60940000  0.23660000  1
  H  H178  1  0.44700000  0.14630000  0.99990000  1
  H  H179  1  0.85360000  0.05290000  0.49990000  1
  H  H180  1  0.29480000  0.36480000  0.39360000  1
  H  H181  1  0.02880000  0.59880000  0.89360000  1
  H  H182  1  0.51180000  0.49080000  0.33160000  1
  H  H183  1  0.84080000  0.31980000  0.83160000  1
  H  H184  1  0.49690000  0.79840000  0.65630000  1
  H  H185  1  0.85790000  0.65940000  0.15630000  1
  H  H186  1  0.59140000  0.68680000  0.45540000  1
  H  H187  1  0.76860000  0.36400000  0.95540000  1
  H  H188  1  0.26650000  0.64820000  0.75930000  1
  H  H189  1  0.11110000  0.99280000  0.25930000  1
  H  H190  1  0.65680000  0.09650000  0.83510000  1
  H  H191  1  0.73860000  0.67830000  0.33510000  1
  H  H192  1  0.35590000  0.80800000  0.85190000  1
  H  H193  1  0.04390000  0.99600000  0.35190000  1
  H  H194  1  0.56740000  0.11580000  0.95080000  1
  H  H195  1  0.83500000  0.88340000  0.45080000  1
  H  H196  1  0.27100000  0.19300000  0.34840000  1
  H  H197  1  0.15540000  0.57740000  0.84840000  1
  H  H198  1  0.55680000  0.85760000  0.75460000  1
  H  H199  1  0.89700000  0.69780000  0.25460000  1
  H  H200  1  0.44320000  0.14240000  0.24540000  1
  H  H201  1  0.10300000  0.30220000  0.74540000  1
  H  H202  1  0.72900000  0.80700000  0.65160000  1
  H  H203  1  0.84460000  0.42260000  0.15160000  1
  H  H204  1  0.43260000  0.88420000  0.04920000  1
  H  H205  1  0.16500000  0.11660000  0.54920000  1
  H  H206  1  0.64410000  0.19200000  0.14810000  1
  H  H207  1  0.95610000  0.00400000  0.64810000  1
  H  H208  1  0.34320000  0.90350000  0.16490000  1
  H  H209  1  0.26140000  0.32170000  0.66490000  1
  H  H210  1  0.73350000  0.35180000  0.24070000  1
  H  H211  1  0.88890000  0.00720000  0.74070000  1
  H  H212  1  0.40860000  0.31320000  0.54460000  1
  H  H213  1  0.23140000  0.63600000  0.04460000  1
  H  H214  1  0.50310000  0.20160000  0.34370000  1
  H  H215  1  0.14210000  0.34060000  0.84370000  1
  H  H216  1  0.48820000  0.50920000  0.66840000  1
  H  H217  1  0.15920000  0.68020000  0.16840000  1
  H  H218  1  0.70520000  0.63520000  0.60640000  1
  H  H219  1  0.97120000  0.40120000  0.10640000  1
  H  H220  1  0.55300000  0.85370000  0.00010000  1
  H  H221  1  0.14640000  0.94710000  0.50010000  1
  H  H222  1  0.37280000  0.93260000  0.26340000  1
  H  H223  1  0.33080000  0.39060000  0.76340000  1
  H  H224  1  0.76840000  0.15980000  0.10360000  1
  H  H225  1  0.94380000  0.83520000  0.60360000  1
  H  H226  1  0.80280000  0.41270000  0.33910000  1
  H  H227  1  0.92640000  0.03630000  0.83910000  1
  H  H228  1  0.38590000  0.14450000  0.49440000  1
  H  H229  1  0.54810000  0.57910000  0.76680000  1
  H  H230  1  0.18770000  0.71870000  0.26680000  1
  H  H231  1  0.34990000  0.60850000  0.99440000  1
  H  H232  1  0.73890000  0.87510000  0.98440000  1
  H  H233  1  0.10930000  0.74550000  0.48440000  1
  H  H234  1  0.80640000  0.79730000  0.83930000  1
  H  H235  1  0.04200000  0.53290000  0.33930000  1
  H  H236  1  0.54690000  0.64700000  0.98950000  1
  H  H237  1  0.34250000  0.94260000  0.48950000  1
  H  H238  1  0.65560000  0.37480000  0.61040000  1
  H  H239  1  0.23560000  0.45480000  0.11040000  1
  H  H240  1  0.59350000  0.52530000  0.84400000  1
  H  H241  1  0.31870000  0.75050000  0.34400000  1
  H  H242  1  0.62610000  0.17270000  0.46040000  1
  H  H243  1  0.28770000  0.33430000  0.96040000  1
  H  H244  1  0.85970000  0.36950000  0.46380000  1
  H  H245  1  0.09430000  0.10410000  0.96380000  1
  H  H246  1  0.93630000  0.59080000  0.61410000  1
  H  H247  1  0.02330000  0.17780000  0.11410000  1
  N  N248  1  0.44540000  0.41221000  0.08801000  1
  N  N249  1  0.67580000  0.14261000  0.58801000  1
  N  N250  1  0.24410000  0.16422000  0.09292000  1
  N  N251  1  0.92870000  0.34882000  0.59292000  1
  N  N252  1  0.16010000  0.47310000  0.55860000  1
  N  N253  1  0.08550000  0.89850000  0.05860000  1
  N  N254  1  0.13780000  0.85834000  0.97294000  1
  N  N255  1  0.11460000  0.33514000  0.47294000  1
  N  N256  1  0.35820000  0.53455000  0.47215000  1
  N  N257  1  0.93760000  0.61395000  0.97215000  1
  N  N258  1  0.42110000  0.67386000  0.55916000  1
  N  N259  1  0.88530000  0.63806000  0.05916000  1
  N  N260  1  0.44550000  0.27600000  0.22930000  1
  N  N261  1  0.95330000  0.28380000  0.72930000  1
  N  N262  1  0.67410000  0.84819000  0.58329000  1
  N  N263  1  0.73510000  0.40919000  0.08329000  1
  N  N264  1  0.26100000  0.90266000  0.06446000  1
  N  N265  1  0.16180000  0.30346000  0.56446000  1
  N  N266  1  0.53280000  0.17158000  0.07858000  1
  N  N267  1  0.90700000  0.04578000  0.57858000  1
  N  N268  1  0.69520000  0.47550000  0.22850000  1
  N  N269  1  0.75300000  0.03330000  0.72850000  1
  N  N270  1  0.41590000  0.50225000  0.56275000  1
  N  N271  1  0.06050000  0.64685000  0.06275000  1
  N  N272  1  0.58410000  0.49775000  0.43725000  1
  N  N273  1  0.93950000  0.35315000  0.93725000  1
  N  N274  1  0.30480000  0.52450000  0.77150000  1
  N  N275  1  0.24700000  0.96670000  0.27150000  1
  N  N276  1  0.46720000  0.82842000  0.92142000  1
  N  N277  1  0.09300000  0.95422000  0.42142000  1
  N  N278  1  0.73900000  0.09734000  0.93554000  1
  N  N279  1  0.83820000  0.69654000  0.43554000  1
  N  N280  1  0.32590000  0.15181000  0.41671000  1
  N  N281  1  0.26490000  0.59081000  0.91671000  1
  N  N282  1  0.55450000  0.72400000  0.77070000  1
  N  N283  1  0.04670000  0.71620000  0.27070000  1
  N  N284  1  0.57890000  0.32614000  0.44084000  1
  N  N285  1  0.11470000  0.36194000  0.94084000  1
  N  N286  1  0.64180000  0.46545000  0.52785000  1
  N  N287  1  0.06240000  0.38605000  0.02785000  1
  N  N288  1  0.86220000  0.14166000  0.02706000  1
  N  N289  1  0.88540000  0.66486000  0.52706000  1
  N  N290  1  0.83990000  0.52690000  0.44140000  1
  N  N291  1  0.91450000  0.10150000  0.94140000  1
  N  N292  1  0.75590000  0.83578000  0.90708000  1
  N  N293  1  0.07130000  0.65118000  0.40708000  1
  N  N294  1  0.55460000  0.58779000  0.91199000  1
  N  N295  1  0.32420000  0.85739000  0.41199000  1
