# generated using pymatgen
data_Cu3H13C8(N3O)2
_symmetry_space_group_name_H-M   'P 1'
_cell_length_a   10.86080000
_cell_length_b   14.83220000
_cell_length_c   14.83211584
_cell_angle_alpha   114.24462921
_cell_angle_beta   104.12717350
_cell_angle_gamma   104.12800000
_symmetry_Int_Tables_number   1
_chemical_formula_structural   Cu3H13C8(N3O)2
_chemical_formula_sum   'Cu9 H39 C24 N18 O6'
_cell_volume   1945.92293778
_cell_formula_units_Z   3
loop_
 _symmetry_equiv_pos_site_id
 _symmetry_equiv_pos_as_xyz
  1  'x, y, z'
loop_
 _atom_site_type_symbol
 _atom_site_label
 _atom_site_symmetry_multiplicity
 _atom_site_fract_x
 _atom_site_fract_y
 _atom_site_fract_z
 _atom_site_occupancy
  Cu  Cu0  1  0.43721000  0.88547000  0.40660000  1
  Cu  Cu1  1  0.55174000  0.11453000  0.52113000  1
  Cu  Cu2  1  0.73541000  0.00000000  0.40550000  1
  Cu  Cu3  1  0.55174000  0.52113000  0.11453000  1
  Cu  Cu4  1  0.03061000  0.47887000  0.59340000  1
  Cu  Cu5  1  0.03061000  0.59340000  0.47887000  1
  Cu  Cu6  1  0.43721000  0.40660000  0.88547000  1
  Cu  Cu7  1  0.73541000  0.40550000  1.00000000  1
  Cu  Cu8  1  0.32991000  0.59450000  0.59450000  1
  H  H9  1  0.57490000  0.71520000  0.57190000  1
  H  H10  1  0.85970000  0.28480000  0.85670000  1
  H  H11  1  0.61130000  0.83520000  0.59320000  1
  H  H12  1  0.77610000  0.16480000  0.75800000  1
  H  H13  1  0.28370000  0.64530000  0.26430000  1
  H  H14  1  0.63840000  0.35470000  0.61900000  1
  H  H15  1  0.34550000  0.55440000  0.24300000  1
  H  H16  1  0.79110000  0.44560000  0.68860000  1
  H  H17  1  0.58720000  0.74080000  0.47880000  1
  H  H18  1  0.84640000  0.25920000  0.73800000  1
  H  H19  1  0.27890000  0.57370000  0.14720000  1
  H  H20  1  0.70520000  0.42630000  0.57350000  1
  H  H21  1  0.52180000  0.00000000  0.33140000  1
  H  H22  1  0.70520000  0.57350000  0.42630000  1
  H  H23  1  0.13170000  0.42650000  0.85280000  1
  H  H24  1  0.63840000  0.61900000  0.35470000  1
  H  H25  1  0.01940000  0.38100000  0.73570000  1
  H  H26  1  0.79110000  0.68860000  0.44560000  1
  H  H27  1  0.10250000  0.31140000  0.75700000  1
  H  H28  1  0.52180000  0.33140000  0.00000000  1
  H  H29  1  0.19040000  0.66860000  0.66860000  1
  H  H30  1  0.85970000  0.85670000  0.28480000  1
  H  H31  1  0.00300000  0.14330000  0.42810000  1
  H  H32  1  0.84640000  0.73800000  0.25920000  1
  H  H33  1  0.10840000  0.26200000  0.52120000  1
  H  H34  1  0.77610000  0.75800000  0.16480000  1
  H  H35  1  0.01810000  0.24200000  0.40680000  1
  H  H36  1  0.01940000  0.73570000  0.38100000  1
  H  H37  1  0.28370000  0.26430000  0.64530000  1
  H  H38  1  0.13170000  0.85280000  0.42650000  1
  H  H39  1  0.27890000  0.14720000  0.57370000  1
  H  H40  1  0.01810000  0.40680000  0.24200000  1
  H  H41  1  0.61130000  0.59320000  0.83520000  1
  H  H42  1  0.10250000  0.75700000  0.31140000  1
  H  H43  1  0.34550000  0.24300000  0.55440000  1
  H  H44  1  0.10840000  0.52120000  0.26200000  1
  H  H45  1  0.58720000  0.47880000  0.74080000  1
  H  H46  1  0.00300000  0.42810000  0.14330000  1
  H  H47  1  0.57490000  0.57190000  0.71520000  1
  C  C48  1  0.55840000  0.75920000  0.53960000  1
  C  C49  1  0.79920000  0.24080000  0.78040000  1
  C  C50  1  0.33280000  0.60860000  0.22450000  1
  C  C51  1  0.72420000  0.39140000  0.61590000  1
  C  C52  1  0.47210000  0.68970000  0.25320000  1
  C  C53  1  0.78240000  0.31030000  0.56350000  1
  C  C54  1  0.72420000  0.61590000  0.39140000  1
  C  C55  1  0.10830000  0.38410000  0.77550000  1
  C  C56  1  0.67360000  0.76310000  0.26110000  1
  C  C57  1  0.91050000  0.23690000  0.49800000  1
  C  C58  1  0.78240000  0.56350000  0.31030000  1
  C  C59  1  0.21890000  0.43650000  0.74680000  1
  C  C60  1  0.79920000  0.78040000  0.24080000  1
  C  C61  1  0.01880000  0.21960000  0.46040000  1
  C  C62  1  0.91050000  0.49800000  0.23690000  1
  C  C63  1  0.41250000  0.50200000  0.73890000  1
  C  C64  1  0.10830000  0.77550000  0.38410000  1
  C  C65  1  0.33280000  0.22450000  0.60860000  1
  C  C66  1  0.21890000  0.74680000  0.43650000  1
  C  C67  1  0.47210000  0.25320000  0.68970000  1
  C  C68  1  0.01880000  0.46040000  0.21960000  1
  C  C69  1  0.55840000  0.53960000  0.75920000  1
  C  C70  1  0.41250000  0.73890000  0.50200000  1
  C  C71  1  0.67360000  0.26110000  0.76310000  1
  N  N72  1  0.51380000  0.79280000  0.32230000  1
  N  N73  1  0.72100000  0.20720000  0.52950000  1
  N  N74  1  0.64510000  0.84000000  0.32610000  1
  N  N75  1  0.80510000  0.16000000  0.48610000  1
  N  N76  1  0.56560000  0.66580000  0.21320000  1
  N  N77  1  0.89980000  0.33420000  0.54740000  1
  N  N78  1  0.72100000  0.52950000  0.20720000  1
  N  N79  1  0.19150000  0.47050000  0.67770000  1
  N  N80  1  0.89980000  0.54740000  0.33420000  1
  N  N81  1  0.35240000  0.45260000  0.78680000  1
  N  N82  1  0.80510000  0.48610000  0.16000000  1
  N  N83  1  0.31900000  0.51390000  0.67390000  1
  N  N84  1  0.19150000  0.67770000  0.47050000  1
  N  N85  1  0.51380000  0.32230000  0.79280000  1
  N  N86  1  0.31900000  0.67390000  0.51390000  1
  N  N87  1  0.64510000  0.32610000  0.84000000  1
  N  N88  1  0.35240000  0.78680000  0.45260000  1
  N  N89  1  0.56560000  0.21320000  0.66580000  1
  O  O90  1  0.54950000  0.00000000  0.38750000  1
  O  O91  1  0.89750000  0.51440000  0.51440000  1
  O  O92  1  0.38310000  0.48560000  1.00000000  1
  O  O93  1  0.54950000  0.38750000  0.00000000  1
  O  O94  1  0.16200000  0.61250000  0.61250000  1
  O  O95  1  0.38310000  1.00000000  0.48560000  1
