# generated using pymatgen
data_Ag3H12(C2N5)2
_symmetry_space_group_name_H-M   'P 1'
_cell_length_a   3.40990000
_cell_length_b   19.97539388
_cell_length_c   21.87005868
_cell_angle_alpha   89.61875529
_cell_angle_beta   85.52878846
_cell_angle_gamma   85.10370415
_symmetry_Int_Tables_number   1
_chemical_formula_structural   Ag3H12(C2N5)2
_chemical_formula_sum   'Ag12 H48 C16 N40'
_cell_volume   1479.70618692
_cell_formula_units_Z   4
loop_
 _symmetry_equiv_pos_site_id
 _symmetry_equiv_pos_as_xyz
  1  'x, y, z'
loop_
 _atom_site_type_symbol
 _atom_site_label
 _atom_site_symmetry_multiplicity
 _atom_site_fract_x
 _atom_site_fract_y
 _atom_site_fract_z
 _atom_site_occupancy
  Ag  Ag0  1  0.00000000  0.00000000  0.00000000  1
  Ag  Ag1  1  0.50000000  0.50000000  0.50000000  1
  Ag  Ag2  1  0.44426000  0.11148000  0.25000000  1
  Ag  Ag3  1  0.42775000  0.25000000  0.14450000  1
  Ag  Ag4  1  0.32225000  0.25000000  0.35550000  1
  Ag  Ag5  1  0.30574000  0.38852000  0.25000000  1
  Ag  Ag6  1  1.00000000  0.00000000  0.50000000  1
  Ag  Ag7  1  1.00000000  0.50000000  0.00000000  1
  Ag  Ag8  1  0.69426000  0.61148000  0.75000000  1
  Ag  Ag9  1  0.67775000  0.75000000  0.64450000  1
  Ag  Ag10  1  0.57225000  0.75000000  0.85550000  1
  Ag  Ag11  1  0.55574000  0.88852000  0.75000000  1
  C  C12  1  0.33490000  0.54640000  0.87180000  1
  C  C13  1  0.25310000  0.95360000  0.62820000  1
  C  C14  1  0.26630000  0.62800000  0.93340000  1
  C  C15  1  0.32770000  0.87200000  0.56660000  1
  C  C16  1  0.10570000  0.62800000  0.56660000  1
  C  C17  1  0.80030000  0.87200000  0.93340000  1
  C  C18  1  0.11870000  0.54640000  0.62820000  1
  C  C19  1  0.79330000  0.95360000  0.87180000  1
  C  C20  1  0.20670000  0.04640000  0.12820000  1
  C  C21  1  0.88130000  0.45360000  0.37180000  1
  C  C22  1  0.19970000  0.12800000  0.06660000  1
  C  C23  1  0.89430000  0.37200000  0.43340000  1
  C  C24  1  0.67230000  0.12800000  0.43340000  1
  C  C25  1  0.73370000  0.37200000  0.06660000  1
  C  C26  1  0.74690000  0.04640000  0.37180000  1
  C  C27  1  0.66510000  0.45360000  0.12820000  1
  H  H28  1  0.32670000  0.50260000  0.85460000  1
  H  H29  1  0.18390000  0.99740000  0.64540000  1
  H  H30  1  0.19950000  0.65460000  0.96960000  1
  H  H31  1  0.32370000  0.84540000  0.53040000  1
  H  H32  1  0.70810000  0.15160000  0.52420000  1
  H  H33  1  0.88390000  0.34840000  0.97580000  1
  H  H34  1  0.71490000  0.55400000  0.12980000  1
  H  H35  1  0.89870000  0.94600000  0.37020000  1
  H  H36  1  0.21280000  0.02580000  0.69360000  1
  H  H37  1  0.43220000  0.47420000  0.80640000  1
  H  H38  1  0.24150000  0.71380000  0.98620000  1
  H  H39  1  0.44150000  0.78620000  0.51380000  1
  H  H40  1  0.04470000  0.71380000  0.51380000  1
  H  H41  1  0.77230000  0.78620000  0.98620000  1
  H  H42  1  0.76140000  0.02580000  0.80640000  1
  H  H43  1  0.09360000  0.47420000  0.69360000  1
  H  H44  1  0.73110000  0.55400000  0.37020000  1
  H  H45  1  0.15530000  0.94600000  0.12980000  1
  H  H46  1  0.14030000  0.15160000  0.97580000  1
  H  H47  1  0.76770000  0.34840000  0.52420000  1
  H  H48  1  0.14590000  0.65460000  0.53040000  1
  H  H49  1  0.83090000  0.84540000  0.96960000  1
  H  H50  1  0.17070000  0.50260000  0.64540000  1
  H  H51  1  0.81870000  0.99740000  0.85460000  1
  H  H52  1  0.18130000  0.00260000  0.14540000  1
  H  H53  1  0.82930000  0.49740000  0.35460000  1
  H  H54  1  0.16910000  0.15460000  0.03040000  1
  H  H55  1  0.85410000  0.34540000  0.46960000  1
  H  H56  1  0.23230000  0.65160000  0.47580000  1
  H  H57  1  0.85970000  0.84840000  0.02420000  1
  H  H58  1  0.84470000  0.05400000  0.87020000  1
  H  H59  1  0.26890000  0.44600000  0.62980000  1
  H  H60  1  0.90640000  0.52580000  0.30640000  1
  H  H61  1  0.23860000  0.97420000  0.19360000  1
  H  H62  1  0.22770000  0.21380000  0.01380000  1
  H  H63  1  0.95530000  0.28620000  0.48620000  1
  H  H64  1  0.55850000  0.21380000  0.48620000  1
  H  H65  1  0.75850000  0.28620000  0.01380000  1
  H  H66  1  0.56780000  0.52580000  0.19360000  1
  H  H67  1  0.78720000  0.97420000  0.30640000  1
  H  H68  1  0.10130000  0.05400000  0.62980000  1
  H  H69  1  0.28510000  0.44600000  0.87020000  1
  H  H70  1  0.11610000  0.65160000  0.02420000  1
  H  H71  1  0.29190000  0.84840000  0.47580000  1
  H  H72  1  0.67630000  0.15460000  0.46960000  1
  H  H73  1  0.80050000  0.34540000  0.03040000  1
  H  H74  1  0.81610000  0.00260000  0.35460000  1
  H  H75  1  0.67330000  0.49740000  0.14540000  1
  N  N76  1  0.17860000  0.01920000  0.65360000  1
  N  N77  1  0.35140000  0.48080000  0.84640000  1
  N  N78  1  0.20000000  0.66980000  0.98820000  1
  N  N79  1  0.35800000  0.83020000  0.51180000  1
  N  N80  1  0.79170000  0.06220000  0.43040000  1
  N  N81  1  0.78430000  0.43780000  0.06960000  1
  N  N82  1  0.93066000  0.65198000  0.61870000  1
  N  N83  1  0.70134000  0.84802000  0.88130000  1
  N  N84  1  0.94304000  0.59870000  0.65922000  1
  N  N85  1  0.70096000  0.90130000  0.84078000  1
  N  N86  1  0.45826000  0.59870000  0.84078000  1
  N  N87  1  0.39774000  0.90130000  0.65922000  1
  N  N88  1  0.41736000  0.65198000  0.88130000  1
  N  N89  1  0.45064000  0.84802000  0.61870000  1
  N  N90  1  0.14610000  0.06220000  0.06960000  1
  N  N91  1  0.77790000  0.43780000  0.43040000  1
  N  N92  1  0.13020000  0.66980000  0.51180000  1
  N  N93  1  0.81180000  0.83020000  0.98820000  1
  N  N94  1  0.80220000  0.01920000  0.84640000  1
  N  N95  1  0.16780000  0.48080000  0.65360000  1
  N  N96  1  0.83220000  0.51920000  0.34640000  1
  N  N97  1  0.19780000  0.98080000  0.15360000  1
  N  N98  1  0.18820000  0.16980000  0.01180000  1
  N  N99  1  0.86980000  0.33020000  0.48820000  1
  N  N100  1  0.22210000  0.56220000  0.56960000  1
  N  N101  1  0.85390000  0.93780000  0.93040000  1
  N  N102  1  0.54936000  0.15198000  0.38130000  1
  N  N103  1  0.58264000  0.34802000  0.11870000  1
  N  N104  1  0.60226000  0.09870000  0.34078000  1
  N  N105  1  0.54174000  0.40130000  0.15922000  1
  N  N106  1  0.29904000  0.09870000  0.15922000  1
  N  N107  1  0.05696000  0.40130000  0.34078000  1
  N  N108  1  0.29866000  0.15198000  0.11870000  1
  N  N109  1  0.06934000  0.34802000  0.38130000  1
  N  N110  1  0.21570000  0.56220000  0.93040000  1
  N  N111  1  0.20830000  0.93780000  0.56960000  1
  N  N112  1  0.64200000  0.16980000  0.48820000  1
  N  N113  1  0.80000000  0.33020000  0.01180000  1
  N  N114  1  0.64860000  0.51920000  0.15360000  1
  N  N115  1  0.82140000  0.98080000  0.34640000  1
