# generated using pymatgen
data_Co6H42C70O27
_symmetry_space_group_name_H-M   'P 1'
_cell_length_a   16.38100000
_cell_length_b   16.58113926
_cell_length_c   23.19900000
_cell_angle_alpha   92.51515007
_cell_angle_beta   90.00000000
_cell_angle_gamma   119.60151464
_symmetry_Int_Tables_number   1
_chemical_formula_structural   Co6H42C70O27
_chemical_formula_sum   'Co12 H84 C140 O54'
_cell_volume   5471.80643385
_cell_formula_units_Z   2
loop_
 _symmetry_equiv_pos_site_id
 _symmetry_equiv_pos_as_xyz
  1  'x, y, z'
loop_
 _atom_site_type_symbol
 _atom_site_label
 _atom_site_symmetry_multiplicity
 _atom_site_fract_x
 _atom_site_fract_y
 _atom_site_fract_z
 _atom_site_occupancy
  C  C0  1  0.70205000  0.99270000  0.49000000  1
  C  C1  1  0.29065000  0.99270000  0.99000000  1
  C  C2  1  0.67192000  0.98784000  0.95440000  1
  C  C3  1  0.31592000  0.98784000  0.45440000  1
  C  C4  1  0.71468000  0.93896000  0.04010000  1
  C  C5  1  0.22428000  0.93896000  0.54010000  1
  C  C6  1  0.86166000  0.92812000  0.22410000  1
  C  C7  1  0.06646000  0.92812000  0.72410000  1
  C  C8  1  0.63820000  0.89940000  0.92900000  1
  C  C9  1  0.26120000  0.89940000  0.42900000  1
  C  C10  1  0.77611000  0.89502000  0.25040000  1
  C  C11  1  0.11891000  0.89502000  0.75040000  1
  C  C12  1  0.86863000  0.89026000  0.17110000  1
  C  C13  1  0.02163000  0.89026000  0.67110000  1
  C  C14  1  0.48698000  0.85756000  0.46590000  1
  C  C15  1  0.37058000  0.85756000  0.96590000  1
  C  C16  1  0.67963000  0.85066000  0.01490000  1
  C  C17  1  0.17103000  0.85066000  0.51490000  1
  C  C18  1  0.56181000  0.84702000  0.48260000  1
  C  C19  1  0.28521000  0.84702000  0.98260000  1
  C  C20  1  0.64058000  0.82916000  0.95940000  1
  C  C21  1  0.18858000  0.82916000  0.45940000  1
  C  C22  1  0.69519000  0.82538000  0.22210000  1
  C  C23  1  0.13019000  0.82538000  0.72210000  1
  C  C24  1  0.78813000  0.82086000  0.14379000  1
  C  C25  1  0.03273000  0.82086000  0.64379000  1
  C  C26  1  0.39972000  0.79824000  0.98700000  1
  C  C27  1  0.39852000  0.79824000  0.48700000  1
  C  C28  1  0.70057000  0.78934000  0.16800000  1
  C  C29  1  0.08877000  0.78934000  0.66800000  1
  C  C30  1  0.55055000  0.77850000  0.51850000  1
  C  C31  1  0.22795000  0.77850000  0.01850000  1
  C  C32  1  0.60074000  0.73388000  0.93334000  1
  C  C33  1  0.13314000  0.73388000  0.43334000  1
  C  C34  1  0.38606000  0.73052000  0.52474000  1
  C  C35  1  0.34446000  0.73052000  0.02474000  1
  C  C36  1  0.46191000  0.72042000  0.53974000  1
  C  C37  1  0.25851000  0.72042000  0.03974000  1
  C  C38  1  0.61191000  0.71642000  0.13698000  1
  C  C39  1  0.10451000  0.71642000  0.63698000  1
  C  C40  1  0.38058000  0.67196000  0.05009000  1
  C  C41  1  0.29138000  0.67196000  0.55009000  1
  C  C42  1  0.77958000  0.63516000  0.47980000  1
  C  C43  1  0.85558000  0.63516000  0.97980000  1
  C  C44  1  0.55362000  0.63464000  0.39070000  1
  C  C45  1  0.08102000  0.63464000  0.89070000  1
  C  C46  1  0.76743000  0.60706000  0.00186000  1
  C  C47  1  0.83963000  0.60706000  0.50186000  1
  C  C48  1  0.51745000  0.60670000  0.33482000  1
  C  C49  1  0.08925000  0.60670000  0.83482000  1
  C  C50  1  0.68762000  0.59284000  0.49659000  1
  C  C51  1  0.90522000  0.59284000  0.99659000  1
  C  C52  1  0.59597000  0.59034000  0.41690000  1
  C  C53  1  0.99437000  0.59034000  0.91690000  1
  C  C54  1  0.73075000  0.53710000  0.04150000  1
  C  C55  1  0.80635000  0.53710000  0.54150000  1
  C  C56  1  0.52398000  0.53516000  0.30484000  1
  C  C57  1  0.01118000  0.53516000  0.80484000  1
  C  C58  1  0.65398000  0.52556000  0.53730000  1
  C  C59  1  0.87158000  0.52556000  0.03730000  1
  C  C60  1  0.60341000  0.51962000  0.38791000  1
  C  C61  1  0.91621000  0.51962000  0.88791000  1
  C  C62  1  0.48651000  0.50862000  0.24359000  1
  C  C63  1  0.02211000  0.50862000  0.74359000  1
  C  C64  1  0.43349000  0.50778000  0.66801000  1
  C  C65  1  0.07429000  0.50778000  0.16801000  1
  C  C66  1  0.63197000  0.50194000  0.05963000  1
  C  C67  1  0.86997000  0.50194000  0.55963000  1
  C  C68  1  0.28557000  0.50174000  0.44003000  1
  C  C69  1  0.21617000  0.50174000  0.94003000  1
  C  C70  1  0.71443000  0.49826000  0.55997000  1
  C  C71  1  0.78383000  0.49826000  0.05997000  1
  C  C72  1  0.36803000  0.49806000  0.94037000  1
  C  C73  1  0.13003000  0.49806000  0.44037000  1
  C  C74  1  0.56651000  0.49222000  0.33199000  1
  C  C75  1  0.92571000  0.49222000  0.83199000  1
  C  C76  1  0.51349000  0.49138000  0.75641000  1
  C  C77  1  0.97789000  0.49138000  0.25641000  1
  C  C78  1  0.39659000  0.48038000  0.61209000  1
  C  C79  1  0.08379000  0.48038000  0.11209000  1
  C  C80  1  0.34602000  0.47444000  0.46270000  1
  C  C81  1  0.12842000  0.47444000  0.96270000  1
  C  C82  1  0.47602000  0.46484000  0.69516000  1
  C  C83  1  0.98882000  0.46484000  0.19516000  1
  C  C84  1  0.26925000  0.46290000  0.95850000  1
  C  C85  1  0.19365000  0.46290000  0.45850000  1
  C  C86  1  0.40403000  0.40966000  0.58310000  1
  C  C87  1  0.00563000  0.40966000  0.08310000  1
  C  C88  1  0.31238000  0.40716000  0.50341000  1
  C  C89  1  0.09478000  0.40716000  0.00341000  1
  C  C90  1  0.48255000  0.39330000  0.66518000  1
  C  C91  1  0.91075000  0.39330000  0.16518000  1
  C  C92  1  0.23257000  0.39294000  0.99814000  1
  C  C93  1  0.16037000  0.39294000  0.49814000  1
  C  C94  1  0.44638000  0.36536000  0.60930000  1
  C  C95  1  0.91898000  0.36536000  0.10930000  1
  C  C96  1  0.22042000  0.36484000  0.52020000  1
  C  C97  1  0.14442000  0.36484000  0.02020000  1
  C  C98  1  0.61942000  0.32804000  0.94991000  1
  C  C99  1  0.70862000  0.32804000  0.44991000  1
  C  C100  1  0.38809000  0.28358000  0.86302000  1
  C  C101  1  0.89549000  0.28358000  0.36302000  1
  C  C102  1  0.53809000  0.27958000  0.46026000  1
  C  C103  1  0.74149000  0.27958000  0.96026000  1
  C  C104  1  0.61394000  0.26948000  0.47526000  1
  C  C105  1  0.65554000  0.26948000  0.97526000  1
  C  C106  1  0.39926000  0.26612000  0.06666000  1
  C  C107  1  0.86686000  0.26612000  0.56666000  1
  C  C108  1  0.44945000  0.22150000  0.48150000  1
  C  C109  1  0.77205000  0.22150000  0.98150000  1
  C  C110  1  0.29943000  0.21066000  0.83200000  1
  C  C111  1  0.91123000  0.21066000  0.33200000  1
  C  C112  1  0.60028000  0.20176000  0.01300000  1
  C  C113  1  0.60148000  0.20176000  0.51300000  1
  C  C114  1  0.21187000  0.17914000  0.85621000  1
  C  C115  1  0.96727000  0.17914000  0.35621000  1
  C  C116  1  0.30481000  0.17462000  0.77790000  1
  C  C117  1  0.86981000  0.17462000  0.27790000  1
  C  C118  1  0.35942000  0.17084000  0.04060000  1
  C  C119  1  0.81142000  0.17084000  0.54060000  1
  C  C120  1  0.43819000  0.15298000  0.51740000  1
  C  C121  1  0.71479000  0.15298000  0.01740000  1
  C  C122  1  0.32037000  0.14934000  0.98510000  1
  C  C123  1  0.82897000  0.14934000  0.48510000  1
  C  C124  1  0.51302000  0.14244000  0.53410000  1
  C  C125  1  0.62942000  0.14244000  0.03410000  1
  C  C126  1  0.13137000  0.10974000  0.82890000  1
  C  C127  1  0.97837000  0.10974000  0.32890000  1
  C  C128  1  0.22389000  0.10498000  0.74960000  1
  C  C129  1  0.88109000  0.10498000  0.24960000  1
  C  C130  1  0.36180000  0.10060000  0.07100000  1
  C  C131  1  0.73880000  0.10060000  0.57100000  1
  C  C132  1  0.13834000  0.07188000  0.77590000  1
  C  C133  1  0.93354000  0.07188000  0.27590000  1
  C  C134  1  0.28532000  0.06104000  0.95990000  1
  C  C135  1  0.77572000  0.06104000  0.45990000  1
  C  C136  1  0.32808000  0.01216000  0.04560000  1
  C  C137  1  0.68408000  0.01216000  0.54560000  1
  C  C138  1  0.29795000  0.00730000  0.51000000  1
  C  C139  1  0.70935000  0.00730000  0.01000000  1
  Co  Co140  1  0.51669000  0.59612000  0.03516000  1
  Co  Co141  1  0.07943000  0.59612000  0.53516000  1
  Co  Co142  1  0.40146000  0.59022000  0.15666000  1
  Co  Co143  1  0.18876000  0.59022000  0.65666000  1
  Co  Co144  1  0.53569000  0.58232000  0.87019000  1
  Co  Co145  1  0.04663000  0.58232000  0.37019000  1
  Co  Co146  1  0.46431000  0.41768000  0.12981000  1
  Co  Co147  1  0.95337000  0.41768000  0.62981000  1
  Co  Co148  1  0.59854000  0.40978000  0.84334000  1
  Co  Co149  1  0.81124000  0.40978000  0.34334000  1
  Co  Co150  1  0.48331000  0.40388000  0.96484000  1
  Co  Co151  1  0.92057000  0.40388000  0.46484000  1
  H  H152  1  0.63450000  0.96520000  0.56620000  1
  H  H153  1  0.33070000  0.96520000  0.06620000  1
  H  H154  1  0.74240000  0.95300000  0.07780000  1
  H  H155  1  0.21060000  0.95300000  0.57780000  1
  H  H156  1  0.77240000  0.91960000  0.28750000  1
  H  H157  1  0.14720000  0.91960000  0.78750000  1
  H  H158  1  0.92790000  0.91180000  0.15380000  1
  H  H159  1  0.98390000  0.91180000  0.65380000  1
  H  H160  1  0.49550000  0.90440000  0.44050000  1
  H  H161  1  0.40890000  0.90440000  0.94050000  1
  H  H162  1  0.61330000  0.88620000  0.89060000  1
  H  H163  1  0.27290000  0.88620000  0.39060000  1
  H  H164  1  0.45800000  0.80420000  0.97550000  1
  H  H165  1  0.34620000  0.80420000  0.47550000  1
  H  H166  1  0.68220000  0.80400000  0.03580000  1
  H  H167  1  0.12180000  0.80400000  0.53580000  1
  H  H168  1  0.63610000  0.80240000  0.23990000  1
  H  H169  1  0.16630000  0.80240000  0.73990000  1
  H  H170  1  0.79250000  0.79400000  0.10770000  1
  H  H171  1  0.00150000  0.79400000  0.60770000  1
  H  H172  1  0.60250000  0.77100000  0.52860000  1
  H  H173  1  0.16850000  0.77100000  0.02860000  1
  H  H174  1  0.54960000  0.68360000  0.41090000  1
  H  H175  1  0.13400000  0.68360000  0.91090000  1
  H  H176  1  0.80180000  0.68320000  0.45330000  1
  H  H177  1  0.88140000  0.68320000  0.95330000  1
  H  H178  1  0.45360000  0.67340000  0.56490000  1
  H  H179  1  0.21980000  0.67340000  0.06490000  1
  H  H180  1  0.48800000  0.63640000  0.31680000  1
  H  H181  1  0.14840000  0.63640000  0.81680000  1
  H  H182  1  0.73210000  0.63520000  0.99010000  1
  H  H183  1  0.90310000  0.63520000  0.49010000  1
  H  H184  1  0.42940000  0.55680000  0.68800000  1
  H  H185  1  0.12740000  0.55680000  0.18800000  1
  H  H186  1  0.30720000  0.54720000  0.41180000  1
  H  H187  1  0.24000000  0.54720000  0.91180000  1
  H  H188  1  0.62060000  0.52540000  0.91870000  1
  H  H189  1  0.90480000  0.52540000  0.41870000  1
  H  H190  1  0.36680000  0.50980000  0.59410000  1
  H  H191  1  0.14300000  0.50980000  0.09410000  1
  H  H192  1  0.40910000  0.50120000  0.45050000  1
  H  H193  1  0.09210000  0.50120000  0.95050000  1
  H  H194  1  0.59090000  0.49880000  0.54950000  1
  H  H195  1  0.90790000  0.49880000  0.04950000  1
  H  H196  1  0.63320000  0.49020000  0.40590000  1
  H  H197  1  0.85700000  0.49020000  0.90590000  1
  H  H198  1  0.37940000  0.47460000  0.08130000  1
  H  H199  1  0.09520000  0.47460000  0.58130000  1
  H  H200  1  0.69280000  0.45280000  0.58820000  1
  H  H201  1  0.76000000  0.45280000  0.08820000  1
  H  H202  1  0.57060000  0.44320000  0.31200000  1
  H  H203  1  0.87260000  0.44320000  0.81200000  1
  H  H204  1  0.26790000  0.36480000  0.00990000  1
  H  H205  1  0.09690000  0.36480000  0.50990000  1
  H  H206  1  0.51200000  0.36360000  0.68320000  1
  H  H207  1  0.85160000  0.36360000  0.18320000  1
  H  H208  1  0.54640000  0.32660000  0.43510000  1
  H  H209  1  0.78020000  0.32660000  0.93510000  1
  H  H210  1  0.19820000  0.31680000  0.54670000  1
  H  H211  1  0.11860000  0.31680000  0.04670000  1
  H  H212  1  0.45040000  0.31640000  0.58910000  1
  H  H213  1  0.86600000  0.31640000  0.08910000  1
  H  H214  1  0.39750000  0.22900000  0.47140000  1
  H  H215  1  0.83150000  0.22900000  0.97140000  1
  H  H216  1  0.20750000  0.20600000  0.89230000  1
  H  H217  1  0.99850000  0.20600000  0.39230000  1
  H  H218  1  0.36390000  0.19760000  0.76010000  1
  H  H219  1  0.83370000  0.19760000  0.26010000  1
  H  H220  1  0.31780000  0.19600000  0.96420000  1
  H  H221  1  0.87820000  0.19600000  0.46420000  1
  H  H222  1  0.54200000  0.19580000  0.02450000  1
  H  H223  1  0.65380000  0.19580000  0.52450000  1
  H  H224  1  0.38670000  0.11380000  0.10940000  1
  H  H225  1  0.72710000  0.11380000  0.60940000  1
  H  H226  1  0.50450000  0.09560000  0.55950000  1
  H  H227  1  0.59110000  0.09560000  0.05950000  1
  H  H228  1  0.07210000  0.08820000  0.84620000  1
  H  H229  1  0.01610000  0.08820000  0.34620000  1
  H  H230  1  0.22760000  0.08040000  0.71250000  1
  H  H231  1  0.85280000  0.08040000  0.21250000  1
  H  H232  1  0.25760000  0.04700000  0.92220000  1
  H  H233  1  0.78940000  0.04700000  0.42220000  1
  H  H234  1  0.36550000  0.03480000  0.43380000  1
  H  H235  1  0.66930000  0.03480000  0.93380000  1
  O  O236  1  0.94330000  1.00000000  0.25000000  1
  O  O237  1  0.05670000  1.00000000  0.75000000  1
  O  O238  1  0.65109000  0.90678000  0.46141000  1
  O  O239  1  0.25569000  0.90678000  0.96141000  1
  O  O240  1  0.57374000  0.71928000  0.88085000  1
  O  O241  1  0.14554000  0.71928000  0.38085000  1
  O  O242  1  0.53596000  0.70460000  0.15687000  1
  O  O243  1  0.16864000  0.70460000  0.65687000  1
  O  O244  1  0.62206000  0.67556000  0.09316000  1
  O  O245  1  0.05350000  0.67556000  0.59316000  1
  O  O246  1  0.44904000  0.67108000  0.02550000  1
  O  O247  1  0.22204000  0.67108000  0.52550000  1
  O  O248  1  0.59490000  0.66756000  0.96226000  1
  O  O249  1  0.07266000  0.66756000  0.46226000  1
  O  O250  1  0.34079000  0.62964000  0.09462000  1
  O  O251  1  0.28885000  0.62964000  0.59462000  1
  O  O252  1  0.62715000  0.62110000  0.47365000  1
  O  O253  1  0.99395000  0.62110000  0.97365000  1
  O  O254  1  0.49502000  0.54584000  0.78620000  1
  O  O255  1  0.05082000  0.54584000  0.28620000  1
  O  O256  1  0.44016000  0.54452000  0.22645000  1
  O  O257  1  0.10436000  0.54452000  0.72645000  1
  O  O258  1  0.39579000  0.53584000  0.89302000  1
  O  O259  1  0.14005000  0.53584000  0.39302000  1
  O  O260  1  0.57894000  0.51190000  0.02397000  1
  O  O261  1  0.93296000  0.51190000  0.52397000  1
  O  O262  1  0.43128000  0.51054000  0.09884000  1
  O  O263  1  0.07926000  0.51054000  0.59884000  1
  O  O264  1  0.56872000  0.48946000  0.90116000  1
  O  O265  1  0.92074000  0.48946000  0.40116000  1
  O  O266  1  0.42106000  0.48810000  0.97603000  1
  O  O267  1  0.06704000  0.48810000  0.47603000  1
  O  O268  1  0.60421000  0.46416000  0.10698000  1
  O  O269  1  0.85995000  0.46416000  0.60698000  1
  O  O270  1  0.55984000  0.45548000  0.77355000  1
  O  O271  1  0.89564000  0.45548000  0.27355000  1
  O  O272  1  0.50498000  0.45416000  0.21380000  1
  O  O273  1  0.94918000  0.45416000  0.71380000  1
  O  O274  1  0.37285000  0.37890000  0.52635000  1
  O  O275  1  0.00605000  0.37890000  0.02635000  1
  O  O276  1  0.65921000  0.37036000  0.90538000  1
  O  O277  1  0.71115000  0.37036000  0.40538000  1
  O  O278  1  0.40510000  0.33244000  0.03774000  1
  O  O279  1  0.92734000  0.33244000  0.53774000  1
  O  O280  1  0.55096000  0.32892000  0.97450000  1
  O  O281  1  0.77796000  0.32892000  0.47450000  1
  O  O282  1  0.37794000  0.32444000  0.90684000  1
  O  O283  1  0.94650000  0.32444000  0.40684000  1
  O  O284  1  0.46404000  0.29540000  0.84313000  1
  O  O285  1  0.83136000  0.29540000  0.34313000  1
  O  O286  1  0.42626000  0.28072000  0.11915000  1
  O  O287  1  0.85446000  0.28072000  0.61915000  1
  O  O288  1  0.34891000  0.09322000  0.53859000  1
  O  O289  1  0.74431000  0.09322000  0.03859000  1
