# generated using pymatgen
data_ScH6(C2O)6
_symmetry_space_group_name_H-M   'P 1'
_cell_length_a   8.70470000
_cell_length_b   11.23660000
_cell_length_c   17.72935010
_cell_angle_alpha   84.54361441
_cell_angle_beta   75.78896064
_cell_angle_gamma   67.21100000
_symmetry_Int_Tables_number   1
_chemical_formula_structural   ScH6(C2O)6
_chemical_formula_sum   'Sc4 H24 C48 O24'
_cell_volume   1549.83402319
_cell_formula_units_Z   4
loop_
 _symmetry_equiv_pos_site_id
 _symmetry_equiv_pos_as_xyz
  1  'x, y, z'
loop_
 _atom_site_type_symbol
 _atom_site_label
 _atom_site_symmetry_multiplicity
 _atom_site_fract_x
 _atom_site_fract_y
 _atom_site_fract_z
 _atom_site_occupancy
  Sc  Sc0  1  0.11427000  0.75000000  0.77146000  1
  Sc  Sc1  1  0.36427000  0.25000000  0.27146000  1
  Sc  Sc2  1  0.63573000  0.75000000  0.72854000  1
  Sc  Sc3  1  0.88573000  0.25000000  0.22854000  1
  H  H4  1  0.68450000  0.62737000  0.24870000  1
  H  H5  1  0.80500000  0.43635000  0.01605000  1
  H  H6  1  0.21916000  0.57879000  0.59941000  1
  H  H7  1  0.56056000  0.87263000  0.25130000  1
  H  H8  1  0.82105000  0.93635000  0.98395000  1
  H  H9  1  0.18143000  0.92121000  0.59941000  1
  H  H10  1  0.25871000  0.06098000  0.48698000  1
  H  H11  1  0.25866000  0.43635000  0.48395000  1
  H  H12  1  0.60301000  0.07866000  0.09932000  1
  H  H13  1  0.93319000  0.12737000  0.75130000  1
  H  H14  1  0.70205000  0.57879000  0.90059000  1
  H  H15  1  0.81187000  0.37263000  0.74870000  1
  H  H16  1  0.18813000  0.62737000  0.25130000  1
  H  H17  1  0.29767000  0.42134000  0.09932000  1
  H  H18  1  0.06681000  0.87263000  0.24870000  1
  H  H19  1  0.39736000  0.92121000  0.90059000  1
  H  H20  1  0.74261000  0.93635000  0.51605000  1
  H  H21  1  0.74134000  0.56365000  0.51605000  1
  H  H22  1  0.81833000  0.07866000  0.40068000  1
  H  H23  1  0.17895000  0.06365000  0.01605000  1
  H  H24  1  0.43944000  0.12737000  0.74870000  1
  H  H25  1  0.78084000  0.42121000  0.40059000  1
  H  H26  1  0.19500000  0.56365000  0.98395000  1
  H  H27  1  0.31550000  0.37263000  0.75130000  1
  C  C28  1  0.73766000  0.02468000  0.25000000  1
  C  C29  1  0.23006000  0.31762000  0.75038000  1
  C  C30  1  0.51665000  0.43518000  0.43592000  1
  C  C31  1  0.70194000  0.81762000  0.25038000  1
  C  C32  1  0.19115000  0.11770000  0.75000000  1
  C  C33  1  0.34652000  0.54030000  0.55506000  1
  C  C34  1  0.53373000  0.35970000  0.36704000  1
  C  C35  1  0.36349000  0.46814000  0.49148000  1
  C  C36  1  0.05885000  0.38230000  0.75000000  1
  C  C37  1  0.01956000  0.18238000  0.75038000  1
  C  C38  1  0.60657000  0.35970000  0.13296000  1
  C  C39  1  0.98766000  0.52468000  0.75000000  1
  C  C40  1  0.95232000  0.31762000  0.74962000  1
  C  C41  1  0.66837000  0.46814000  0.00852000  1
  C  C42  1  0.67689000  0.96814000  0.99148000  1
  C  C43  1  0.09842000  0.95970000  0.55506000  1
  C  C44  1  0.14503000  0.03186000  0.49148000  1
  C  C45  1  0.55812000  0.04030000  0.05506000  1
  C  C46  1  0.54817000  0.43518000  0.06408000  1
  C  C47  1  0.73953000  0.85970000  0.86704000  1
  C  C48  1  0.61318000  0.54030000  0.94494000  1
  C  C49  1  0.61225000  0.93518000  0.93592000  1
  C  C50  1  0.90077000  0.85970000  0.63296000  1
  C  C51  1  0.95257000  0.93518000  0.56408000  1
  C  C52  1  0.04743000  0.06482000  0.43592000  1
  C  C53  1  0.09923000  0.14030000  0.36704000  1
  C  C54  1  0.38775000  0.06482000  0.06408000  1
  C  C55  1  0.38682000  0.45970000  0.05506000  1
  C  C56  1  0.26047000  0.14030000  0.13296000  1
  C  C57  1  0.45183000  0.56482000  0.93592000  1
  C  C58  1  0.44188000  0.95970000  0.94494000  1
  C  C59  1  0.85497000  0.96814000  0.50852000  1
  C  C60  1  0.90158000  0.04030000  0.44494000  1
  C  C61  1  0.32311000  0.03186000  0.00852000  1
  C  C62  1  0.33163000  0.53186000  0.99148000  1
  C  C63  1  0.04768000  0.68238000  0.25038000  1
  C  C64  1  0.01234000  0.47532000  0.25000000  1
  C  C65  1  0.39343000  0.64030000  0.86704000  1
  C  C66  1  0.98044000  0.81762000  0.24962000  1
  C  C67  1  0.94115000  0.61770000  0.25000000  1
  C  C68  1  0.63651000  0.53186000  0.50852000  1
  C  C69  1  0.46627000  0.64030000  0.63296000  1
  C  C70  1  0.65348000  0.45970000  0.44494000  1
  C  C71  1  0.80885000  0.88230000  0.25000000  1
  C  C72  1  0.29806000  0.18238000  0.74962000  1
  C  C73  1  0.48335000  0.56482000  0.56408000  1
  C  C74  1  0.76994000  0.68238000  0.24962000  1
  C  C75  1  0.26234000  0.97532000  0.75000000  1
  O  O76  1  0.67087000  0.33140000  0.31566000  1
  O  O77  1  0.16312000  0.91644000  0.77092000  1
  O  O78  1  0.74969000  0.33092000  0.14170000  1
  O  O79  1  0.57956000  0.08356000  0.27092000  1
  O  O80  1  0.06596000  0.58356000  0.77092000  1
  O  O81  1  0.41939000  0.33092000  0.35830000  1
  O  O82  1  0.89139000  0.83092000  0.85830000  1
  O  O83  1  0.49773000  0.33140000  0.18434000  1
  O  O84  1  0.98653000  0.83140000  0.68434000  1
  O  O85  1  0.22231000  0.16908000  0.35830000  1
  O  O86  1  0.85048000  0.58356000  0.72908000  1
  O  O87  1  0.31793000  0.16860000  0.18434000  1
  O  O88  1  0.68207000  0.83140000  0.81566000  1
  O  O89  1  0.14952000  0.41644000  0.27092000  1
  O  O90  1  0.77769000  0.83092000  0.64170000  1
  O  O91  1  0.01347000  0.16860000  0.31566000  1
  O  O92  1  0.50227000  0.66860000  0.81566000  1
  O  O93  1  0.10861000  0.16908000  0.14170000  1
  O  O94  1  0.58061000  0.66908000  0.64170000  1
  O  O95  1  0.93404000  0.41644000  0.22908000  1
  O  O96  1  0.42044000  0.91644000  0.72908000  1
  O  O97  1  0.25031000  0.66908000  0.85830000  1
  O  O98  1  0.83688000  0.08356000  0.22908000  1
  O  O99  1  0.32913000  0.66860000  0.68434000  1
