# generated using pymatgen
data_La2H40C52O19
_symmetry_space_group_name_H-M   'P 1'
_cell_length_a   7.39330000
_cell_length_b   14.34900000
_cell_length_c   16.97537500
_cell_angle_alpha   104.15402128
_cell_angle_beta   102.57762184
_cell_angle_gamma   90.00000000
_symmetry_Int_Tables_number   1
_chemical_formula_structural   La2H40C52O19
_chemical_formula_sum   'La2 H40 C52 O19'
_cell_volume   1701.58169410
_cell_formula_units_Z   1
loop_
 _symmetry_equiv_pos_site_id
 _symmetry_equiv_pos_as_xyz
  1  'x, y, z'
loop_
 _atom_site_type_symbol
 _atom_site_label
 _atom_site_symmetry_multiplicity
 _atom_site_fract_x
 _atom_site_fract_y
 _atom_site_fract_z
 _atom_site_occupancy
  La  La0  1  0.50739000  0.96377000  0.50132000  1
  La  La1  1  0.00607000  0.03623000  0.49868000  1
  H  H2  1  0.65340000  0.20960000  0.58240000  1
  H  H3  1  0.37740000  0.88110000  0.26940000  1
  H  H4  1  0.86490000  0.80060000  0.71760000  1
  H  H5  1  0.35120000  0.43310000  0.20300000  1
  H  H6  1  0.28080000  0.52700000  0.09880000  1
  H  H7  1  0.88490000  0.32440000  0.66440000  1
  H  H8  1  0.36880000  0.34370000  0.13060000  1
  H  H9  1  0.38920000  0.78940000  0.13720000  1
  H  H10  1  0.30160000  0.43340000  0.03120000  1
  H  H11  1  0.18200000  0.47300000  0.90120000  1
  H  H12  1  0.27040000  0.56660000  0.96880000  1
  H  H13  1  0.58140000  0.67220000  0.27600000  1
  H  H14  1  0.57410000  0.34190000  0.24840000  1
  H  H15  1  0.97260000  0.87270000  0.62840000  1
  H  H16  1  0.14820000  0.56690000  0.79700000  1
  H  H17  1  0.23820000  0.65630000  0.86940000  1
  H  H18  1  0.10800000  0.11890000  0.73060000  1
  H  H19  1  0.25200000  0.21060000  0.86280000  1
  H  H20  1  0.77600000  0.26880000  0.33820000  1
  H  H21  1  0.72590000  0.55600000  0.19840000  1
  H  H22  1  0.32570000  0.65810000  0.75160000  1
  H  H23  1  0.30540000  0.32780000  0.72400000  1
  H  H24  1  0.82670000  0.88120000  0.19760000  1
  H  H25  1  0.07100000  0.79040000  0.41760000  1
  H  H26  1  0.52750000  0.44400000  0.80160000  1
  H  H27  1  0.92280000  0.42400000  0.17140000  1
  H  H28  1  0.83800000  0.79360000  0.06540000  1
  H  H29  1  0.43780000  0.73120000  0.66180000  1
  H  H30  1  0.89800000  0.49210000  0.11040000  1
  H  H31  1  0.62910000  0.11880000  0.80240000  1
  H  H32  1  0.77260000  0.20640000  0.93460000  1
  H  H33  1  0.14730000  0.19940000  0.28240000  1
  H  H34  1  0.22050000  0.67560000  0.33560000  1
  H  H35  1  0.89940000  0.34770000  0.00840000  1
  H  H36  1  0.78760000  0.50790000  0.88960000  1
  H  H37  1  0.96680000  0.28100000  0.06880000  1
  H  H38  1  0.89100000  0.65230000  0.99160000  1
  H  H39  1  0.75140000  0.57600000  0.82860000  1
  H  H40  1  0.89800000  0.71900000  0.93120000  1
  H  H41  1  0.34420000  0.12730000  0.37160000  1
  C  C42  1  0.62790000  0.25640000  0.62660000  1
  C  C43  1  0.96820000  0.67530000  0.96000000  1
  C  C44  1  0.12480000  0.41050000  0.10400000  1
  C  C45  1  0.11290000  0.78130000  0.09120000  1
  C  C46  1  0.26820000  0.86290000  0.22880000  1
  C  C47  1  0.39180000  0.17000000  0.34700000  1
  C  C48  1  0.75460000  0.05380000  0.66880000  1
  C  C49  1  0.34230000  0.27550000  0.25560000  1
  C  C50  1  0.76740000  0.32520000  0.67580000  1
  C  C51  1  0.85230000  0.10890000  0.75240000  1
  C  C52  1  0.02170000  0.21870000  0.90880000  1
  C  C53  1  0.28370000  0.37760000  0.16240000  1
  C  C54  1  0.02080000  0.58950000  0.89600000  1
  C  C55  1  0.27610000  0.80780000  0.14980000  1
  C  C56  1  0.21370000  0.47090000  0.05880000  1
  C  C57  1  0.15490000  0.52910000  0.94120000  1
  C  C58  1  0.58310000  0.19110000  0.36400000  1
  C  C59  1  0.52810000  0.29810000  0.27260000  1
  C  C60  1  0.03940000  0.13710000  0.77120000  1
  C  C61  1  0.98130000  0.78710000  0.70660000  1
  C  C62  1  0.12630000  0.19220000  0.85020000  1
  C  C63  1  0.12130000  0.62240000  0.83760000  1
  C  C64  1  0.71630000  0.14370000  0.41860000  1
  C  C65  1  0.71240000  0.81750000  0.40620000  1
  C  C66  1  0.64890000  0.25440000  0.32700000  1
  C  C67  1  0.08670000  0.72450000  0.74440000  1
  C  C68  1  0.04480000  0.83000000  0.65300000  1
  C  C69  1  0.71020000  0.67230000  0.28900000  1
  C  C70  1  0.81020000  0.74280000  0.35700000  1
  C  C71  1  0.25550000  0.70190000  0.72740000  1
  C  C72  1  0.79600000  0.60370000  0.24160000  1
  C  C73  1  0.21910000  0.80890000  0.63600000  1
  C  C74  1  0.00130000  0.74360000  0.37340000  1
  C  C75  1  0.32190000  0.74560000  0.67300000  1
  C  C76  1  0.42120000  0.32770000  0.71100000  1
  C  C77  1  0.30620000  0.18250000  0.59380000  1
  C  C78  1  0.29770000  0.85630000  0.58140000  1
  C  C79  1  0.98670000  0.60510000  0.25800000  1
  C  C80  1  0.08580000  0.94620000  0.33120000  1
  C  C81  1  0.94080000  0.86340000  0.18580000  1
  C  C82  1  0.09160000  0.67480000  0.32420000  1
  C  C83  1  0.55440000  0.39630000  0.75840000  1
  C  C84  1  0.45320000  0.25720000  0.64300000  1
  C  C85  1  0.94630000  0.80980000  0.10700000  1
  C  C86  1  0.98830000  0.46610000  0.14880000  1
  C  C87  1  0.09990000  0.89110000  0.24760000  1
  C  C88  1  0.75500000  0.13660000  0.81420000  1
  C  C89  1  0.83930000  0.19020000  0.89300000  1
  C  C90  1  0.00820000  0.32470000  0.04000000  1
  C  C91  1  0.27470000  0.21290000  0.29340000  1
  C  C92  1  0.72870000  0.39490000  0.74200000  1
  C  C93  1  0.83950000  0.53390000  0.85120000  1
  O  O94  1  0.21310000  0.31540000  0.20420000  1
  O  O95  1  0.07750000  0.50000000  0.00000000  1
  O  O96  1  0.87385000  0.45770000  0.78550000  1
  O  O97  1  0.13085000  0.72440000  0.01490000  1
  O  O98  1  0.11595000  0.27560000  0.98510000  1
  O  O99  1  0.54063000  0.81540000  0.39046000  1
  O  O100  1  0.00890000  0.68460000  0.79580000  1
  O  O101  1  0.66035000  0.07190000  0.44010000  1
  O  O102  1  0.83229000  0.04240000  0.60778000  1
  O  O103  1  0.80697000  0.88390000  0.46534000  1
  O  O104  1  0.88300000  0.17390000  0.44260000  1
  O  O105  1  0.15017000  0.18460000  0.60954000  1
  O  O106  1  0.93533000  0.97780000  0.34206000  1
  O  O107  1  0.22025000  0.92810000  0.55990000  1
  O  O108  1  0.34163000  0.11610000  0.53466000  1
  O  O109  1  0.22451000  0.95760000  0.39222000  1
  O  O110  1  0.08835000  0.54230000  0.21450000  1
  O  O111  1  0.44040000  0.82610000  0.55740000  1
  O  O112  1  0.59327000  0.02220000  0.65794000  1
