# generated using pymatgen
data_VCdPH14C15N3O7
_symmetry_space_group_name_H-M   'P 1'
_cell_length_a   9.12670000
_cell_length_b   15.36100000
_cell_length_c   17.61000000
_cell_angle_alpha   90.00000000
_cell_angle_beta   90.00000000
_cell_angle_gamma   93.06000000
_symmetry_Int_Tables_number   1
_chemical_formula_structural   VCdPH14C15N3O7
_chemical_formula_sum   'V4 Cd4 P4 H56 C60 N12 O28'
_cell_volume   2465.31803745
_cell_formula_units_Z   4
loop_
 _symmetry_equiv_pos_site_id
 _symmetry_equiv_pos_as_xyz
  1  'x, y, z'
loop_
 _atom_site_type_symbol
 _atom_site_label
 _atom_site_symmetry_multiplicity
 _atom_site_fract_x
 _atom_site_fract_y
 _atom_site_fract_z
 _atom_site_occupancy
  V  V0  1  0.07003000  0.16758000  0.51176000  1
  V  V1  1  0.07003000  0.66758000  0.98824000  1
  V  V2  1  0.92997000  0.33242000  0.01176000  1
  V  V3  1  0.92997000  0.83242000  0.48824000  1
  Cd  Cd4  1  0.17945000  0.36591000  0.75685000  1
  Cd  Cd5  1  0.17945000  0.86591000  0.74315000  1
  Cd  Cd6  1  0.82055000  0.13409000  0.25685000  1
  Cd  Cd7  1  0.82055000  0.63409000  0.24315000  1
  P  P8  1  0.04823000  0.49277000  0.89530000  1
  P  P9  1  0.04823000  0.99277000  0.60470000  1
  P  P10  1  0.95177000  0.00723000  0.39530000  1
  P  P11  1  0.95177000  0.50723000  0.10470000  1
  H  H12  1  0.08800000  0.44060000  0.27580000  1
  H  H13  1  0.08800000  0.94060000  0.22420000  1
  H  H14  1  0.10310000  0.16490000  0.77930000  1
  H  H15  1  0.10310000  0.66490000  0.72070000  1
  H  H16  1  0.17090000  0.14750000  0.25780000  1
  H  H17  1  0.17090000  0.64750000  0.24220000  1
  H  H18  1  0.21740000  0.47110000  0.99450000  1
  H  H19  1  0.21740000  0.97110000  0.50550000  1
  H  H20  1  0.27850000  0.00970000  0.30350000  1
  H  H21  1  0.27850000  0.50970000  0.19650000  1
  H  H22  1  0.29390000  0.03600000  0.82710000  1
  H  H23  1  0.29390000  0.53600000  0.67290000  1
  H  H24  1  0.29960000  0.46820000  0.91400000  1
  H  H25  1  0.29960000  0.96820000  0.58600000  1
  H  H26  1  0.30930000  0.08830000  0.66120000  1
  H  H27  1  0.30930000  0.58830000  0.83880000  1
  H  H28  1  0.36800000  0.06040000  0.44670000  1
  H  H29  1  0.36800000  0.56040000  0.05330000  1
  H  H30  1  0.37080000  0.24720000  0.25650000  1
  H  H31  1  0.37080000  0.74720000  0.24350000  1
  H  H32  1  0.43840000  0.14080000  0.61650000  1
  H  H33  1  0.43840000  0.64080000  0.88350000  1
  H  H34  1  0.47810000  0.10940000  0.30770000  1
  H  H35  1  0.47810000  0.60940000  0.19230000  1
  H  H36  1  0.48310000  0.10590000  0.50500000  1
  H  H37  1  0.48310000  0.60590000  0.99500000  1
  H  H38  1  0.48450000  0.14230000  0.83320000  1
  H  H39  1  0.48450000  0.64230000  0.66680000  1
  H  H40  1  0.51550000  0.35770000  0.33320000  1
  H  H41  1  0.51550000  0.85770000  0.16680000  1
  H  H42  1  0.51690000  0.39410000  0.00500000  1
  H  H43  1  0.51690000  0.89410000  0.49500000  1
  H  H44  1  0.52190000  0.39060000  0.80770000  1
  H  H45  1  0.52190000  0.89060000  0.69230000  1
  H  H46  1  0.56160000  0.35920000  0.11650000  1
  H  H47  1  0.56160000  0.85920000  0.38350000  1
  H  H48  1  0.62920000  0.25280000  0.75650000  1
  H  H49  1  0.62920000  0.75280000  0.74350000  1
  H  H50  1  0.63200000  0.43960000  0.94670000  1
  H  H51  1  0.63200000  0.93960000  0.55330000  1
  H  H52  1  0.69070000  0.41170000  0.16120000  1
  H  H53  1  0.69070000  0.91170000  0.33880000  1
  H  H54  1  0.70040000  0.03180000  0.41400000  1
  H  H55  1  0.70040000  0.53180000  0.08600000  1
  H  H56  1  0.70610000  0.46400000  0.32710000  1
  H  H57  1  0.70610000  0.96400000  0.17290000  1
  H  H58  1  0.72150000  0.49030000  0.80350000  1
  H  H59  1  0.72150000  0.99030000  0.69650000  1
  H  H60  1  0.78260000  0.02890000  0.49450000  1
  H  H61  1  0.78260000  0.52890000  0.00550000  1
  H  H62  1  0.82910000  0.35250000  0.75780000  1
  H  H63  1  0.82910000  0.85250000  0.74220000  1
  H  H64  1  0.89690000  0.33510000  0.27930000  1
  H  H65  1  0.89690000  0.83510000  0.22070000  1
  H  H66  1  0.91200000  0.05940000  0.77580000  1
  H  H67  1  0.91200000  0.55940000  0.72420000  1
  C  C68  1  0.00550000  0.18270000  0.77400000  1
  C  C69  1  0.00550000  0.68270000  0.72600000  1
  C  C70  1  0.10790000  0.38070000  0.27270000  1
  C  C71  1  0.10790000  0.88070000  0.22730000  1
  C  C72  1  0.15450000  0.20790000  0.26180000  1
  C  C73  1  0.15450000  0.70790000  0.23820000  1
  C  C74  1  0.22670000  0.49910000  0.94400000  1
  C  C75  1  0.22670000  0.99910000  0.55600000  1
  C  C76  1  0.25090000  0.35560000  0.26670000  1
  C  C77  1  0.25090000  0.85560000  0.23330000  1
  C  C78  1  0.26320000  0.21590000  0.63970000  1
  C  C79  1  0.26320000  0.71590000  0.86030000  1
  C  C80  1  0.27420000  0.26680000  0.26090000  1
  C  C81  1  0.27420000  0.76680000  0.23910000  1
  C  C82  1  0.33060000  0.13070000  0.61980000  1
  C  C83  1  0.33060000  0.63070000  0.88020000  1
  C  C84  1  0.36200000  0.19530000  0.44700000  1
  C  C85  1  0.36200000  0.69530000  0.05300000  1
  C  C86  1  0.36590000  0.49840000  0.22320000  1
  C  C87  1  0.36590000  0.99840000  0.27680000  1
  C  C88  1  0.37530000  0.42190000  0.26490000  1
  C  C89  1  0.37530000  0.92190000  0.23510000  1
  C  C90  1  0.38140000  0.02750000  0.79950000  1
  C  C91  1  0.38140000  0.52750000  0.70050000  1
  C  C92  1  0.38200000  0.10750000  0.48490000  1
  C  C93  1  0.38200000  0.60750000  0.01510000  1
  C  C94  1  0.48530000  0.05760000  0.27880000  1
  C  C95  1  0.48530000  0.55760000  0.22120000  1
  C  C96  1  0.49500000  0.09100000  0.80400000  1
  C  C97  1  0.49500000  0.59100000  0.69600000  1
  C  C98  1  0.50500000  0.40900000  0.30400000  1
  C  C99  1  0.50500000  0.90900000  0.19600000  1
  C  C100  1  0.51470000  0.44240000  0.77880000  1
  C  C101  1  0.51470000  0.94240000  0.72120000  1
  C  C102  1  0.61800000  0.39250000  0.98490000  1
  C  C103  1  0.61800000  0.89250000  0.51510000  1
  C  C104  1  0.61860000  0.47250000  0.29950000  1
  C  C105  1  0.61860000  0.97250000  0.20050000  1
  C  C106  1  0.62470000  0.07810000  0.76490000  1
  C  C107  1  0.62470000  0.57810000  0.73510000  1
  C  C108  1  0.63410000  0.00160000  0.72320000  1
  C  C109  1  0.63410000  0.50160000  0.77680000  1
  C  C110  1  0.63800000  0.30470000  0.94700000  1
  C  C111  1  0.63800000  0.80470000  0.55300000  1
  C  C112  1  0.66940000  0.36930000  0.11980000  1
  C  C113  1  0.66940000  0.86930000  0.38020000  1
  C  C114  1  0.72580000  0.23320000  0.76090000  1
  C  C115  1  0.72580000  0.73320000  0.73910000  1
  C  C116  1  0.73680000  0.28410000  0.13970000  1
  C  C117  1  0.73680000  0.78410000  0.36030000  1
  C  C118  1  0.74910000  0.14440000  0.76670000  1
  C  C119  1  0.74910000  0.64440000  0.73330000  1
  C  C120  1  0.77330000  0.00090000  0.44400000  1
  C  C121  1  0.77330000  0.50090000  0.05600000  1
  C  C122  1  0.84550000  0.29210000  0.76180000  1
  C  C123  1  0.84550000  0.79210000  0.73820000  1
  C  C124  1  0.89210000  0.11930000  0.77270000  1
  C  C125  1  0.89210000  0.61930000  0.72730000  1
  C  C126  1  0.99450000  0.31730000  0.27400000  1
  C  C127  1  0.99450000  0.81730000  0.22600000  1
  N  N128  1  0.01600000  0.23220000  0.26810000  1
  N  N129  1  0.01600000  0.73220000  0.23190000  1
  N  N130  1  0.27580000  0.09255000  0.54732000  1
  N  N131  1  0.27580000  0.59255000  0.95268000  1
  N  N132  1  0.38920000  0.45480000  0.74179000  1
  N  N133  1  0.38920000  0.95480000  0.75821000  1
  N  N134  1  0.61080000  0.04520000  0.24179000  1
  N  N135  1  0.61080000  0.54520000  0.25821000  1
  N  N136  1  0.72420000  0.40745000  0.04732000  1
  N  N137  1  0.72420000  0.90745000  0.45268000  1
  N  N138  1  0.98400000  0.26780000  0.76810000  1
  N  N139  1  0.98400000  0.76780000  0.73190000  1
  O  O140  1  0.01460000  0.41792000  0.08768000  1
  O  O141  1  0.01460000  0.91792000  0.41232000  1
  O  O142  1  0.04910000  0.08080000  0.43022000  1
  O  O143  1  0.04910000  0.58080000  0.06978000  1
  O  O144  1  0.07100000  0.47850000  0.81133000  1
  O  O145  1  0.07100000  0.97850000  0.68867000  1
  O  O146  1  0.15490000  0.23909000  0.59997000  1
  O  O147  1  0.15490000  0.73909000  0.90003000  1
  O  O148  1  0.23580000  0.22609000  0.45250000  1
  O  O149  1  0.23580000  0.72609000  0.04750000  1
  O  O150  1  0.31330000  0.25765000  0.69560000  1
  O  O151  1  0.31330000  0.75765000  0.80440000  1
  O  O152  1  0.46630000  0.23080000  0.41166000  1
  O  O153  1  0.46630000  0.73080000  0.08834000  1
  O  O154  1  0.53370000  0.26920000  0.91166000  1
  O  O155  1  0.53370000  0.76920000  0.58834000  1
  O  O156  1  0.68670000  0.24235000  0.19560000  1
  O  O157  1  0.68670000  0.74235000  0.30440000  1
  O  O158  1  0.76420000  0.27391000  0.95250000  1
  O  O159  1  0.76420000  0.77391000  0.54750000  1
  O  O160  1  0.84510000  0.26091000  0.09997000  1
  O  O161  1  0.84510000  0.76091000  0.40003000  1
  O  O162  1  0.92900000  0.02150000  0.31133000  1
  O  O163  1  0.92900000  0.52150000  0.18867000  1
  O  O164  1  0.95090000  0.41920000  0.93022000  1
  O  O165  1  0.95090000  0.91920000  0.56978000  1
  O  O166  1  0.98540000  0.08208000  0.58768000  1
  O  O167  1  0.98540000  0.58208000  0.91232000  1
