# generated using pymatgen
data_Yb2H2(C5O4)3
_symmetry_space_group_name_H-M   'P 1'
_cell_length_a   5.72520000
_cell_length_b   13.63370000
_cell_length_c   13.63370000
_cell_angle_alpha   80.49620000
_cell_angle_beta   88.22640000
_cell_angle_gamma   88.22640000
_symmetry_Int_Tables_number   1
_chemical_formula_structural   Yb2H2(C5O4)3
_chemical_formula_sum   'Yb4 H4 C30 O24'
_cell_volume   1048.71781493
_cell_formula_units_Z   2
loop_
 _symmetry_equiv_pos_site_id
 _symmetry_equiv_pos_as_xyz
  1  'x, y, z'
loop_
 _atom_site_type_symbol
 _atom_site_label
 _atom_site_symmetry_multiplicity
 _atom_site_fract_x
 _atom_site_fract_y
 _atom_site_fract_z
 _atom_site_occupancy
  Yb  Yb0  1  0.58434000  0.89967000  0.37595000  1
  Yb  Yb1  1  0.58434000  0.37595000  0.89967000  1
  Yb  Yb2  1  0.41566000  0.62405000  0.10033000  1
  Yb  Yb3  1  0.41566000  0.10033000  0.62405000  1
  H  H4  1  0.78310000  0.62200000  0.62200000  1
  H  H5  1  0.61710000  0.23470000  0.23470000  1
  H  H6  1  0.38290000  0.76530000  0.76530000  1
  H  H7  1  0.21690000  0.37800000  0.37800000  1
  C  C8  1  0.99420000  0.73960000  0.60260000  1
  C  C9  1  0.99420000  0.60260000  0.73960000  1
  C  C10  1  0.90500000  0.65030000  0.65030000  1
  C  C11  1  0.90060000  0.95190000  0.09030000  1
  C  C12  1  0.90060000  0.09030000  0.95190000  1
  C  C13  1  0.87230000  0.79330000  0.51190000  1
  C  C14  1  0.87230000  0.51190000  0.79330000  1
  C  C15  1  0.82830000  0.35540000  0.21800000  1
  C  C16  1  0.82830000  0.21800000  0.35540000  1
  C  C17  1  0.80700000  0.04160000  0.04160000  1
  C  C18  1  0.78890000  0.91550000  0.19030000  1
  C  C19  1  0.78890000  0.19030000  0.91550000  1
  C  C20  1  0.73600000  0.26390000  0.26390000  1
  C  C21  1  0.72040000  0.39730000  0.11890000  1
  C  C22  1  0.72040000  0.11890000  0.39730000  1
  C  C23  1  0.27960000  0.88110000  0.60270000  1
  C  C24  1  0.27960000  0.60270000  0.88110000  1
  C  C25  1  0.26400000  0.73610000  0.73610000  1
  C  C26  1  0.21110000  0.80970000  0.08450000  1
  C  C27  1  0.21110000  0.08450000  0.80970000  1
  C  C28  1  0.19300000  0.95840000  0.95840000  1
  C  C29  1  0.17170000  0.78200000  0.64460000  1
  C  C30  1  0.17170000  0.64460000  0.78200000  1
  C  C31  1  0.12770000  0.48810000  0.20670000  1
  C  C32  1  0.12770000  0.20670000  0.48810000  1
  C  C33  1  0.09940000  0.90970000  0.04810000  1
  C  C34  1  0.09940000  0.04810000  0.90970000  1
  C  C35  1  0.09500000  0.34970000  0.34970000  1
  C  C36  1  0.00580000  0.39740000  0.26040000  1
  C  C37  1  0.00580000  0.26040000  0.39740000  1
  O  O38  1  0.90520000  0.87030000  0.26390000  1
  O  O39  1  0.90520000  0.26390000  0.87030000  1
  O  O40  1  0.88670000  0.88700000  0.49260000  1
  O  O41  1  0.88670000  0.49260000  0.88700000  1
  O  O42  1  0.75130000  0.74690000  0.45970000  1
  O  O43  1  0.75130000  0.45970000  0.74690000  1
  O  O44  1  0.74780000  0.34780000  0.05160000  1
  O  O45  1  0.74780000  0.05160000  0.34780000  1
  O  O46  1  0.60480000  0.47810000  0.11370000  1
  O  O47  1  0.60480000  0.11370000  0.47810000  1
  O  O48  1  0.57860000  0.93790000  0.20350000  1
  O  O49  1  0.57860000  0.20350000  0.93790000  1
  O  O50  1  0.42140000  0.79650000  0.06210000  1
  O  O51  1  0.42140000  0.06210000  0.79650000  1
  O  O52  1  0.39520000  0.88630000  0.52190000  1
  O  O53  1  0.39520000  0.52190000  0.88630000  1
  O  O54  1  0.25220000  0.94840000  0.65220000  1
  O  O55  1  0.25220000  0.65220000  0.94840000  1
  O  O56  1  0.24870000  0.54030000  0.25310000  1
  O  O57  1  0.24870000  0.25310000  0.54030000  1
  O  O58  1  0.11330000  0.50740000  0.11300000  1
  O  O59  1  0.11330000  0.11300000  0.50740000  1
  O  O60  1  0.09480000  0.73610000  0.12970000  1
  O  O61  1  0.09480000  0.12970000  0.73610000  1
