# generated using pymatgen
data_Cu16H32C48N40Cl3
_symmetry_space_group_name_H-M   'P 1'
_cell_length_a   11.67600000
_cell_length_b   14.83850587
_cell_length_c   14.83850587
_cell_angle_alpha   72.05389511
_cell_angle_beta   77.84095868
_cell_angle_gamma   77.84095868
_symmetry_Int_Tables_number   1
_chemical_formula_structural   Cu16H32C48N40Cl3
_chemical_formula_sum   'Cu16 H32 C48 N40 Cl3'
_cell_volume   2361.35578668
_cell_formula_units_Z   1
loop_
 _symmetry_equiv_pos_site_id
 _symmetry_equiv_pos_as_xyz
  1  'x, y, z'
loop_
 _atom_site_type_symbol
 _atom_site_label
 _atom_site_symmetry_multiplicity
 _atom_site_fract_x
 _atom_site_fract_y
 _atom_site_fract_z
 _atom_site_occupancy
  C  C0  1  0.74200000  0.99900000  0.82500000  1
  C  C1  1  0.65500000  0.50400000  0.31200000  1
  C  C2  1  0.64700000  0.94800000  0.86200000  1
  C  C3  1  0.75400000  0.44600000  0.36200000  1
  C  C4  1  0.38900000  0.36700000  0.43100000  1
  C  C5  1  0.39300000  0.15000000  0.63400000  1
  C  C6  1  0.84300000  0.96100000  0.77100000  1
  C  C7  1  0.66300000  0.50500000  0.21900000  1
  C  C8  1  0.83800000  0.39700000  0.31700000  1
  C  C9  1  0.93800000  0.99800000  0.71400000  1
  C  C10  1  0.65400000  0.85900000  0.84700000  1
  C  C11  1  0.94600000  0.34000000  0.36400000  1
  C  C12  1  0.45000000  0.33600000  0.34600000  1
  C  C13  1  0.43600000  0.10800000  0.55000000  1
  C  C14  1  0.76400000  0.45500000  0.17700000  1
  C  C15  1  0.75400000  0.82100000  0.79300000  1
  C  C16  1  0.40800000  0.35200000  0.26000000  1
  C  C17  1  0.54900000  0.06600000  0.51800000  1
  C  C18  1  0.52300000  0.61300000  0.95700000  1
  C  C19  1  0.40900000  0.80000000  0.73600000  1
  C  C20  1  0.63300000  0.24700000  0.28500000  1
  C  C21  1  0.43100000  0.56300000  0.96700000  1
  C  C22  1  0.36300000  0.08500000  0.41900000  1
  C  C23  1  0.47900000  0.31600000  0.18600000  1
  C  C24  1  0.52100000  0.81400000  0.68400000  1
  C  C25  1  0.63700000  0.58100000  0.91500000  1
  C  C26  1  0.56900000  0.03300000  0.43700000  1
  C  C27  1  0.36700000  0.71500000  0.75300000  1
  C  C28  1  0.59100000  0.26400000  0.20000000  1
  C  C29  1  0.47700000  0.04300000  0.38700000  1
  C  C30  1  0.45100000  0.48200000  0.93400000  1
  C  C31  1  0.59200000  0.74000000  0.64800000  1
  C  C32  1  0.24600000  0.20700000  0.17900000  1
  C  C33  1  0.23600000  0.82300000  0.54500000  1
  C  C34  1  0.56400000  0.45000000  0.89200000  1
  C  C35  1  0.55000000  0.65400000  0.66400000  1
  C  C36  1  0.05400000  0.63600000  0.66000000  1
  C  C37  1  0.34600000  0.15300000  0.14100000  1
  C  C38  1  0.06200000  0.28600000  0.00200000  1
  C  C39  1  0.16200000  0.68300000  0.60300000  1
  C  C40  1  0.33700000  0.78100000  0.49500000  1
  C  C41  1  0.15700000  0.22900000  0.03900000  1
  C  C42  1  0.60700000  0.36600000  0.85000000  1
  C  C43  1  0.61100000  0.56900000  0.63300000  1
  C  C44  1  0.24600000  0.63800000  0.55400000  1
  C  C45  1  0.35300000  0.13800000  0.05200000  1
  C  C46  1  0.34500000  0.68800000  0.49600000  1
  C  C47  1  0.25800000  0.17500000  0.00100000  1
  Cl  Cl48  1  0.00000000  0.32500000  0.67500000  1
  Cl  Cl49  1  0.75430000  0.19900000  0.55900000  1
  Cl  Cl50  1  0.24570000  0.44100000  0.80100000  1
  Cu  Cu51  1  0.88500000  0.19250000  0.74210000  1
  Cu  Cu52  1  0.87800000  0.37210000  0.55610000  1
  Cu  Cu53  1  0.61100000  0.20170000  0.69170000  1
  Cu  Cu54  1  0.61200000  0.32340000  0.55940000  1
  Cu  Cu55  1  0.60700000  0.13600000  0.64800000  1
  Cu  Cu56  1  0.61200000  0.29200000  0.48800000  1
  Cu  Cu57  1  0.16510000  0.20030000  0.55750000  1
  Cu  Cu58  1  0.99900000  0.82280000  0.67800000  1
  Cu  Cu59  1  0.00100000  0.32200000  0.17720000  1
  Cu  Cu60  1  0.83490000  0.44250000  0.79970000  1
  Cu  Cu61  1  0.38800000  0.51200000  0.70800000  1
  Cu  Cu62  1  0.39300000  0.35200000  0.86400000  1
  Cu  Cu63  1  0.38800000  0.44060000  0.67660000  1
  Cu  Cu64  1  0.38900000  0.30830000  0.79830000  1
  Cu  Cu65  1  0.12200000  0.44390000  0.62790000  1
  Cu  Cu66  1  0.11500000  0.25790000  0.80750000  1
  H  H67  1  0.73780000  0.05820000  0.83520000  1
  H  H68  1  0.59030000  0.53810000  0.34210000  1
  H  H69  1  0.58010000  0.97330000  0.89850000  1
  H  H70  1  0.75500000  0.44490000  0.42470000  1
  H  H71  1  0.60250000  0.53900000  0.18440000  1
  H  H72  1  0.59040000  0.82520000  0.87260000  1
  H  H73  1  0.50980000  0.66730000  0.97870000  1
  H  H74  1  0.33350000  0.38670000  0.25090000  1
  H  H75  1  0.61060000  0.05940000  0.55080000  1
  H  H76  1  0.36160000  0.84950000  0.76030000  1
  H  H77  1  0.35520000  0.58480000  0.99500000  1
  H  H78  1  0.77230000  0.46240000  0.11060000  1
  H  H79  1  0.75840000  0.76200000  0.78320000  1
  H  H80  1  0.54860000  0.87070000  0.67350000  1
  H  H81  1  0.69860000  0.61430000  0.90810000  1
  H  H82  1  0.70760000  0.21320000  0.29360000  1
  H  H83  1  0.29240000  0.70640000  0.78680000  1
  H  H84  1  0.30140000  0.09190000  0.38570000  1
  H  H85  1  0.45140000  0.32650000  0.12930000  1
  H  H86  1  0.24160000  0.21680000  0.23800000  1
  H  H87  1  0.22770000  0.88940000  0.53760000  1
  H  H88  1  0.64480000  0.00500000  0.41520000  1
  H  H89  1  0.63840000  0.23970000  0.15050000  1
  H  H90  1  0.38940000  0.44920000  0.94060000  1
  H  H91  1  0.66650000  0.74910000  0.61330000  1
  H  H92  1  0.49020000  0.02130000  0.33270000  1
  H  H93  1  0.40960000  0.12740000  0.17480000  1
  H  H94  1  0.39750000  0.81560000  0.46100000  1
  H  H95  1  0.24500000  0.57530000  0.55510000  1
  H  H96  1  0.41990000  0.10150000  0.02670000  1
  H  H97  1  0.40970000  0.65790000  0.46190000  1
  H  H98  1  0.26220000  0.16480000  0.94180000  1
  N  N99  1  0.36500000  0.39300000  0.57300000  1
  N  N100  1  0.37100000  0.19500000  0.76100000  1
  N  N101  1  0.26500000  0.41400000  0.54200000  1
  N  N102  1  0.26800000  0.22150000  0.72950000  1
  N  N103  1  0.44600000  0.36100000  0.51100000  1
  N  N104  1  0.45100000  0.15000000  0.71000000  1
  N  N105  1  0.27200000  0.39600000  0.45000000  1
  N  N106  1  0.27800000  0.18500000  0.65500000  1
  N  N107  1  0.96900000  0.09100000  0.69500000  1
  N  N108  1  0.96900000  0.32500000  0.44900000  1
  N  N109  1  0.07100000  0.09800000  0.62400000  1
  N  N110  1  0.07700000  0.28000000  0.44000000  1
  N  N111  1  0.56200000  0.28400000  0.35800000  1
  N  N112  1  0.84900000  0.87200000  0.75600000  1
  N  N113  1  0.11300000  0.26400000  0.36000000  1
  N  N114  1  0.84600000  0.39700000  0.22300000  1
  N  N115  1  0.34300000  0.11800000  0.50000000  1
  N  N116  1  0.04100000  0.30600000  0.31200000  1
  N  N117  1  0.10300000  0.01000000  0.60000000  1
  N  N118  1  0.02200000  0.94900000  0.65500000  1
  N  N119  1  0.97800000  0.34500000  0.05100000  1
  N  N120  1  0.89700000  0.40000000  0.99000000  1
  N  N121  1  0.65700000  0.50000000  0.88200000  1
  N  N122  1  0.95900000  0.68800000  0.69400000  1
  N  N123  1  0.15400000  0.77700000  0.60300000  1
  N  N124  1  0.88700000  0.64000000  0.73600000  1
  N  N125  1  0.15100000  0.24400000  0.12800000  1
  N  N126  1  0.43800000  0.64200000  0.71600000  1
  N  N127  1  0.92300000  0.56000000  0.72000000  1
  N  N128  1  0.92900000  0.37600000  0.90200000  1
  N  N129  1  0.03100000  0.55100000  0.67500000  1
  N  N130  1  0.03100000  0.30500000  0.90900000  1
  N  N131  1  0.72200000  0.34500000  0.81500000  1
  N  N132  1  0.72800000  0.55000000  0.60400000  1
  N  N133  1  0.54900000  0.29000000  0.85000000  1
  N  N134  1  0.55400000  0.48900000  0.63900000  1
  N  N135  1  0.73200000  0.27050000  0.77850000  1
  N  N136  1  0.62900000  0.23900000  0.80500000  1
  N  N137  1  0.73500000  0.45800000  0.58600000  1
  N  N138  1  0.63500000  0.42700000  0.60700000  1
