# generated using pymatgen
data_Al3Si2PO12
_symmetry_space_group_name_H-M   'P 1'
_cell_length_a   9.39910000
_cell_length_b   18.71190000
_cell_length_c   18.71190000
_cell_angle_alpha   90.00000000
_cell_angle_beta   90.00000000
_cell_angle_gamma   90.00000000
_symmetry_Int_Tables_number   1
_chemical_formula_structural   Al3Si2PO12
_chemical_formula_sum   'Al24 Si16 P8 O96'
_cell_volume   3290.95577345
_cell_formula_units_Z   8
loop_
 _symmetry_equiv_pos_site_id
 _symmetry_equiv_pos_as_xyz
  1  'x, y, z'
loop_
 _atom_site_type_symbol
 _atom_site_label
 _atom_site_symmetry_multiplicity
 _atom_site_fract_x
 _atom_site_fract_y
 _atom_site_fract_z
 _atom_site_occupancy
  Al  Al0  1  0.66142000  0.04488000  0.33540000  1
  Al  Al1  1  0.15934000  0.05814000  0.93016000  1
  Al  Al2  1  0.59170000  0.06625000  0.83449000  1
  Al  Al3  1  0.84066000  0.06984000  0.55814000  1
  Al  Al4  1  0.66142000  0.16460000  0.04488000  1
  Al  Al5  1  0.40830000  0.16551000  0.56625000  1
  Al  Al6  1  0.40830000  0.33449000  0.93375000  1
  Al  Al7  1  0.66142000  0.33540000  0.45512000  1
  Al  Al8  1  0.84066000  0.43016000  0.94186000  1
  Al  Al9  1  0.59170000  0.43375000  0.66551000  1
  Al  Al10  1  0.15934000  0.44186000  0.56984000  1
  Al  Al11  1  0.66142000  0.45512000  0.16460000  1
  Al  Al12  1  0.33858000  0.54488000  0.83540000  1
  Al  Al13  1  0.84066000  0.55814000  0.43016000  1
  Al  Al14  1  0.40830000  0.56625000  0.33449000  1
  Al  Al15  1  0.15934000  0.56984000  0.05814000  1
  Al  Al16  1  0.33858000  0.66460000  0.54488000  1
  Al  Al17  1  0.59170000  0.66551000  0.06625000  1
  Al  Al18  1  0.59170000  0.83449000  0.43375000  1
  Al  Al19  1  0.33858000  0.83540000  0.95512000  1
  Al  Al20  1  0.15934000  0.93016000  0.44186000  1
  Al  Al21  1  0.40830000  0.93375000  0.16551000  1
  Al  Al22  1  0.84066000  0.94186000  0.06984000  1
  Al  Al23  1  0.33858000  0.95512000  0.66460000  1
  Si  Si24  1  0.65958000  0.05072000  0.16759000  1
  Si  Si25  1  0.59263000  0.06507000  0.66733000  1
  Si  Si26  1  0.40737000  0.16733000  0.93493000  1
  Si  Si27  1  0.65958000  0.16759000  0.44928000  1
  Si  Si28  1  0.65958000  0.33241000  0.05072000  1
  Si  Si29  1  0.40737000  0.33267000  0.56507000  1
  Si  Si30  1  0.59263000  0.43493000  0.83267000  1
  Si  Si31  1  0.65958000  0.44928000  0.33241000  1
  Si  Si32  1  0.34042000  0.55072000  0.66759000  1
  Si  Si33  1  0.40737000  0.56507000  0.16733000  1
  Si  Si34  1  0.59263000  0.66733000  0.43493000  1
  Si  Si35  1  0.34042000  0.66759000  0.94928000  1
  Si  Si36  1  0.34042000  0.83241000  0.55072000  1
  Si  Si37  1  0.59263000  0.83267000  0.06507000  1
  Si  Si38  1  0.40737000  0.93493000  0.33267000  1
  Si  Si39  1  0.34042000  0.94928000  0.83241000  1
  P  P40  1  0.16585000  0.05259000  0.56170000  1
  P  P41  1  0.83415000  0.06170000  0.94741000  1
  P  P42  1  0.83415000  0.43830000  0.55259000  1
  P  P43  1  0.16585000  0.44741000  0.93830000  1
  P  P44  1  0.83415000  0.55259000  0.06170000  1
  P  P45  1  0.16585000  0.56170000  0.44741000  1
  P  P46  1  0.16585000  0.93830000  0.05259000  1
  P  P47  1  0.83415000  0.94741000  0.43830000  1
  O  O48  1  0.49261000  0.00071000  0.34132000  1
  O  O49  1  0.22132000  0.00176000  0.85918000  1
  O  O50  1  0.17445000  0.00461000  0.01487000  1
  O  O51  1  0.20640000  0.00651000  0.62645000  1
  O  O52  1  0.17445000  0.01487000  0.49539000  1
  O  O53  1  0.51118000  0.01982000  0.15932000  1
  O  O54  1  0.74275000  0.05779000  0.63462000  1
  O  O55  1  0.69365000  0.06204000  0.24758000  1
  O  O56  1  0.74783000  0.06803000  0.88203000  1
  O  O57  1  0.00746000  0.07864000  0.57980000  1
  O  O58  1  0.62086000  0.07963000  0.74802000  1
  O  O59  1  0.99254000  0.07980000  0.92136000  1
  O  O60  1  0.25217000  0.11797000  0.56803000  1
  O  O61  1  0.65408000  0.11837000  0.12997000  1
  O  O62  1  0.79360000  0.12645000  0.99349000  1
  O  O63  1  0.65408000  0.12997000  0.38163000  1
  O  O64  1  0.52128000  0.13049000  0.63561000  1
  O  O65  1  0.25725000  0.13462000  0.94221000  1
  O  O66  1  0.47872000  0.13561000  0.86951000  1
  O  O67  1  0.77868000  0.14082000  0.50176000  1
  O  O68  1  0.49261000  0.15868000  0.00071000  1
  O  O69  1  0.51118000  0.15932000  0.48018000  1
  O  O70  1  0.69365000  0.24758000  0.43796000  1
  O  O71  1  0.37914000  0.24802000  0.92037000  1
  O  O72  1  0.37914000  0.25198000  0.57963000  1
  O  O73  1  0.69365000  0.25242000  0.06204000  1
  O  O74  1  0.51118000  0.34068000  0.01982000  1
  O  O75  1  0.49261000  0.34132000  0.49929000  1
  O  O76  1  0.77868000  0.35918000  0.99824000  1
  O  O77  1  0.47872000  0.36439000  0.63049000  1
  O  O78  1  0.25725000  0.36538000  0.55779000  1
  O  O79  1  0.52128000  0.36951000  0.86439000  1
  O  O80  1  0.65408000  0.37003000  0.11837000  1
  O  O81  1  0.79360000  0.37355000  0.50651000  1
  O  O82  1  0.65408000  0.38163000  0.37003000  1
  O  O83  1  0.25217000  0.38203000  0.93197000  1
  O  O84  1  0.99254000  0.42020000  0.57864000  1
  O  O85  1  0.62086000  0.42037000  0.75198000  1
  O  O86  1  0.00746000  0.42136000  0.92020000  1
  O  O87  1  0.74783000  0.43197000  0.61797000  1
  O  O88  1  0.69365000  0.43796000  0.25242000  1
  O  O89  1  0.74275000  0.44221000  0.86538000  1
  O  O90  1  0.51118000  0.48018000  0.34068000  1
  O  O91  1  0.17445000  0.48513000  0.00461000  1
  O  O92  1  0.20640000  0.49349000  0.87355000  1
  O  O93  1  0.17445000  0.49539000  0.48513000  1
  O  O94  1  0.22132000  0.49824000  0.64082000  1
  O  O95  1  0.49261000  0.49929000  0.15868000  1
  O  O96  1  0.50739000  0.50071000  0.84132000  1
  O  O97  1  0.77868000  0.50176000  0.35918000  1
  O  O98  1  0.82555000  0.50461000  0.51487000  1
  O  O99  1  0.79360000  0.50651000  0.12645000  1
  O  O100  1  0.82555000  0.51487000  0.99539000  1
  O  O101  1  0.48882000  0.51982000  0.65932000  1
  O  O102  1  0.25725000  0.55779000  0.13462000  1
  O  O103  1  0.30635000  0.56204000  0.74758000  1
  O  O104  1  0.25217000  0.56803000  0.38203000  1
  O  O105  1  0.99254000  0.57864000  0.07980000  1
  O  O106  1  0.37914000  0.57963000  0.24802000  1
  O  O107  1  0.00746000  0.57980000  0.42136000  1
  O  O108  1  0.74783000  0.61797000  0.06803000  1
  O  O109  1  0.34592000  0.61837000  0.62997000  1
  O  O110  1  0.20640000  0.62645000  0.49349000  1
  O  O111  1  0.34592000  0.62997000  0.88163000  1
  O  O112  1  0.47872000  0.63049000  0.13561000  1
  O  O113  1  0.74275000  0.63462000  0.44221000  1
  O  O114  1  0.52128000  0.63561000  0.36951000  1
  O  O115  1  0.22132000  0.64082000  0.00176000  1
  O  O116  1  0.50739000  0.65868000  0.50071000  1
  O  O117  1  0.48882000  0.65932000  0.98018000  1
  O  O118  1  0.30635000  0.74758000  0.93796000  1
  O  O119  1  0.62086000  0.74802000  0.42037000  1
  O  O120  1  0.62086000  0.75198000  0.07963000  1
  O  O121  1  0.30635000  0.75242000  0.56204000  1
  O  O122  1  0.48882000  0.84068000  0.51982000  1
  O  O123  1  0.50739000  0.84132000  0.99929000  1
  O  O124  1  0.22132000  0.85918000  0.49824000  1
  O  O125  1  0.52128000  0.86439000  0.13049000  1
  O  O126  1  0.74275000  0.86538000  0.05779000  1
  O  O127  1  0.47872000  0.86951000  0.36439000  1
  O  O128  1  0.34592000  0.87003000  0.61837000  1
  O  O129  1  0.20640000  0.87355000  0.00651000  1
  O  O130  1  0.34592000  0.88163000  0.87003000  1
  O  O131  1  0.74783000  0.88203000  0.43197000  1
  O  O132  1  0.00746000  0.92020000  0.07864000  1
  O  O133  1  0.37914000  0.92037000  0.25198000  1
  O  O134  1  0.99254000  0.92136000  0.42020000  1
  O  O135  1  0.25217000  0.93197000  0.11797000  1
  O  O136  1  0.30635000  0.93796000  0.75242000  1
  O  O137  1  0.25725000  0.94221000  0.36538000  1
  O  O138  1  0.48882000  0.98018000  0.84068000  1
  O  O139  1  0.82555000  0.98513000  0.50461000  1
  O  O140  1  0.79360000  0.99349000  0.37355000  1
  O  O141  1  0.82555000  0.99539000  0.98513000  1
  O  O142  1  0.77868000  0.99824000  0.14082000  1
  O  O143  1  0.50739000  0.99929000  0.65868000  1
