data_I
_chemical_name_common  'CGCNN_MT\data\TSD\clean_cifs\BOHJOZ_auto'
_cell_length_a 17.93090
_cell_length_b 17.93090
_cell_length_c 17.93090
_cell_angle_alpha 90.00000
_cell_angle_beta  90.00000
_cell_angle_gamma 90.00000
_space_group_name_H-M_alt      'P 1'


loop_
_space_group_symop_operation_xyz
  'x, y, z'

loop_
_atom_site_label
_atom_site_fract_x
_atom_site_fract_y
_atom_site_fract_z
_atom_site_type_symbol
C      0.00076  0.28849  0.75182     C
C      0.00076  0.78849  0.25182     C
C      0.00142  0.34046  0.68475     C
C      0.00142  0.84046  0.18476     C
C      0.00337  0.24916  0.28751     C
C      0.00337  0.74916  0.78751     C
C      0.00384  0.16093  0.81645     C
C      0.00384  0.66093  0.31645     C
C        0.006  0.21311  0.74959     C
C        0.006  0.71311  0.24959     C
C      0.00752  0.31613  0.33973     C
C      0.00752  0.81613  0.83973     C
O      0.00834  0.38419  0.31295     O
O      0.00834  0.88419  0.81295     O
Zr     0.00848  0.49172  0.36735    Zr
Zr     0.00848  0.99172  0.86735    Zr
O      0.00852  0.31375  0.61701     O
O      0.00852  0.81375  0.11701     O
Zr      0.0089  0.36745  0.50909    Zr
Zr      0.0089  0.86745  0.00909    Zr
O      0.00954  0.09017  0.80064     O
O      0.00954  0.59017  0.30064     O
O       0.0101  0.30027  0.41072     O
O       0.0101  0.80027  0.91072     O
H       0.0109  0.19484  0.31284     H
H       0.0109  0.69484  0.81284     H
H      0.01182  0.18715  0.69535     H
H      0.01183  0.68715  0.19535     H
O      0.05901  0.07538  0.06681     O
O      0.05901  0.57538  0.56681     O
O      0.06728  0.44125  0.57651     O
O      0.06728  0.94125  0.07651     O
O      0.06757  0.06757  0.93243     O
O      0.06757  0.56757  0.43243     O
O      0.07538  0.43319  0.44099     O
O      0.07538  0.93319  0.94099     O
H      0.08856  0.10952   0.0984     H
H      0.08856  0.60951   0.5984     H
O      0.08928   0.0101  0.19973     O
O      0.08928   0.5101  0.69973     O
O      0.09017  0.19936  0.99045     O
O      0.09017  0.69936  0.49046     O
H      0.10951   0.9016  0.91144     H
H      0.10952   0.4016  0.41144     H
O      0.11581  0.49579   0.3126     O
O      0.11581  0.99579   0.8126     O
O      0.11623  0.31256  0.51299     O
O      0.11623  0.81256  0.01299     O
Zr     0.13265  0.00848  0.00828    Zr
Zr     0.13265  0.50848  0.50828    Zr
C      0.16027  0.00752  0.18387     C
C      0.16027  0.50752  0.68387     C
C      0.16093  0.18355  0.99616     C
C      0.16093  0.68355  0.49616     C
C      0.18355  0.00384  0.83907     C
C      0.18355  0.50384  0.33907     C
C      0.18435  0.33925   0.5132     C
C      0.18435  0.83925   0.0132     C
O      0.18705  0.00834  0.11581     O
O      0.18705  0.50834  0.61581     O
H      0.18715  0.30465  0.98817     H
H      0.18715  0.80465  0.48818     H
H      0.18716   0.0109  0.30516     H
H      0.18716   0.5109  0.80516     H
O       0.1874  0.11581  0.00421     O
O       0.1874  0.61581  0.50421     O
H      0.19397  0.49484  0.18552     H
H      0.19397  0.99484  0.68552     H
H      0.19484  0.18716   0.4891     H
H      0.19484  0.68716   0.9891     H
O      0.19936  0.00954  0.90983     O
O      0.19936  0.50954  0.40983     O
O      0.20015  0.41032  0.51357     O
O      0.20015  0.91032  0.01357     O
C      0.21249  0.00337  0.25084     C
C      0.21249  0.50337  0.75084     C
C      0.21311  0.25041    0.994     C
C      0.21311  0.75041    0.494     C
C      0.24818  0.00076  0.71151     C
C      0.24818  0.50076  0.21151     C
C      0.24916  0.21249  0.49663     C
C      0.24916  0.71249  0.99663     C
C      0.25041    0.006  0.78689     C
C      0.25041    0.506  0.28689     C
C      0.25132  0.28693   0.5106     C
C      0.25132  0.78693   0.0106     C
C      0.28693   0.4894  0.74868     C
C      0.28693   0.9894  0.24868     C
C      0.28849  0.24818  0.99924     C
C      0.28849  0.74818  0.49924     C
O      0.29979  0.49361   0.0889     O
O      0.29979   0.9936   0.5889     O
O      0.30027  0.08928   0.4899     O
O      0.30027  0.58928   0.9899     O
H      0.30465  0.01182  0.81285     H
H      0.30465  0.51182  0.31285     H
H      0.30563  0.31231  0.51804     H
H      0.30563  0.81231  0.01804     H
H      0.31231  0.48196  0.69437     H
H      0.31231  0.98196  0.19437     H
O      0.31256  0.48701  0.88377     O
O      0.31256  0.98701  0.38377     O
O      0.31375  0.38299  0.99148     O
O      0.31375  0.88299  0.49148     O
H      0.31448  0.19397  0.00516     H
H      0.31448  0.69397  0.50516     H
C      0.31524  0.00142  0.65954     C
C      0.31525  0.50142  0.15954     C
C      0.31613  0.16027  0.49248     C
C      0.31613  0.66027  0.99248     C
C      0.33925   0.4868  0.81565     C
C      0.33925   0.9868  0.31565     C
C      0.34046  0.31525  0.99858     C
C      0.34046  0.81525  0.49858     C
Zr     0.36745  0.49091   0.9911    Zr
Zr     0.36745  0.99091   0.4911    Zr
O      0.38299  0.00852  0.68625     O
O      0.38299  0.50852  0.18625     O
O      0.38419  0.18705  0.49166     O
O      0.38419  0.68705  0.99166     O
H      0.40118  0.40118  0.09882     H
H      0.40118  0.90118  0.59882     H
H       0.4016  0.08856  0.39049     H
H       0.4016  0.58856  0.89049     H
O      0.41032  0.48643  0.79985     O
O      0.41032  0.98643  0.29985     O
O       0.4111  0.29979   0.0064     O
O       0.4111  0.79979  0.50639     O
O      0.42349  0.06728  0.55875     O
O      0.42349  0.56728  0.05875     O
O      0.43299  0.43299  0.06701     O
O      0.43299  0.93299  0.56701     O
O      0.43319  0.05901  0.42462     O
O      0.43319  0.55901  0.92462     O
O      0.44125  0.42349  0.93272     O
O      0.44125  0.92349  0.43272     O
H      0.48196  0.30563  0.68769     H
H      0.48196  0.80563  0.18769     H
O      0.48643  0.20015  0.58968     O
O      0.48643  0.70015  0.08968     O
C       0.4868  0.18435  0.66075     C
C       0.4868  0.68435  0.16075     C
O      0.48701  0.11623  0.68744     O
O      0.48701  0.61623  0.18744     O
C       0.4894  0.25132  0.71307     C
C       0.4894  0.75132  0.21307     C
Zr     0.49091   0.0089  0.63255    Zr
Zr     0.49091   0.5089  0.13255    Zr
Zr     0.49172  0.13265  0.49152    Zr
Zr     0.49172  0.63265  0.99152    Zr
O       0.4936   0.9111  0.70021     O
O      0.49361   0.4111  0.20021     O
H      0.49484  0.31448  0.30603     H
H      0.49484  0.81448  0.80603     H
O      0.49579   0.1874  0.38419     O
O      0.49579   0.6874  0.88419     O
C      0.50076  0.28849  0.25182     C
C      0.50076  0.78849  0.75182     C
C      0.50142  0.34046  0.18476     C
C      0.50142  0.84046  0.68475     C
C      0.50337  0.24916  0.78751     C
C      0.50337  0.74916  0.28751     C
C      0.50384  0.16093  0.31645     C
C      0.50384  0.66093  0.81645     C
C        0.506  0.21311  0.24959     C
C        0.506  0.71311  0.74959     C
C      0.50752  0.31613  0.83973     C
C      0.50752  0.81613  0.33973     C
O      0.50834  0.38419  0.81295     O
O      0.50834  0.88419  0.31295     O
Zr     0.50848  0.49172  0.86735    Zr
Zr     0.50848  0.99172  0.36735    Zr
O      0.50852  0.31375  0.11701     O
O      0.50852  0.81375  0.61701     O
Zr      0.5089  0.36745  0.00909    Zr
Zr      0.5089  0.86745  0.50909    Zr
O      0.50954  0.09017  0.30064     O
O      0.50954  0.59017  0.80064     O
O       0.5101  0.30027  0.91072     O
O       0.5101  0.80027  0.41072     O
H       0.5109  0.19484  0.81284     H
H       0.5109  0.69484  0.31284     H
H      0.51182  0.68715  0.69535     H
H      0.51183  0.18715  0.19535     H
O      0.55901  0.07538  0.56681     O
O      0.55901  0.57538  0.06681     O
O      0.56728  0.44125  0.07651     O
O      0.56728  0.94125  0.57651     O
O      0.56757  0.06757  0.43243     O
O      0.56757  0.56757  0.93243     O
O      0.57538  0.43319  0.94099     O
O      0.57538  0.93319  0.44099     O
H      0.58856  0.10951   0.5984     H
H      0.58856  0.60952   0.0984     H
O      0.58928   0.0101  0.69973     O
O      0.58928   0.5101  0.19973     O
O      0.59017  0.19936  0.49046     O
O      0.59017  0.69936  0.99045     O
H      0.60951   0.4016  0.91144     H
H      0.60952   0.9016  0.41144     H
O      0.61581  0.49579   0.8126     O
O      0.61581  0.99579   0.3126     O
O      0.61623  0.31256  0.01299     O
O      0.61623  0.81256  0.51299     O
Zr     0.63265  0.00848  0.50828    Zr
Zr     0.63265  0.50848  0.00828    Zr
C      0.66027  0.00752  0.68387     C
C      0.66027  0.50752  0.18387     C
C      0.66093  0.18355  0.49616     C
C      0.66093  0.68355  0.99616     C
C      0.68355  0.00384  0.33907     C
C      0.68355  0.50384  0.83907     C
C      0.68435  0.33925   0.0132     C
C      0.68435  0.83925   0.5132     C
O      0.68705  0.00834  0.61581     O
O      0.68705  0.50834  0.11581     O
H      0.68715  0.30465  0.48818     H
H      0.68715  0.80465  0.98817     H
H      0.68716   0.0109  0.80516     H
H      0.68716   0.5109  0.30516     H
O       0.6874  0.11581  0.50421     O
O       0.6874  0.61581  0.00421     O
H      0.69397  0.49484  0.68552     H
H      0.69397  0.99484  0.18552     H
H      0.69484  0.18716   0.9891     H
H      0.69484  0.68716   0.4891     H
O      0.69936  0.00954  0.40983     O
O      0.69936  0.50954  0.90983     O
O      0.70015  0.41032  0.01357     O
O      0.70015  0.91032  0.51357     O
C      0.71249  0.00337  0.75084     C
C      0.71249  0.50337  0.25084     C
C      0.71311  0.25041    0.494     C
C      0.71311  0.75041    0.994     C
C      0.74818  0.00076  0.21151     C
C      0.74818  0.50076  0.71151     C
C      0.74916  0.21249  0.99663     C
C      0.74916  0.71249  0.49663     C
C      0.75041    0.006  0.28689     C
C      0.75041    0.506  0.78689     C
C      0.75132  0.28693   0.0106     C
C      0.75132  0.78693   0.5106     C
C      0.78693   0.4894  0.24868     C
C      0.78693   0.9894  0.74868     C
C      0.78849  0.24818  0.49924     C
C      0.78849  0.74818  0.99924     C
O      0.79979   0.4936   0.5889     O
O      0.79979  0.99361   0.0889     O
O      0.80027  0.08928   0.9899     O
O      0.80027  0.58928   0.4899     O
H      0.80465  0.01182  0.31285     H
H      0.80465  0.51182  0.81285     H
H      0.80563  0.31231  0.01804     H
H      0.80563  0.81231  0.51804     H
H      0.81231  0.48196  0.19437     H
H      0.81231  0.98196  0.69437     H
O      0.81256  0.48701  0.38377     O
O      0.81256  0.98701  0.88377     O
O      0.81375  0.38299  0.49148     O
O      0.81375  0.88299  0.99148     O
H      0.81448  0.19397  0.50516     H
H      0.81448  0.69397  0.00516     H
C      0.81524  0.50142  0.65954     C
C      0.81525  0.00142  0.15954     C
C      0.81613  0.16027  0.99248     C
C      0.81613  0.66027  0.49248     C
C      0.83925   0.4868  0.31565     C
C      0.83925   0.9868  0.81565     C
C      0.84046  0.31525  0.49858     C
C      0.84046  0.81525  0.99858     C
Zr     0.86745  0.49091   0.4911    Zr
Zr     0.86745  0.99091   0.9911    Zr
O      0.88299  0.00852  0.18625     O
O      0.88299  0.50852  0.68625     O
O      0.88419  0.18705  0.99166     O
O      0.88419  0.68705  0.49166     O
H      0.90118  0.40118  0.59882     H
H      0.90118  0.90118  0.09882     H
H       0.9016  0.08856  0.89049     H
H       0.9016  0.58856  0.39049     H
O      0.91032  0.48643  0.29985     O
O      0.91032  0.98643  0.79985     O
O       0.9111  0.29979  0.50639     O
O       0.9111  0.79979   0.0064     O
O      0.92349  0.06728  0.05875     O
O      0.92349  0.56728  0.55875     O
O      0.93299  0.43299  0.56701     O
O      0.93299  0.93299  0.06701     O
O      0.93319  0.05901  0.92462     O
O      0.93319  0.55901  0.42462     O
O      0.94125  0.42349  0.43272     O
O      0.94125  0.92349  0.93272     O
H      0.98196  0.30563  0.18769     H
H      0.98196  0.80563  0.68769     H
O      0.98643  0.20015  0.08968     O
O      0.98643  0.70015  0.58968     O
C       0.9868  0.18435  0.16075     C
C       0.9868  0.68435  0.66075     C
O      0.98701  0.11623  0.18744     O
O      0.98701  0.61623  0.68744     O
C       0.9894  0.25132  0.21307     C
C       0.9894  0.75132  0.71307     C
Zr     0.99091   0.0089  0.13255    Zr
Zr     0.99091   0.5089  0.63255    Zr
Zr     0.99172  0.13265  0.99152    Zr
Zr     0.99172  0.63265  0.49152    Zr
O       0.9936   0.4111  0.70021     O
O      0.99361   0.9111  0.20021     O
H      0.99484  0.31448  0.80603     H
H      0.99484  0.81448  0.30603     H
O      0.99579   0.1874  0.88419     O
O      0.99579   0.6874  0.38419     O
