# generated using pymatgen
data_CuSiH10W12C12(NO8)4
_symmetry_space_group_name_H-M   'P 1'
_cell_length_a   10.59660000
_cell_length_b   13.42949310
_cell_length_c   19.98250000
_cell_angle_alpha   98.73687120
_cell_angle_beta   90.00000000
_cell_angle_gamma   113.23648856
_symmetry_Int_Tables_number   1
_chemical_formula_structural   CuSiH10W12C12(NO8)4
_chemical_formula_sum   'Cu2 Si2 H20 W24 C24 N8 O64'
_cell_volume   2577.03580456
_cell_formula_units_Z   2
loop_
 _symmetry_equiv_pos_site_id
 _symmetry_equiv_pos_as_xyz
  1  'x, y, z'
loop_
 _atom_site_type_symbol
 _atom_site_label
 _atom_site_symmetry_multiplicity
 _atom_site_fract_x
 _atom_site_fract_y
 _atom_site_fract_z
 _atom_site_occupancy
  C  C0  1  0.83530000  0.79700000  0.05170000  1
  C  C1  1  0.96170000  0.79700000  0.55170000  1
  C  C2  1  0.76550000  0.78640000  0.50320000  1
  C  C3  1  0.02090000  0.78640000  0.00320000  1
  C  C4  1  0.83300000  0.69420000  0.05490000  1
  C  C5  1  0.86120000  0.69420000  0.55490000  1
  C  C6  1  0.61770000  0.59440000  0.51220000  1
  C  C7  1  0.97670000  0.59440000  0.01220000  1
  C  C8  1  0.52290000  0.58020000  0.46040000  1
  C  C9  1  0.05730000  0.58020000  0.96040000  1
  C  C10  1  0.59510000  0.51420000  0.55200000  1
  C  C11  1  0.91910000  0.51420000  0.05200000  1
  C  C12  1  0.40490000  0.48580000  0.44800000  1
  C  C13  1  0.08090000  0.48580000  0.94800000  1
  C  C14  1  0.47710000  0.41980000  0.53960000  1
  C  C15  1  0.94270000  0.41980000  0.03960000  1
  C  C16  1  0.38230000  0.40560000  0.48780000  1
  C  C17  1  0.02330000  0.40560000  0.98780000  1
  C  C18  1  0.16700000  0.30580000  0.94510000  1
  C  C19  1  0.13880000  0.30580000  0.44510000  1
  C  C20  1  0.23450000  0.21360000  0.49680000  1
  C  C21  1  0.97910000  0.21360000  0.99680000  1
  C  C22  1  0.16470000  0.20300000  0.94830000  1
  C  C23  1  0.03830000  0.20300000  0.44830000  1
  Cu  Cu24  1  0.00000000  0.00000000  0.00000000  1
  Cu  Cu25  1  0.00000000  0.00000000  0.50000000  1
  H  H26  1  0.77010000  0.82320000  0.06810000  1
  H  H27  1  0.05310000  0.82320000  0.56810000  1
  H  H28  1  0.70160000  0.80420000  0.48140000  1
  H  H29  1  0.10260000  0.80420000  0.98140000  1
  H  H30  1  0.76610000  0.63920000  0.07380000  1
  H  H31  1  0.87310000  0.63920000  0.57380000  1
  H  H32  1  0.53900000  0.63460000  0.43380000  1
  H  H33  1  0.09560000  0.63460000  0.93380000  1
  H  H34  1  0.65970000  0.52400000  0.58670000  1
  H  H35  1  0.86430000  0.52400000  0.08670000  1
  H  H36  1  0.34030000  0.47600000  0.41330000  1
  H  H37  1  0.13570000  0.47600000  0.91330000  1
  H  H38  1  0.46100000  0.36540000  0.56620000  1
  H  H39  1  0.90440000  0.36540000  0.06620000  1
  H  H40  1  0.23390000  0.36080000  0.92620000  1
  H  H41  1  0.12690000  0.36080000  0.42620000  1
  H  H42  1  0.29840000  0.19580000  0.51860000  1
  H  H43  1  0.89740000  0.19580000  0.01860000  1
  H  H44  1  0.22990000  0.17680000  0.93190000  1
  H  H45  1  0.94690000  0.17680000  0.43190000  1
  N  N46  1  0.90260000  0.85400000  0.51970000  1
  N  N47  1  0.95140000  0.85400000  0.01970000  1
  N  N48  1  0.73990000  0.68760000  0.52490000  1
  N  N49  1  0.94770000  0.68760000  0.02490000  1
  N  N50  1  0.26010000  0.31240000  0.47510000  1
  N  N51  1  0.05230000  0.31240000  0.97510000  1
  N  N52  1  0.09740000  0.14600000  0.48030000  1
  N  N53  1  0.04860000  0.14600000  0.98030000  1
  O  O54  1  0.83490000  0.96060000  0.42400000  1
  O  O55  1  0.12570000  0.96060000  0.92400000  1
  O  O56  1  0.58830000  0.96000000  0.09140000  1
  O  O57  1  0.37170000  0.96000000  0.59140000  1
  O  O58  1  0.55720000  0.94040000  0.68970000  1
  O  O59  1  0.38320000  0.94040000  0.18970000  1
  O  O60  1  0.61020000  0.93660000  0.56310000  1
  O  O61  1  0.32640000  0.93660000  0.06310000  1
  O  O62  1  0.81930000  0.92840000  0.92050000  1
  O  O63  1  0.10910000  0.92840000  0.42050000  1
  O  O64  1  0.74140000  0.92640000  0.17860000  1
  O  O65  1  0.18500000  0.92640000  0.67860000  1
  O  O66  1  0.54810000  0.91160000  0.27820000  1
  O  O67  1  0.36350000  0.91160000  0.77820000  1
  O  O68  1  0.76570000  0.90200000  0.65260000  1
  O  O69  1  0.13630000  0.90200000  0.15260000  1
  O  O70  1  0.72260000  0.88860000  0.78230000  1
  O  O71  1  0.16600000  0.88860000  0.28230000  1
  O  O72  1  0.54020000  0.86360000  0.87220000  1
  O  O73  1  0.32340000  0.86360000  0.37220000  1
  O  O74  1  0.74570000  0.85420000  0.29360000  1
  O  O75  1  0.10850000  0.85420000  0.79360000  1
  O  O76  1  0.55930000  0.82600000  0.38410000  1
  O  O77  1  0.26670000  0.82600000  0.88410000  1
  O  O78  1  0.49520000  0.78200000  0.14540000  1
  O  O79  1  0.28680000  0.78200000  0.64540000  1
  O  O80  1  0.51460000  0.75140000  0.61720000  1
  O  O81  1  0.23680000  0.75140000  0.11720000  1
  O  O82  1  0.47500000  0.74540000  0.75070000  1
  O  O83  1  0.27040000  0.74540000  0.25070000  1
  O  O84  1  0.49320000  0.70260000  0.26130000  1
  O  O85  1  0.20940000  0.70260000  0.76130000  1
  O  O86  1  0.50680000  0.29740000  0.73870000  1
  O  O87  1  0.79060000  0.29740000  0.23870000  1
  O  O88  1  0.52500000  0.25460000  0.24930000  1
  O  O89  1  0.72960000  0.25460000  0.74930000  1
  O  O90  1  0.48540000  0.24860000  0.38280000  1
  O  O91  1  0.76320000  0.24860000  0.88280000  1
  O  O92  1  0.50480000  0.21800000  0.85460000  1
  O  O93  1  0.71320000  0.21800000  0.35460000  1
  O  O94  1  0.44070000  0.17400000  0.61590000  1
  O  O95  1  0.73330000  0.17400000  0.11590000  1
  O  O96  1  0.25430000  0.14580000  0.70640000  1
  O  O97  1  0.89150000  0.14580000  0.20640000  1
  O  O98  1  0.45980000  0.13640000  0.12780000  1
  O  O99  1  0.67660000  0.13640000  0.62780000  1
  O  O100  1  0.27740000  0.11140000  0.21770000  1
  O  O101  1  0.83400000  0.11140000  0.71770000  1
  O  O102  1  0.23430000  0.09800000  0.34740000  1
  O  O103  1  0.86370000  0.09800000  0.84740000  1
  O  O104  1  0.45190000  0.08840000  0.72180000  1
  O  O105  1  0.63650000  0.08840000  0.22180000  1
  O  O106  1  0.25860000  0.07360000  0.82140000  1
  O  O107  1  0.81500000  0.07360000  0.32140000  1
  O  O108  1  0.18070000  0.07160000  0.07950000  1
  O  O109  1  0.89090000  0.07160000  0.57950000  1
  O  O110  1  0.38980000  0.06340000  0.43690000  1
  O  O111  1  0.67360000  0.06340000  0.93690000  1
  O  O112  1  0.44280000  0.05960000  0.31030000  1
  O  O113  1  0.61680000  0.05960000  0.81030000  1
  O  O114  1  0.41170000  0.04000000  0.90860000  1
  O  O115  1  0.62830000  0.04000000  0.40860000  1
  O  O116  1  0.16510000  0.03940000  0.57600000  1
  O  O117  1  0.87430000  0.03940000  0.07600000  1
  Si  Si118  1  0.50000000  0.00000000  0.75000000  1
  Si  Si119  1  0.50000000  0.00000000  0.25000000  1
  W  W120  1  0.72641000  0.97060000  0.86776000  1
  W  W121  1  0.24419000  0.97060000  0.36776000  1
  W  W122  1  0.71568000  0.95130000  0.36331000  1
  W  W123  1  0.23562000  0.95130000  0.86331000  1
  W  W124  1  0.43499000  0.84624000  0.58521000  1
  W  W125  1  0.41125000  0.84624000  0.08521000  1
  W  W126  1  0.62777000  0.79664000  0.69858000  1
  W  W127  1  0.16887000  0.79664000  0.19858000  1
  W  W128  1  0.62516000  0.79330000  0.21032000  1
  W  W129  1  0.16814000  0.79330000  0.71032000  1
  W  W130  1  0.39197000  0.76302000  0.32811000  1
  W  W131  1  0.37105000  0.76302000  0.82811000  1
  W  W132  1  0.60803000  0.23698000  0.67189000  1
  W  W133  1  0.62895000  0.23698000  0.17189000  1
  W  W134  1  0.37484000  0.20670000  0.78968000  1
  W  W135  1  0.83186000  0.20670000  0.28968000  1
  W  W136  1  0.37223000  0.20336000  0.30142000  1
  W  W137  1  0.83113000  0.20336000  0.80142000  1
  W  W138  1  0.56501000  0.15376000  0.41479000  1
  W  W139  1  0.58875000  0.15376000  0.91479000  1
  W  W140  1  0.28432000  0.04870000  0.63669000  1
  W  W141  1  0.76438000  0.04870000  0.13669000  1
  W  W142  1  0.27359000  0.02940000  0.13224000  1
  W  W143  1  0.75581000  0.02940000  0.63224000  1
