# generated using pymatgen
data_EuZn6H16C40N12(ClO8)2
_symmetry_space_group_name_H-M   'P 1'
_cell_length_a   12.28400000
_cell_length_b   12.91980984
_cell_length_c   18.26373905
_cell_angle_alpha   80.80050333
_cell_angle_beta   70.34870826
_cell_angle_gamma   61.61499397
_symmetry_Int_Tables_number   1
_chemical_formula_structural   EuZn6H16C40N12(ClO8)2
_chemical_formula_sum   'Eu2 Zn12 H32 C80 N24 Cl4 O32'
_cell_volume   2401.56867920
_cell_formula_units_Z   2
loop_
 _symmetry_equiv_pos_site_id
 _symmetry_equiv_pos_as_xyz
  1  'x, y, z'
loop_
 _atom_site_type_symbol
 _atom_site_label
 _atom_site_symmetry_multiplicity
 _atom_site_fract_x
 _atom_site_fract_y
 _atom_site_fract_z
 _atom_site_occupancy
  C  C0  1  0.36250000  0.57980000  0.70420000  1
  C  C1  1  0.14650000  0.92020000  0.79580000  1
  C  C2  1  0.52280000  0.64840000  0.33940000  1
  C  C3  1  0.01060000  0.85160000  0.16060000  1
  C  C4  1  0.76862000  0.58500000  0.93816000  1
  C  C5  1  0.79178000  0.91500000  0.56184000  1
  C  C6  1  0.33600000  0.02460000  0.37840000  1
  C  C7  1  0.23900000  0.47540000  0.12160000  1
  C  C8  1  0.16800000  0.01100000  0.75480000  1
  C  C9  1  0.43380000  0.48900000  0.74520000  1
  C  C10  1  0.95880000  0.05440000  0.13820000  1
  C  C11  1  0.65140000  0.44560000  0.36180000  1
  C  C12  1  0.59270000  0.56240000  0.38520000  1
  C  C13  1  0.04030000  0.93760000  0.11480000  1
  C  C14  1  0.75849000  0.69500000  0.94182000  1
  C  C15  1  0.89531000  0.80500000  0.55818000  1
  C  C16  1  0.92322000  0.70240000  0.61076000  1
  C  C17  1  0.73638000  0.79760000  0.88924000  1
  C  C18  1  0.59660000  0.59480000  0.45800000  1
  C  C19  1  0.14940000  0.90520000  0.04200000  1
  C  C20  1  0.80860000  0.59480000  0.04200000  1
  C  C21  1  0.94540000  0.90520000  0.45800000  1
  C  C22  1  0.37438000  0.70240000  0.88924000  1
  C  C23  1  0.46602000  0.79760000  0.61076000  1
  C  C24  1  0.54651000  0.69500000  0.55818000  1
  C  C25  1  0.29969000  0.80500000  0.94182000  1
  C  C26  1  0.84490000  0.56240000  0.11480000  1
  C  C27  1  0.02210000  0.93760000  0.38520000  1
  C  C28  1  0.98680000  0.05440000  0.36180000  1
  C  C29  1  0.90300000  0.44560000  0.13820000  1
  C  C30  1  0.82100000  0.01100000  0.74520000  1
  C  C31  1  0.07720000  0.48900000  0.75480000  1
  C  C32  1  0.63940000  0.02460000  0.12160000  1
  C  C33  1  0.28560000  0.47540000  0.37840000  1
  C  C34  1  0.64638000  0.58500000  0.56184000  1
  C  C35  1  0.29322000  0.91500000  0.93816000  1
  C  C36  1  0.82880000  0.64840000  0.16060000  1
  C  C37  1  0.13780000  0.85160000  0.33940000  1
  C  C38  1  0.05770000  0.57980000  0.79580000  1
  C  C39  1  0.93330000  0.92020000  0.70420000  1
  C  C40  1  0.06670000  0.07980000  0.29580000  1
  C  C41  1  0.94230000  0.42020000  0.20420000  1
  C  C42  1  0.86220000  0.14840000  0.66060000  1
  C  C43  1  0.17120000  0.35160000  0.83940000  1
  C  C44  1  0.70678000  0.08500000  0.06184000  1
  C  C45  1  0.35362000  0.41500000  0.43816000  1
  C  C46  1  0.71440000  0.52460000  0.62160000  1
  C  C47  1  0.36060000  0.97540000  0.87840000  1
  C  C48  1  0.92280000  0.51100000  0.24520000  1
  C  C49  1  0.17900000  0.98900000  0.25480000  1
  C  C50  1  0.09700000  0.55440000  0.86180000  1
  C  C51  1  0.01320000  0.94560000  0.63820000  1
  C  C52  1  0.97790000  0.06240000  0.61480000  1
  C  C53  1  0.15510000  0.43760000  0.88520000  1
  C  C54  1  0.70031000  0.19500000  0.05818000  1
  C  C55  1  0.45349000  0.30500000  0.44182000  1
  C  C56  1  0.53398000  0.20240000  0.38924000  1
  C  C57  1  0.62562000  0.29760000  0.11076000  1
  C  C58  1  0.05460000  0.09480000  0.54200000  1
  C  C59  1  0.19140000  0.40520000  0.95800000  1
  C  C60  1  0.85060000  0.09480000  0.95800000  1
  C  C61  1  0.40340000  0.40520000  0.54200000  1
  C  C62  1  0.26362000  0.20240000  0.11076000  1
  C  C63  1  0.07678000  0.29760000  0.38924000  1
  C  C64  1  0.10469000  0.19500000  0.44182000  1
  C  C65  1  0.24151000  0.30500000  0.05818000  1
  C  C66  1  0.95970000  0.06240000  0.88520000  1
  C  C67  1  0.40730000  0.43760000  0.61480000  1
  C  C68  1  0.34860000  0.55440000  0.63820000  1
  C  C69  1  0.04120000  0.94560000  0.86180000  1
  C  C70  1  0.56620000  0.51100000  0.25480000  1
  C  C71  1  0.83200000  0.98900000  0.24520000  1
  C  C72  1  0.76100000  0.52460000  0.87840000  1
  C  C73  1  0.66400000  0.97540000  0.62160000  1
  C  C74  1  0.20822000  0.08500000  0.43816000  1
  C  C75  1  0.23138000  0.41500000  0.06184000  1
  C  C76  1  0.98940000  0.14840000  0.83940000  1
  C  C77  1  0.47720000  0.35160000  0.66060000  1
  C  C78  1  0.85350000  0.07980000  0.20420000  1
  C  C79  1  0.63750000  0.42020000  0.29580000  1
  Cl  Cl80  1  0.74580000  0.25000000  0.50840000  1
  Cl  Cl81  1  0.00420000  0.25000000  0.99160000  1
  Cl  Cl82  1  0.99580000  0.75000000  0.00840000  1
  Cl  Cl83  1  0.25420000  0.75000000  0.49160000  1
  Eu  Eu84  1  0.37500000  0.25000000  0.25000000  1
  Eu  Eu85  1  0.62500000  0.75000000  0.75000000  1
  H  H86  1  0.32400000  0.65720000  0.72080000  1
  H  H87  1  0.20200000  0.84280000  0.77920000  1
  H  H88  1  0.48480000  0.72680000  0.35340000  1
  H  H89  1  0.06500000  0.77320000  0.14660000  1
  H  H90  1  0.97500000  0.11460000  0.10980000  1
  H  H91  1  0.69940000  0.38540000  0.39020000  1
  H  H92  1  0.44170000  0.50680000  0.79000000  1
  H  H93  1  0.23850000  0.99320000  0.71000000  1
  H  H94  1  0.05150000  0.50680000  0.71000000  1
  H  H95  1  0.76830000  0.99320000  0.79000000  1
  H  H96  1  0.91040000  0.11460000  0.39020000  1
  H  H97  1  0.91520000  0.38540000  0.10980000  1
  H  H98  1  0.78840000  0.72680000  0.14660000  1
  H  H99  1  0.16180000  0.77320000  0.35340000  1
  H  H100  1  0.01880000  0.65720000  0.77920000  1
  H  H101  1  0.95520000  0.84280000  0.72080000  1
  H  H102  1  0.04480000  0.15720000  0.27920000  1
  H  H103  1  0.98120000  0.34280000  0.22080000  1
  H  H104  1  0.83820000  0.22680000  0.64660000  1
  H  H105  1  0.21160000  0.27320000  0.85340000  1
  H  H106  1  0.08480000  0.61460000  0.89020000  1
  H  H107  1  0.08960000  0.88540000  0.60980000  1
  H  H108  1  0.23170000  0.00680000  0.21000000  1
  H  H109  1  0.94850000  0.49320000  0.29000000  1
  H  H110  1  0.76150000  0.00680000  0.29000000  1
  H  H111  1  0.55830000  0.49320000  0.21000000  1
  H  H112  1  0.30060000  0.61460000  0.60980000  1
  H  H113  1  0.02500000  0.88540000  0.89020000  1
  H  H114  1  0.93500000  0.22680000  0.85340000  1
  H  H115  1  0.51520000  0.27320000  0.64660000  1
  H  H116  1  0.79800000  0.15720000  0.22080000  1
  H  H117  1  0.67600000  0.34280000  0.27920000  1
  N  N118  1  0.09358000  0.12240000  0.77584000  1
  N  N119  1  0.49182000  0.37760000  0.72416000  1
  N  N120  1  0.80160000  0.52040000  0.00160000  1
  N  N121  1  0.82360000  0.97960000  0.49840000  1
  N  N122  1  0.51584000  0.69980000  0.49092000  1
  N  N123  1  0.20656000  0.80020000  0.00908000  1
  N  N124  1  0.78436000  0.69980000  0.00908000  1
  N  N125  1  0.99324000  0.80020000  0.49092000  1
  N  N126  1  0.67800000  0.52040000  0.49840000  1
  N  N127  1  0.19680000  0.97960000  0.00160000  1
  N  N128  1  0.78402000  0.12240000  0.72416000  1
  N  N129  1  0.13058000  0.37760000  0.77584000  1
  N  N130  1  0.86942000  0.62240000  0.22416000  1
  N  N131  1  0.21598000  0.87760000  0.27584000  1
  N  N132  1  0.80320000  0.02040000  0.99840000  1
  N  N133  1  0.32200000  0.47960000  0.50160000  1
  N  N134  1  0.00676000  0.19980000  0.50908000  1
  N  N135  1  0.21564000  0.30020000  0.99092000  1
  N  N136  1  0.79344000  0.19980000  0.99092000  1
  N  N137  1  0.48416000  0.30020000  0.50908000  1
  N  N138  1  0.17640000  0.02040000  0.50160000  1
  N  N139  1  0.19840000  0.47960000  0.99840000  1
  N  N140  1  0.50818000  0.62240000  0.27584000  1
  N  N141  1  0.90642000  0.87760000  0.22416000  1
  O  O142  1  0.83899000  0.69220000  0.66722000  1
  O  O143  1  0.69841000  0.80780000  0.83278000  1
  O  O144  1  0.36709000  0.07320000  0.31662000  1
  O  O145  1  0.25691000  0.42680000  0.18338000  1
  O  O146  1  0.21867000  0.58240000  0.10626000  1
  O  O147  1  0.40733000  0.91760000  0.39374000  1
  O  O148  1  0.33177000  0.62480000  0.90646000  1
  O  O149  1  0.36303000  0.87520000  0.59354000  1
  O  O150  1  0.04343000  0.62480000  0.59354000  1
  O  O151  1  0.76177000  0.87520000  0.90646000  1
  O  O152  1  0.19893000  0.58240000  0.39374000  1
  O  O153  1  0.67507000  0.91760000  0.10626000  1
  O  O154  1  0.55971000  0.07320000  0.18338000  1
  O  O155  1  0.31629000  0.42680000  0.31662000  1
  O  O156  1  0.46881000  0.69220000  0.83278000  1
  O  O157  1  0.49379000  0.80780000  0.66722000  1
  O  O158  1  0.50621000  0.19220000  0.33278000  1
  O  O159  1  0.53119000  0.30780000  0.16722000  1
  O  O160  1  0.68371000  0.57320000  0.68338000  1
  O  O161  1  0.44029000  0.92680000  0.81662000  1
  O  O162  1  0.32493000  0.08240000  0.89374000  1
  O  O163  1  0.80107000  0.41760000  0.60626000  1
  O  O164  1  0.23823000  0.12480000  0.09354000  1
  O  O165  1  0.95657000  0.37520000  0.40646000  1
  O  O166  1  0.63697000  0.12480000  0.40646000  1
  O  O167  1  0.66823000  0.37520000  0.09354000  1
  O  O168  1  0.59267000  0.08240000  0.60626000  1
  O  O169  1  0.78133000  0.41760000  0.89374000  1
  O  O170  1  0.74309000  0.57320000  0.81662000  1
  O  O171  1  0.63291000  0.92680000  0.68338000  1
  O  O172  1  0.30159000  0.19220000  0.16722000  1
  O  O173  1  0.16101000  0.30780000  0.33278000  1
  Zn  Zn174  1  0.18014000  0.65022000  0.00380000  1
  Zn  Zn175  1  0.33416000  0.84978000  0.49620000  1
  Zn  Zn176  1  0.60653000  0.25000000  0.78694000  1
  Zn  Zn177  1  0.14347000  0.25000000  0.71306000  1
  Zn  Zn178  1  0.16964000  0.65022000  0.49620000  1
  Zn  Zn179  1  0.81606000  0.84978000  0.00380000  1
  Zn  Zn180  1  0.18394000  0.15022000  0.99620000  1
  Zn  Zn181  1  0.83036000  0.34978000  0.50380000  1
  Zn  Zn182  1  0.85653000  0.75000000  0.28694000  1
  Zn  Zn183  1  0.39347000  0.75000000  0.21306000  1
  Zn  Zn184  1  0.66584000  0.15022000  0.50380000  1
  Zn  Zn185  1  0.81986000  0.34978000  0.99620000  1
