# generated using pymatgen
data_Mn3H16(C2O)16
_symmetry_space_group_name_H-M   'P 1'
_cell_length_a   12.64000000
_cell_length_b   13.09200000
_cell_length_c   14.49000000
_cell_angle_alpha   90.00000000
_cell_angle_beta   90.00000000
_cell_angle_gamma   116.85000000
_symmetry_Int_Tables_number   1
_chemical_formula_structural   Mn3H16(C2O)16
_chemical_formula_sum   'Mn6 H32 C64 O32'
_cell_volume   2139.33988221
_cell_formula_units_Z   2
loop_
 _symmetry_equiv_pos_site_id
 _symmetry_equiv_pos_as_xyz
  1  'x, y, z'
loop_
 _atom_site_type_symbol
 _atom_site_label
 _atom_site_symmetry_multiplicity
 _atom_site_fract_x
 _atom_site_fract_y
 _atom_site_fract_z
 _atom_site_occupancy
  Mn  Mn0  1  0.00000000  1.00000000  0.50000000  1
  Mn  Mn1  1  0.74477000  0.27135000  0.05711000  1
  Mn  Mn2  1  0.24477000  0.27135000  0.44289000  1
  Mn  Mn3  1  0.75523000  0.72865000  0.55711000  1
  Mn  Mn4  1  0.25523000  0.72865000  0.94289000  1
  Mn  Mn5  1  0.50000000  0.00000000  0.00000000  1
  H  H6  1  0.07430000  0.01740000  0.73760000  1
  H  H7  1  0.57430000  0.01740000  0.76240000  1
  H  H8  1  0.25920000  0.05540000  0.18650000  1
  H  H9  1  0.75920000  0.05540000  0.31350000  1
  H  H10  1  0.64550000  0.14440000  0.63760000  1
  H  H11  1  0.14550000  0.14440000  0.86240000  1
  H  H12  1  0.51590000  0.17280000  0.54260000  1
  H  H13  1  0.86050000  0.17280000  0.66850000  1
  H  H14  1  0.36050000  0.17280000  0.83150000  1
  H  H15  1  0.01590000  0.17280000  0.95740000  1
  H  H16  1  0.28700000  0.24800000  0.71790000  1
  H  H17  1  0.78700000  0.24800000  0.78210000  1
  H  H18  1  0.41500000  0.40890000  0.63710000  1
  H  H19  1  0.91500000  0.40890000  0.86290000  1
  H  H20  1  0.18750000  0.42900000  0.70700000  1
  H  H21  1  0.68750000  0.42900000  0.79300000  1
  H  H22  1  0.31250000  0.57100000  0.20700000  1
  H  H23  1  0.81250000  0.57100000  0.29300000  1
  H  H24  1  0.08500000  0.59110000  0.13710000  1
  H  H25  1  0.58500000  0.59110000  0.36290000  1
  H  H26  1  0.21300000  0.75200000  0.21790000  1
  H  H27  1  0.71300000  0.75200000  0.28210000  1
  H  H28  1  0.98410000  0.82720000  0.04260000  1
  H  H29  1  0.63950000  0.82720000  0.16850000  1
  H  H30  1  0.13950000  0.82720000  0.33150000  1
  H  H31  1  0.48410000  0.82720000  0.45740000  1
  H  H32  1  0.85450000  0.85560000  0.13760000  1
  H  H33  1  0.35450000  0.85560000  0.36240000  1
  H  H34  1  0.24080000  0.94460000  0.68650000  1
  H  H35  1  0.74080000  0.94460000  0.81350000  1
  H  H36  1  0.42570000  0.98260000  0.23760000  1
  H  H37  1  0.92570000  0.98260000  0.26240000  1
  C  C38  1  0.17790000  0.01400000  0.17760000  1
  C  C39  1  0.67790000  0.01400000  0.32240000  1
  C  C40  1  0.52200000  0.02820000  0.72300000  1
  C  C41  1  0.02200000  0.02820000  0.77700000  1
  C  C42  1  0.09980000  0.03140000  0.23670000  1
  C  C43  1  0.59980000  0.03140000  0.26330000  1
  C  C44  1  0.36500000  0.06420000  0.60590000  1
  C  C45  1  0.86500000  0.06420000  0.89410000  1
  C  C46  1  0.28080000  0.09120000  0.54900000  1
  C  C47  1  0.78080000  0.09120000  0.95100000  1
  C  C48  1  0.56440000  0.10480000  0.64860000  1
  C  C49  1  0.06440000  0.10480000  0.85140000  1
  C  C50  1  0.65040000  0.11800000  0.18740000  1
  C  C51  1  0.15040000  0.11800000  0.31260000  1
  C  C52  1  0.48640000  0.12170000  0.59170000  1
  C  C53  1  0.98640000  0.12170000  0.90830000  1
  C  C54  1  0.91160000  0.23950000  0.69890000  1
  C  C55  1  0.41160000  0.23950000  0.80110000  1
  C  C56  1  0.07190000  0.24370000  0.59770000  1
  C  C57  1  0.57190000  0.24370000  0.90230000  1
  C  C58  1  0.36750000  0.28340000  0.73180000  1
  C  C59  1  0.86750000  0.28340000  0.76820000  1
  C  C60  1  0.03030000  0.29340000  0.67470000  1
  C  C61  1  0.53030000  0.29340000  0.82530000  1
  C  C62  1  0.44400000  0.37990000  0.68390000  1
  C  C63  1  0.94400000  0.37990000  0.81610000  1
  C  C64  1  0.10760000  0.39190000  0.72290000  1
  C  C65  1  0.60760000  0.39190000  0.77710000  1
  C  C66  1  0.56530000  0.43450000  0.70550000  1
  C  C67  1  0.06530000  0.43450000  0.79450000  1
  C  C68  1  0.85310000  0.46230000  0.15090000  1
  C  C69  1  0.35310000  0.46230000  0.34910000  1
  C  C70  1  0.64690000  0.53770000  0.65090000  1
  C  C71  1  0.14690000  0.53770000  0.84910000  1
  C  C72  1  0.93470000  0.56550000  0.20550000  1
  C  C73  1  0.43470000  0.56550000  0.29450000  1
  C  C74  1  0.39240000  0.60810000  0.22290000  1
  C  C75  1  0.89240000  0.60810000  0.27710000  1
  C  C76  1  0.05600000  0.62010000  0.18390000  1
  C  C77  1  0.55600000  0.62010000  0.31610000  1
  C  C78  1  0.46970000  0.70660000  0.17470000  1
  C  C79  1  0.96970000  0.70660000  0.32530000  1
  C  C80  1  0.13250000  0.71660000  0.23180000  1
  C  C81  1  0.63250000  0.71660000  0.26820000  1
  C  C82  1  0.42810000  0.75630000  0.09770000  1
  C  C83  1  0.92810000  0.75630000  0.40230000  1
  C  C84  1  0.58840000  0.76050000  0.19890000  1
  C  C85  1  0.08840000  0.76050000  0.30110000  1
  C  C86  1  0.01360000  0.87830000  0.09170000  1
  C  C87  1  0.51360000  0.87830000  0.40830000  1
  C  C88  1  0.84960000  0.88200000  0.68740000  1
  C  C89  1  0.34960000  0.88200000  0.81260000  1
  C  C90  1  0.93560000  0.89520000  0.14860000  1
  C  C91  1  0.43560000  0.89520000  0.35140000  1
  C  C92  1  0.21920000  0.90880000  0.04900000  1
  C  C93  1  0.71920000  0.90880000  0.45100000  1
  C  C94  1  0.13500000  0.93580000  0.10590000  1
  C  C95  1  0.63500000  0.93580000  0.39410000  1
  C  C96  1  0.40020000  0.96860000  0.73670000  1
  C  C97  1  0.90020000  0.96860000  0.76330000  1
  C  C98  1  0.97800000  0.97180000  0.22300000  1
  C  C99  1  0.47800000  0.97180000  0.27700000  1
  C  C100  1  0.32210000  0.98600000  0.67760000  1
  C  C101  1  0.82210000  0.98600000  0.82240000  1
  O  O102  1  0.17170000  0.02850000  0.55690000  1
  O  O103  1  0.67170000  0.02850000  0.94310000  1
  O  O104  1  0.58690000  0.11640000  0.11830000  1
  O  O105  1  0.08690000  0.11640000  0.38170000  1
  O  O106  1  0.00550000  0.14420000  0.57350000  1
  O  O107  1  0.50550000  0.14420000  0.92650000  1
  O  O108  1  0.32830000  0.18160000  0.50100000  1
  O  O109  1  0.82830000  0.18160000  0.99900000  1
  O  O110  1  0.75480000  0.19280000  0.19530000  1
  O  O111  1  0.25480000  0.19280000  0.30470000  1
  O  O112  1  0.17220000  0.30790000  0.56090000  1
  O  O113  1  0.67220000  0.30790000  0.93910000  1
  O  O114  1  0.74460000  0.41610000  0.16490000  1
  O  O115  1  0.24460000  0.41610000  0.33510000  1
  O  O116  1  0.90070000  0.42600000  0.08910000  1
  O  O117  1  0.40070000  0.42600000  0.41090000  1
  O  O118  1  0.59930000  0.57400000  0.58910000  1
  O  O119  1  0.09930000  0.57400000  0.91090000  1
  O  O120  1  0.75540000  0.58390000  0.66490000  1
  O  O121  1  0.25540000  0.58390000  0.83510000  1
  O  O122  1  0.32780000  0.69210000  0.06090000  1
  O  O123  1  0.82780000  0.69210000  0.43910000  1
  O  O124  1  0.74520000  0.80720000  0.69530000  1
  O  O125  1  0.24520000  0.80720000  0.80470000  1
  O  O126  1  0.17170000  0.81840000  0.00100000  1
  O  O127  1  0.67170000  0.81840000  0.49900000  1
  O  O128  1  0.49450000  0.85580000  0.07350000  1
  O  O129  1  0.99450000  0.85580000  0.42650000  1
  O  O130  1  0.91310000  0.88360000  0.61830000  1
  O  O131  1  0.41310000  0.88360000  0.88170000  1
  O  O132  1  0.32830000  0.97150000  0.05690000  1
  O  O133  1  0.82830000  0.97150000  0.44310000  1
