# generated using pymatgen
data_ZnH20C28(NO2)2
_symmetry_space_group_name_H-M   'P 1'
_cell_length_a   8.40600000
_cell_length_b   13.50700000
_cell_length_c   14.13609033
_cell_angle_alpha   61.46157204
_cell_angle_beta   85.78924709
_cell_angle_gamma   81.15910000
_symmetry_Int_Tables_number   1
_chemical_formula_structural   ZnH20C28(NO2)2
_chemical_formula_sum   'Zn2 H40 C56 N4 O8'
_cell_volume   1393.24354753
_cell_formula_units_Z   2
loop_
 _symmetry_equiv_pos_site_id
 _symmetry_equiv_pos_as_xyz
  1  'x, y, z'
loop_
 _atom_site_type_symbol
 _atom_site_label
 _atom_site_symmetry_multiplicity
 _atom_site_fract_x
 _atom_site_fract_y
 _atom_site_fract_z
 _atom_site_occupancy
  Zn  Zn0  1  0.66638000  0.07970000  0.81726000  1
  Zn  Zn1  1  0.16638000  0.89696000  0.18274000  1
  H  H2  1  0.96730000  0.43300000  0.16280000  1
  H  H3  1  0.94810000  0.69280000  0.86140000  1
  H  H4  1  0.92600000  0.65110000  0.34920000  1
  H  H5  1  0.92100000  0.34460000  0.66580000  1
  H  H6  1  0.90010000  0.91810000  0.51940000  1
  H  H7  1  0.89370000  0.33420000  0.09400000  1
  H  H8  1  0.86360000  0.51540000  0.89240000  1
  H  H9  1  0.85950000  0.15280000  0.11080000  1
  H  H10  1  0.80290000  0.13380000  0.59780000  1
  H  H11  1  0.79470000  0.04030000  0.03840000  1
  H  H12  1  0.76920000  0.50660000  0.52720000  1
  H  H13  1  0.75980000  0.78680000  0.19600000  1
  H  H14  1  0.74190000  0.42940000  0.83020000  1
  H  H15  1  0.66010000  0.97570000  0.25940000  1
  H  H16  1  0.65980000  0.31310000  0.76980000  1
  H  H17  1  0.65880000  0.95790000  0.59260000  1
  H  H18  1  0.55330000  0.76890000  0.77620000  1
  H  H19  1  0.54260000  0.62310000  0.48220000  1
  H  H20  1  0.53420000  0.72990000  0.07520000  1
  H  H21  1  0.51330000  0.88470000  0.12500000  1
  H  H22  1  0.46730000  0.59580000  0.83720000  1
  H  H23  1  0.44810000  0.55420000  0.13860000  1
  H  H24  1  0.42600000  0.00030000  0.65080000  1
  H  H25  1  0.42100000  0.01040000  0.33420000  1
  H  H26  1  0.40010000  0.43750000  0.48060000  1
  H  H27  1  0.39370000  0.42820000  0.90600000  1
  H  H28  1  0.36360000  0.40780000  0.10760000  1
  H  H29  1  0.35950000  0.26360000  0.88920000  1
  H  H30  1  0.30290000  0.73160000  0.40220000  1
  H  H31  1  0.29470000  0.07870000  0.96160000  1
  H  H32  1  0.26920000  0.03380000  0.47280000  1
  H  H33  1  0.25980000  0.98280000  0.80400000  1
  H  H34  1  0.24190000  0.25960000  0.16980000  1
  H  H35  1  0.16010000  0.23510000  0.74060000  1
  H  H36  1  0.15980000  0.08290000  0.23020000  1
  H  H37  1  0.15880000  0.55050000  0.40740000  1
  H  H38  1  0.05330000  0.54510000  0.22380000  1
  H  H39  1  0.04260000  0.10530000  0.51780000  1
  H  H40  1  0.03420000  0.80510000  0.92480000  1
  H  H41  1  0.01330000  0.00970000  0.87500000  1
  C  C42  1  0.97960000  0.50810000  0.11480000  1
  C  C43  1  0.96780000  0.66330000  0.93440000  1
  C  C44  1  0.95950000  0.91790000  0.33400000  1
  C  C45  1  0.94500000  0.55220000  0.00600000  1
  C  C46  1  0.89610000  0.10290000  0.63920000  1
  C  C47  1  0.88850000  0.47980000  0.96540000  1
  C  C48  1  0.86970000  0.37100000  0.02080000  1
  C  C49  1  0.85950000  0.53080000  0.48460000  1
  C  C50  1  0.83570000  0.62500000  0.39080000  1
  C  C51  1  0.82450000  0.18660000  0.04000000  1
  C  C52  1  0.81390000  0.30330000  0.97640000  1
  C  C53  1  0.80570000  0.94150000  0.38140000  1
  C  C54  1  0.80450000  0.93700000  0.48160000  1
  C  C55  1  0.78170000  0.11900000  0.99680000  1
  C  C56  1  0.75230000  0.35110000  0.87440000  1
  C  C57  1  0.70530000  0.27980000  0.83800000  1
  C  C58  1  0.67660000  0.69190000  0.34680000  1
  C  C59  1  0.66820000  0.77320000  0.23900000  1
  C  C60  1  0.66020000  0.97080000  0.32720000  1
  C  C61  1  0.65840000  0.96090000  0.52560000  1
  C  C62  1  0.60460000  0.88220000  0.87740000  1
  C  C63  1  0.55300000  0.76900000  0.92000000  1
  C  C64  1  0.53920000  0.67620000  0.40960000  1
  C  C65  1  0.53160000  0.72610000  0.84900000  1
  C  C66  1  0.52060000  0.70330000  0.02700000  1
  C  C67  1  0.52020000  0.83270000  0.19800000  1
  C  C68  1  0.51680000  0.99280000  0.37140000  1
  C  C69  1  0.51450000  0.98870000  0.47300000  1
  C  C70  1  0.47960000  0.62290000  0.88520000  1
  C  C71  1  0.46780000  0.59770000  0.06560000  1
  C  C72  1  0.45950000  0.25190000  0.66600000  1
  C  C73  1  0.44500000  0.55820000  0.99400000  1
  C  C74  1  0.39610000  0.74210000  0.36080000  1
  C  C75  1  0.38850000  0.44520000  0.03460000  1
  C  C76  1  0.36970000  0.39180000  0.97920000  1
  C  C77  1  0.35950000  0.01540000  0.51540000  1
  C  C78  1  0.33570000  0.01580000  0.60920000  1
  C  C79  1  0.32450000  0.22660000  0.96000000  1
  C  C80  1  0.31390000  0.27970000  0.02360000  1
  C  C81  1  0.30570000  0.32290000  0.61860000  1
  C  C82  1  0.30450000  0.41860000  0.51840000  1
  C  C83  1  0.28170000  0.11580000  0.00320000  1
  C  C84  1  0.25230000  0.22550000  0.12560000  1
  C  C85  1  0.20530000  0.11780000  0.16200000  1
  C  C86  1  0.17660000  0.03870000  0.65320000  1
  C  C87  1  0.16820000  0.01220000  0.76100000  1
  C  C88  1  0.16020000  0.29800000  0.67280000  1
  C  C89  1  0.15840000  0.48650000  0.47440000  1
  C  C90  1  0.10460000  0.75960000  0.12260000  1
  C  C91  1  0.05300000  0.68900000  0.08000000  1
  C  C92  1  0.03920000  0.08580000  0.59040000  1
  C  C93  1  0.03160000  0.57510000  0.15100000  1
  C  C94  1  0.02060000  0.73030000  0.97300000  1
  C  C95  1  0.02020000  0.03070000  0.80200000  1
  C  C96  1  0.01680000  0.36420000  0.62860000  1
  C  C97  1  0.01450000  0.46170000  0.52700000  1
  N  N98  1  0.88580000  0.07690000  0.74360000  1
  N  N99  1  0.72270000  0.16690000  0.89640000  1
  N  N100  1  0.38580000  0.82050000  0.25640000  1
  N  N101  1  0.22270000  0.06330000  0.10360000  1
  O  O102  1  0.95350000  0.92930000  0.23760000  1
  O  O103  1  0.62900000  0.94000000  0.77860000  1
  O  O104  1  0.62080000  0.92270000  0.94180000  1
  O  O105  1  0.58940000  0.27340000  0.61680000  1
  O  O106  1  0.45350000  0.16690000  0.76240000  1
  O  O107  1  0.12900000  0.71860000  0.22140000  1
  O  O108  1  0.12080000  0.86450000  0.05820000  1
  O  O109  1  0.08940000  0.89020000  0.38320000  1
