# generated using pymatgen
data_Cd2SiH36C37N2O11
_symmetry_space_group_name_H-M   'P 1'
_cell_length_a   13.98170000
_cell_length_b   14.18170000
_cell_length_c   14.27000000
_cell_angle_alpha   115.92200000
_cell_angle_beta   113.19600000
_cell_angle_gamma   97.14400000
_symmetry_Int_Tables_number   1
_chemical_formula_structural   Cd2SiH36C37N2O11
_chemical_formula_sum   'Cd4 Si2 H72 C74 N4 O22'
_cell_volume   2183.44459143
_cell_formula_units_Z   2
loop_
 _symmetry_equiv_pos_site_id
 _symmetry_equiv_pos_as_xyz
  1  'x, y, z'
loop_
 _atom_site_type_symbol
 _atom_site_label
 _atom_site_symmetry_multiplicity
 _atom_site_fract_x
 _atom_site_fract_y
 _atom_site_fract_z
 _atom_site_occupancy
  Cd  Cd0  1  0.49511000  0.61573000  0.81471000  1
  Cd  Cd1  1  0.50000000  0.50000000  0.00000000  1
  Cd  Cd2  1  0.50489000  0.38427000  0.18529000  1
  Cd  Cd3  1  0.00000000  0.50000000  0.50000000  1
  Si  Si4  1  0.23612000  0.85602000  0.32130000  1
  Si  Si5  1  0.76388000  0.14398000  0.67870000  1
  H  H6  1  0.00740000  0.50350000  0.25790000  1
  H  H7  1  0.01430000  0.34300000  0.06610000  1
  H  H8  1  0.03230000  0.93010000  0.63090000  1
  H  H9  1  0.04670000  0.63040000  0.80600000  1
  H  H10  1  0.05390000  0.93760000  0.23090000  1
  H  H11  1  0.06140000  0.64290000  0.20370000  1
  H  H12  1  0.06790000  0.47650000  0.12960000  1
  H  H13  1  0.07860000  0.12110000  0.61180000  1
  H  H14  1  0.08410000  0.83410000  0.62190000  1
  H  H15  1  0.10430000  0.90490000  0.56530000  1
  H  H16  1  0.13210000  0.43130000  0.90170000  1
  H  H17  1  0.13950000  0.14210000  0.88980000  1
  H  H18  1  0.14250000  0.11370000  0.53870000  1
  H  H19  1  0.14740000  0.76130000  0.42990000  1
  H  H20  1  0.16100000  0.70200000  0.73100000  1
  H  H21  1  0.17270000  0.47800000  0.72840000  1
  H  H22  1  0.17930000  0.33730000  0.14690000  1
  H  H23  1  0.18700000  0.22450000  0.66730000  1
  H  H24  1  0.20670000  0.37960000  0.74330000  1
  H  H25  1  0.21630000  0.70130000  0.56220000  1
  H  H26  1  0.22030000  0.65070000  0.13660000  1
  H  H27  1  0.22680000  0.64500000  0.69100000  1
  H  H28  1  0.23300000  0.47110000  0.21090000  1
  H  H29  1  0.23600000  0.41540000  0.66310000  1
  H  H30  1  0.24080000  0.06780000  0.31970000  1
  H  H31  1  0.29660000  0.59310000  0.01150000  1
  H  H32  1  0.30120000  0.43350000  0.46470000  1
  H  H33  1  0.31430000  0.35630000  0.35190000  1
  H  H34  1  0.31560000  0.25900000  0.46690000  1
  H  H35  1  0.35770000  0.99730000  0.58060000  1
  H  H36  1  0.36540000  0.49020000  0.42040000  1
  H  H37  1  0.38020000  0.97620000  0.26670000  1
  H  H38  1  0.42940000  0.18750000  0.72700000  1
  H  H39  1  0.43310000  0.80020000  0.41740000  1
  H  H40  1  0.44990000  0.91790000  0.13470000  1
  H  H41  1  0.49720000  0.25860000  0.44910000  1
  H  H42  1  0.50280000  0.74140000  0.55090000  1
  H  H43  1  0.55010000  0.08210000  0.86530000  1
  H  H44  1  0.56690000  0.19980000  0.58260000  1
  H  H45  1  0.57060000  0.81250000  0.27300000  1
  H  H46  1  0.61980000  0.02380000  0.73330000  1
  H  H47  1  0.63460000  0.50980000  0.57960000  1
  H  H48  1  0.64230000  0.00270000  0.41940000  1
  H  H49  1  0.68440000  0.74100000  0.53310000  1
  H  H50  1  0.68570000  0.64370000  0.64810000  1
  H  H51  1  0.69880000  0.56650000  0.53530000  1
  H  H52  1  0.70340000  0.40690000  0.98850000  1
  H  H53  1  0.75920000  0.93220000  0.68030000  1
  H  H54  1  0.76400000  0.58460000  0.33690000  1
  H  H55  1  0.76700000  0.52890000  0.78910000  1
  H  H56  1  0.77320000  0.35500000  0.30900000  1
  H  H57  1  0.77970000  0.34930000  0.86340000  1
  H  H58  1  0.78370000  0.29870000  0.43780000  1
  H  H59  1  0.79330000  0.62040000  0.25670000  1
  H  H60  1  0.81300000  0.77550000  0.33270000  1
  H  H61  1  0.82070000  0.66270000  0.85310000  1
  H  H62  1  0.82730000  0.52200000  0.27160000  1
  H  H63  1  0.83900000  0.29800000  0.26900000  1
  H  H64  1  0.85260000  0.23870000  0.57010000  1
  H  H65  1  0.85750000  0.88630000  0.46130000  1
  H  H66  1  0.86050000  0.85790000  0.11020000  1
  H  H67  1  0.86790000  0.56870000  0.09830000  1
  H  H68  1  0.89570000  0.09510000  0.43470000  1
  H  H69  1  0.91590000  0.16590000  0.37810000  1
  H  H70  1  0.92140000  0.87890000  0.38820000  1
  H  H71  1  0.93210000  0.52350000  0.87040000  1
  H  H72  1  0.93860000  0.35710000  0.79630000  1
  H  H73  1  0.94610000  0.06240000  0.76910000  1
  H  H74  1  0.95330000  0.36960000  0.19400000  1
  H  H75  1  0.96770000  0.06990000  0.36910000  1
  H  H76  1  0.98570000  0.65700000  0.93390000  1
  H  H77  1  0.99260000  0.49650000  0.74210000  1
  C  C78  1  0.01680000  0.86180000  0.20220000  1
  C  C79  1  0.02090000  0.68830000  0.18800000  1
  C  C80  1  0.02240000  0.43260000  0.23140000  1
  C  C81  1  0.05100000  0.87120000  0.58040000  1
  C  C82  1  0.06470000  0.41440000  0.14410000  1
  C  C83  1  0.07110000  0.32130000  0.57900000  1
  C  C84  1  0.07950000  0.79910000  0.23120000  1
  C  C85  1  0.09450000  0.35700000  0.87700000  1
  C  C86  1  0.09890000  0.18500000  0.86800000  1
  C  C87  1  0.11630000  0.43820000  0.33580000  1
  C  C88  1  0.12030000  0.16370000  0.59280000  1
  C  C89  1  0.15560000  0.29400000  0.90620000  1
  C  C90  1  0.17710000  0.41040000  0.19900000  1
  C  C91  1  0.18110000  0.40590000  0.68790000  1
  C  C92  1  0.21990000  0.75770000  0.45450000  1
  C  C93  1  0.26090000  0.72210000  0.53360000  1
  C  C94  1  0.26850000  0.70550000  0.13810000  1
  C  C95  1  0.27980000  0.09160000  0.40230000  1
  C  C96  1  0.28130000  0.34400000  0.97830000  1
  C  C97  1  0.28270000  0.78840000  0.40980000  1
  C  C98  1  0.29180000  0.01110000  0.43360000  1
  C  C99  1  0.29310000  0.81980000  0.21630000  1
  C  C100  1  0.30350000  0.42640000  0.39420000  1
  C  C101  1  0.31310000  0.67080000  0.06270000  1
  C  C102  1  0.32400000  0.20570000  0.49000000  1
  C  C103  1  0.34860000  0.04990000  0.55670000  1
  C  C104  1  0.36210000  0.89830000  0.21440000  1
  C  C105  1  0.36740000  0.71690000  0.57130000  1
  C  C106  1  0.38040000  0.24190000  0.61160000  1
  C  C107  1  0.38180000  0.75000000  0.06250000  1
  C  C108  1  0.38890000  0.78090000  0.44710000  1
  C  C109  1  0.39180000  0.16340000  0.64420000  1
  C  C110  1  0.40490000  0.86380000  0.13680000  1
  C  C111  1  0.41360000  0.68010000  0.65830000  1
  C  C112  1  0.43000000  0.36450000  0.70940000  1
  C  C113  1  0.43060000  0.74580000  0.52670000  1
  C  C114  1  0.43340000  0.71280000  0.98440000  1
  C  C115  1  0.56660000  0.28720000  0.01560000  1
  C  C116  1  0.56940000  0.25420000  0.47330000  1
  C  C117  1  0.57000000  0.63550000  0.29060000  1
  C  C118  1  0.58640000  0.31990000  0.34170000  1
  C  C119  1  0.59510000  0.13620000  0.86320000  1
  C  C120  1  0.60820000  0.83660000  0.35580000  1
  C  C121  1  0.61110000  0.21910000  0.55290000  1
  C  C122  1  0.61820000  0.25000000  0.93750000  1
  C  C123  1  0.61960000  0.75810000  0.38840000  1
  C  C124  1  0.63260000  0.28310000  0.42870000  1
  C  C125  1  0.63790000  0.10170000  0.78560000  1
  C  C126  1  0.65140000  0.95010000  0.44330000  1
  C  C127  1  0.67600000  0.79430000  0.51000000  1
  C  C128  1  0.68690000  0.32920000  0.93730000  1
  C  C129  1  0.69650000  0.57360000  0.60580000  1
  C  C130  1  0.70690000  0.18020000  0.78370000  1
  C  C131  1  0.70820000  0.98890000  0.56640000  1
  C  C132  1  0.71730000  0.21160000  0.59020000  1
  C  C133  1  0.71870000  0.65600000  0.02170000  1
  C  C134  1  0.72020000  0.90840000  0.59770000  1
  C  C135  1  0.73150000  0.29450000  0.86190000  1
  C  C136  1  0.73910000  0.27790000  0.46640000  1
  C  C137  1  0.78010000  0.24230000  0.54550000  1
  C  C138  1  0.81890000  0.59410000  0.31210000  1
  C  C139  1  0.82290000  0.58960000  0.80100000  1
  C  C140  1  0.84440000  0.70600000  0.09380000  1
  C  C141  1  0.87970000  0.83630000  0.40720000  1
  C  C142  1  0.88370000  0.56180000  0.66420000  1
  C  C143  1  0.90110000  0.81500000  0.13200000  1
  C  C144  1  0.90550000  0.64300000  0.12300000  1
  C  C145  1  0.92050000  0.20090000  0.76880000  1
  C  C146  1  0.92890000  0.67870000  0.42100000  1
  C  C147  1  0.93530000  0.58560000  0.85590000  1
  C  C148  1  0.94900000  0.12880000  0.41960000  1
  C  C149  1  0.97760000  0.56740000  0.76860000  1
  C  C150  1  0.97910000  0.31170000  0.81200000  1
  C  C151  1  0.98320000  0.13820000  0.79780000  1
  N  N152  1  0.05020000  0.21120000  0.53410000  1
  N  N153  1  0.19970000  0.42550000  0.31400000  1
  N  N154  1  0.80030000  0.57450000  0.68600000  1
  N  N155  1  0.94980000  0.78880000  0.46590000  1
  O  O156  1  0.00110000  0.64740000  0.47200000  1
  O  O157  1  0.11540000  0.44780000  0.42650000  1
  O  O158  1  0.15345000  0.62630000  0.68040000  1
  O  O159  1  0.32623000  0.32090000  0.05710000  1
  O  O160  1  0.32815000  0.40300000  0.95360000  1
  O  O161  1  0.35184000  0.64790000  0.69180000  1
  O  O162  1  0.42175000  0.60828000  0.93078000  1
  O  O163  1  0.43500000  0.43483000  0.67860000  1
  O  O164  1  0.46140000  0.38620000  0.81360000  1
  O  O165  1  0.48330000  0.78097000  0.97160000  1
  O  O166  1  0.48809000  0.31840000  0.30420000  1
  O  O167  1  0.51191000  0.68160000  0.69580000  1
  O  O168  1  0.51670000  0.21903000  0.02840000  1
  O  O169  1  0.53860000  0.61380000  0.18640000  1
  O  O170  1  0.56500000  0.56517000  0.32140000  1
  O  O171  1  0.57825000  0.39172000  0.06922000  1
  O  O172  1  0.64816000  0.35210000  0.30820000  1
  O  O173  1  0.67185000  0.59700000  0.04640000  1
  O  O174  1  0.67377000  0.67910000  0.94290000  1
  O  O175  1  0.84655000  0.37370000  0.31960000  1
  O  O176  1  0.88460000  0.55220000  0.57350000  1
  O  O177  1  0.99890000  0.35260000  0.52800000  1
