# generated using pymatgen
data_ZnH6(C5N3)2
_symmetry_space_group_name_H-M   'P 1'
_cell_length_a   7.22590000
_cell_length_b   15.14200000
_cell_length_c   18.69830000
_cell_angle_alpha   90.00000000
_cell_angle_beta   90.00000000
_cell_angle_gamma   93.14400000
_symmetry_Int_Tables_number   1
_chemical_formula_structural   ZnH6(C5N3)2
_chemical_formula_sum   'Zn4 H24 C40 N24'
_cell_volume   2042.78725649
_cell_formula_units_Z   4
loop_
 _symmetry_equiv_pos_site_id
 _symmetry_equiv_pos_as_xyz
  1  'x, y, z'
loop_
 _atom_site_type_symbol
 _atom_site_label
 _atom_site_symmetry_multiplicity
 _atom_site_fract_x
 _atom_site_fract_y
 _atom_site_fract_z
 _atom_site_occupancy
  Zn  Zn0  1  0.36247000  0.48077000  0.57967000  1
  Zn  Zn1  1  0.36247000  0.98077000  0.92033000  1
  Zn  Zn2  1  0.63753000  0.01923000  0.07967000  1
  Zn  Zn3  1  0.63753000  0.51923000  0.42033000  1
  H  H4  1  0.01260000  0.36460000  0.24390000  1
  H  H5  1  0.01260000  0.86460000  0.25610000  1
  H  H6  1  0.03380000  0.09090000  0.98130000  1
  H  H7  1  0.03380000  0.59090000  0.51870000  1
  H  H8  1  0.05970000  0.03050000  0.82560000  1
  H  H9  1  0.05970000  0.53050000  0.67440000  1
  H  H10  1  0.30310000  0.09500000  0.16530000  1
  H  H11  1  0.30310000  0.59500000  0.33470000  1
  H  H12  1  0.43110000  0.37540000  0.33420000  1
  H  H13  1  0.43110000  0.87540000  0.16580000  1
  H  H14  1  0.48930000  0.27060000  0.25100000  1
  H  H15  1  0.48930000  0.77060000  0.24900000  1
  H  H16  1  0.51070000  0.22940000  0.75100000  1
  H  H17  1  0.51070000  0.72940000  0.74900000  1
  H  H18  1  0.56890000  0.12460000  0.83420000  1
  H  H19  1  0.56890000  0.62460000  0.66580000  1
  H  H20  1  0.69690000  0.40500000  0.66530000  1
  H  H21  1  0.69690000  0.90500000  0.83470000  1
  H  H22  1  0.94030000  0.46950000  0.32560000  1
  H  H23  1  0.94030000  0.96950000  0.17440000  1
  H  H24  1  0.96620000  0.40910000  0.48130000  1
  H  H25  1  0.96620000  0.90910000  0.01870000  1
  H  H26  1  0.98740000  0.13540000  0.74390000  1
  H  H27  1  0.98740000  0.63540000  0.75610000  1
  C  C28  1  0.04390000  0.34590000  0.62192000  1
  C  C29  1  0.04390000  0.84590000  0.87808000  1
  C  C30  1  0.10760000  0.13460000  0.76150000  1
  C  C31  1  0.10760000  0.63460000  0.73850000  1
  C  C32  1  0.10810000  0.11030000  0.08675000  1
  C  C33  1  0.10810000  0.61030000  0.41325000  1
  C  C34  1  0.12210000  0.08290000  0.01654000  1
  C  C35  1  0.12210000  0.58290000  0.48346000  1
  C  C36  1  0.15210000  0.07190000  0.81100000  1
  C  C37  1  0.15210000  0.57190000  0.68900000  1
  C  C38  1  0.19630000  0.26400000  0.68622000  1
  C  C39  1  0.19630000  0.76400000  0.81378000  1
  C  C40  1  0.24000000  0.19530000  0.73830000  1
  C  C41  1  0.24000000  0.69530000  0.76170000  1
  C  C42  1  0.27020000  0.08500000  0.11780000  1
  C  C43  1  0.27020000  0.58500000  0.38220000  1
  C  C44  1  0.41540000  0.19000000  0.76600000  1
  C  C45  1  0.41540000  0.69000000  0.73400000  1
  C  C46  1  0.44960000  0.12650000  0.81580000  1
  C  C47  1  0.44960000  0.62650000  0.68420000  1
  C  C48  1  0.55040000  0.37350000  0.31580000  1
  C  C49  1  0.55040000  0.87350000  0.18420000  1
  C  C50  1  0.58460000  0.31000000  0.26600000  1
  C  C51  1  0.58460000  0.81000000  0.23400000  1
  C  C52  1  0.72980000  0.41500000  0.61780000  1
  C  C53  1  0.72980000  0.91500000  0.88220000  1
  C  C54  1  0.76000000  0.30470000  0.23830000  1
  C  C55  1  0.76000000  0.80470000  0.26170000  1
  C  C56  1  0.80370000  0.23600000  0.18622000  1
  C  C57  1  0.80370000  0.73600000  0.31378000  1
  C  C58  1  0.84790000  0.42810000  0.31100000  1
  C  C59  1  0.84790000  0.92810000  0.18900000  1
  C  C60  1  0.87790000  0.41710000  0.51654000  1
  C  C61  1  0.87790000  0.91710000  0.98346000  1
  C  C62  1  0.89190000  0.38970000  0.58675000  1
  C  C63  1  0.89190000  0.88970000  0.91325000  1
  C  C64  1  0.89240000  0.36540000  0.26150000  1
  C  C65  1  0.89240000  0.86540000  0.23850000  1
  C  C66  1  0.95610000  0.15410000  0.12192000  1
  C  C67  1  0.95610000  0.65410000  0.37808000  1
  N  N68  1  0.01860000  0.27820000  0.66681000  1
  N  N69  1  0.01860000  0.77820000  0.83319000  1
  N  N70  1  0.22320000  0.37211000  0.61464000  1
  N  N71  1  0.22320000  0.87211000  0.88536000  1
  N  N72  1  0.28030000  0.04344000  0.00672000  1
  N  N73  1  0.28030000  0.54344000  0.49328000  1
  N  N74  1  0.32040000  0.06750000  0.83907000  1
  N  N75  1  0.32040000  0.56750000  0.66093000  1
  N  N76  1  0.32260000  0.31820000  0.65661000  1
  N  N77  1  0.32260000  0.81820000  0.84339000  1
  N  N78  1  0.37250000  0.04420000  0.07039000  1
  N  N79  1  0.37250000  0.54420000  0.42961000  1
  N  N80  1  0.62750000  0.45580000  0.57039000  1
  N  N81  1  0.62750000  0.95580000  0.92961000  1
  N  N82  1  0.67740000  0.18180000  0.15661000  1
  N  N83  1  0.67740000  0.68180000  0.34339000  1
  N  N84  1  0.67960000  0.43250000  0.33907000  1
  N  N85  1  0.67960000  0.93250000  0.16093000  1
  N  N86  1  0.71970000  0.45656000  0.50672000  1
  N  N87  1  0.71970000  0.95656000  0.99328000  1
  N  N88  1  0.77680000  0.12789000  0.11464000  1
  N  N89  1  0.77680000  0.62789000  0.38536000  1
  N  N90  1  0.98140000  0.22180000  0.16681000  1
  N  N91  1  0.98140000  0.72180000  0.33319000  1
