# generated using pymatgen
data_AgH12(C3N)6
_symmetry_space_group_name_H-M   'P 1'
_cell_length_a   13.80656811
_cell_length_b   13.80656811
_cell_length_c   24.57188803
_cell_angle_alpha   102.31886572
_cell_angle_beta   101.63086337
_cell_angle_gamma   105.15847416
_symmetry_Int_Tables_number   1
_chemical_formula_structural   AgH12(C3N)6
_chemical_formula_sum   'Ag8 H96 C144 N48'
_cell_volume   4249.13483439
_cell_formula_units_Z   8
loop_
 _symmetry_equiv_pos_site_id
 _symmetry_equiv_pos_as_xyz
  1  'x, y, z'
loop_
 _atom_site_type_symbol
 _atom_site_label
 _atom_site_symmetry_multiplicity
 _atom_site_fract_x
 _atom_site_fract_y
 _atom_site_fract_z
 _atom_site_occupancy
  Ag  Ag0  1  0.19989000  0.52204000  0.63369000  1
  Ag  Ag1  1  0.11165000  0.93380000  0.13369000  1
  Ag  Ag2  1  0.43662000  0.71287000  0.63403000  1
  Ag  Ag3  1  0.92116000  0.69741000  0.13403000  1
  Ag  Ag4  1  0.56338000  0.28713000  0.36597000  1
  Ag  Ag5  1  0.07884000  0.30259000  0.86597000  1
  Ag  Ag6  1  0.80011000  0.47796000  0.36631000  1
  Ag  Ag7  1  0.88835000  0.06620000  0.86631000  1
  C  C8  1  0.42970000  0.33200000  0.90450000  1
  C  C9  1  0.57250000  0.97480000  0.40450000  1
  C  C10  1  0.38920000  0.37610000  0.99390000  1
  C  C11  1  0.61780000  0.10470000  0.49390000  1
  C  C12  1  0.19070000  0.13750000  0.99660000  1
  C  C13  1  0.85910000  0.30590000  0.49660000  1
  C  C14  1  0.17650000  0.74060000  0.61910000  1
  C  C15  1  0.87850000  0.94260000  0.11910000  1
  C  C16  1  0.22330000  0.06670000  0.90820000  1
  C  C17  1  0.84150000  0.18490000  0.40820000  1
  C  C18  1  0.46050000  0.35970000  0.96440000  1
  C  C19  1  0.60470000  0.00390000  0.46440000  1
  C  C20  1  0.16090000  0.62850000  0.53400000  1
  C  C21  1  0.90550000  0.87310000  0.03400000  1
  C  C22  1  0.40150000  0.82650000  0.53800000  1
  C  C23  1  0.71150000  0.63650000  0.03800000  1
  C  C24  1  0.44230000  0.95150000  0.62300000  1
  C  C25  1  0.67150000  0.68070000  0.12300000  1
  C  C26  1  0.26020000  0.10790000  0.96710000  1
  C  C27  1  0.85920000  0.20690000  0.46710000  1
  C  C28  1  0.56940000  0.37280000  0.99860000  1
  C  C29  1  0.62580000  0.92920000  0.49860000  1
  C  C30  1  0.36720000  0.12090000  0.99930000  1
  C  C31  1  0.87840000  0.13210000  0.49930000  1
  C  C32  1  0.38300000  0.79680000  0.75820000  1
  C  C33  1  0.96140000  0.87520000  0.25820000  1
  C  C34  1  0.21600000  0.89330000  0.02750000  1
  C  C35  1  0.13420000  0.31150000  0.52750000  1
  C  C36  1  0.63410000  0.45590000  0.17920000  1
  C  C37  1  0.72330000  0.04510000  0.67920000  1
  C  C38  1  0.67690000  0.90290000  0.58480000  1
  C  C39  1  0.68190000  0.40790000  0.08480000  1
  C  C40  1  0.62910000  0.77050000  0.50440000  1
  C  C41  1  0.73390000  0.37530000  0.00440000  1
  C  C42  1  0.57500000  0.62020000  0.41620000  1
  C  C43  1  0.79600000  0.34120000  0.91620000  1
  C  C44  1  0.37490000  0.50990000  0.52240000  1
  C  C45  1  0.01250000  0.64750000  0.02240000  1
  C  C46  1  0.19870000  0.07020000  0.25970000  1
  C  C47  1  0.18950000  0.56100000  0.75970000  1
  C  C48  1  0.39780000  0.81980000  0.81800000  1
  C  C49  1  0.99820000  0.92020000  0.31800000  1
  C  C50  1  0.28600000  0.87770000  0.99710000  1
  C  C51  1  0.11940000  0.21110000  0.49710000  1
  C  C52  1  0.59480000  0.09990000  0.91330000  1
  C  C53  1  0.81340000  0.81850000  0.41330000  1
  C  C54  1  0.53350000  0.12610000  0.00200000  1
  C  C55  1  0.87590000  0.96850000  0.50200000  1
  C  C56  1  0.48420000  0.15070000  0.08510000  1
  C  C57  1  0.93440000  0.10090000  0.58510000  1
  C  C58  1  0.65700000  0.47350000  0.23790000  1
  C  C59  1  0.76440000  0.08090000  0.73790000  1
  C  C60  1  0.70340000  0.43000000  0.15000000  1
  C  C61  1  0.72000000  0.94660000  0.65000000  1
  C  C62  1  0.42750000  0.17610000  0.17560000  1
  C  C63  1  0.99950000  0.24810000  0.67560000  1
  C  C64  1  0.61200000  0.65960000  0.47500000  1
  C  C65  1  0.81540000  0.36300000  0.97500000  1
  C  C66  1  0.56710000  0.51770000  0.38980000  1
  C  C67  1  0.87210000  0.32270000  0.88980000  1
  C  C68  1  0.23780000  0.11180000  0.31920000  1
  C  C69  1  0.20740000  0.58140000  0.81920000  1
  C  C70  1  0.36250000  0.40790000  0.49300000  1
  C  C71  1  0.08510000  0.63050000  0.99300000  1
  C  C72  1  0.61400000  0.11640000  0.97200000  1
  C  C73  1  0.85560000  0.85800000  0.47200000  1
  C  C74  1  0.67120000  0.08650000  0.88670000  1
  C  C75  1  0.80020000  0.71550000  0.38670000  1
  C  C76  1  0.50630000  0.16990000  0.14880000  1
  C  C77  1  0.97890000  0.14250000  0.64880000  1
  C  C78  1  0.45150000  0.19570000  0.23460000  1
  C  C79  1  0.03890000  0.28310000  0.73460000  1
  C  C80  1  0.54850000  0.80430000  0.76540000  1
  C  C81  1  0.96110000  0.71690000  0.26540000  1
  C  C82  1  0.49370000  0.83010000  0.85120000  1
  C  C83  1  0.02110000  0.85750000  0.35120000  1
  C  C84  1  0.32880000  0.91350000  0.11330000  1
  C  C85  1  0.19980000  0.28450000  0.61330000  1
  C  C86  1  0.38600000  0.88360000  0.02800000  1
  C  C87  1  0.14440000  0.14200000  0.52800000  1
  C  C88  1  0.63750000  0.59210000  0.50700000  1
  C  C89  1  0.91490000  0.36950000  0.00700000  1
  C  C90  1  0.76220000  0.88820000  0.68080000  1
  C  C91  1  0.79260000  0.41860000  0.18080000  1
  C  C92  1  0.43290000  0.48230000  0.61020000  1
  C  C93  1  0.12790000  0.67730000  0.11020000  1
  C  C94  1  0.38800000  0.34040000  0.52500000  1
  C  C95  1  0.18460000  0.63700000  0.02500000  1
  C  C96  1  0.57250000  0.82390000  0.82440000  1
  C  C97  1  0.00050000  0.75190000  0.32440000  1
  C  C98  1  0.29660000  0.57000000  0.85000000  1
  C  C99  1  0.28000000  0.05340000  0.35000000  1
  C  C100  1  0.34300000  0.52650000  0.76210000  1
  C  C101  1  0.23560000  0.91910000  0.26210000  1
  C  C102  1  0.51580000  0.84930000  0.91490000  1
  C  C103  1  0.06560000  0.89910000  0.41490000  1
  C  C104  1  0.46650000  0.87390000  0.99800000  1
  C  C105  1  0.12410000  0.03150000  0.49800000  1
  C  C106  1  0.40520000  0.90010000  0.08670000  1
  C  C107  1  0.18660000  0.18150000  0.58670000  1
  C  C108  1  0.71400000  0.12230000  0.00290000  1
  C  C109  1  0.88060000  0.78890000  0.50290000  1
  C  C110  1  0.60220000  0.18020000  0.18200000  1
  C  C111  1  0.00180000  0.07980000  0.68200000  1
  C  C112  1  0.80130000  0.92980000  0.74030000  1
  C  C113  1  0.81050000  0.43900000  0.24030000  1
  C  C114  1  0.62510000  0.49010000  0.47760000  1
  C  C115  1  0.98750000  0.35250000  0.97760000  1
  C  C116  1  0.42500000  0.37980000  0.58380000  1
  C  C117  1  0.20400000  0.65880000  0.08380000  1
  C  C118  1  0.37090000  0.22950000  0.49560000  1
  C  C119  1  0.26610000  0.62470000  0.99560000  1
  C  C120  1  0.32310000  0.09710000  0.41520000  1
  C  C121  1  0.31810000  0.59210000  0.91520000  1
  C  C122  1  0.36590000  0.54410000  0.82080000  1
  C  C123  1  0.27670000  0.95490000  0.32080000  1
  C  C124  1  0.78400000  0.10670000  0.97250000  1
  C  C125  1  0.86580000  0.68850000  0.47250000  1
  C  C126  1  0.61700000  0.20320000  0.24180000  1
  C  C127  1  0.03860000  0.12480000  0.74180000  1
  C  C128  1  0.63280000  0.87910000  0.00070000  1
  C  C129  1  0.12160000  0.86790000  0.50070000  1
  C  C130  1  0.43060000  0.62720000  0.00140000  1
  C  C131  1  0.37420000  0.07080000  0.50140000  1
  C  C132  1  0.73980000  0.89210000  0.03290000  1
  C  C133  1  0.14080000  0.79310000  0.53290000  1
  C  C134  1  0.55770000  0.04850000  0.37700000  1
  C  C135  1  0.32850000  0.31930000  0.87700000  1
  C  C136  1  0.59850000  0.17350000  0.46200000  1
  C  C137  1  0.28850000  0.36350000  0.96200000  1
  C  C138  1  0.83910000  0.37150000  0.46600000  1
  C  C139  1  0.09450000  0.12690000  0.96600000  1
  C  C140  1  0.53950000  0.64030000  0.03560000  1
  C  C141  1  0.39530000  0.99610000  0.53560000  1
  C  C142  1  0.77670000  0.93330000  0.09180000  1
  C  C143  1  0.15850000  0.81510000  0.59180000  1
  C  C144  1  0.82350000  0.25940000  0.38090000  1
  C  C145  1  0.12150000  0.05740000  0.88090000  1
  C  C146  1  0.80930000  0.86250000  0.00340000  1
  C  C147  1  0.14090000  0.69410000  0.50340000  1
  C  C148  1  0.61080000  0.62390000  0.00610000  1
  C  C149  1  0.38220000  0.89530000  0.50610000  1
  C  C150  1  0.57030000  0.66800000  0.09550000  1
  C  C151  1  0.42750000  0.02520000  0.59550000  1
  H  H152  1  0.47680000  0.32230000  0.88330000  1
  H  H153  1  0.56100000  0.90650000  0.38330000  1
  H  H154  1  0.40730000  0.39500000  0.03410000  1
  H  H155  1  0.63910000  0.12680000  0.53410000  1
  H  H156  1  0.21110000  0.16400000  0.03670000  1
  H  H157  1  0.87270000  0.32560000  0.53670000  1
  H  H158  1  0.18680000  0.75560000  0.65900000  1
  H  H159  1  0.90340000  0.97220000  0.15900000  1
  H  H160  1  0.26590000  0.04520000  0.88670000  1
  H  H161  1  0.84150000  0.12080000  0.38670000  1
  H  H162  1  0.16120000  0.56350000  0.51370000  1
  H  H163  1  0.95020000  0.85250000  0.01370000  1
  H  H164  1  0.39200000  0.75800000  0.51780000  1
  H  H165  1  0.75980000  0.62580000  0.01780000  1
  H  H166  1  0.46000000  0.97090000  0.66330000  1
  H  H167  1  0.69240000  0.70330000  0.16330000  1
  H  H168  1  0.31690000  0.78740000  0.73530000  1
  H  H169  1  0.94790000  0.91840000  0.23530000  1
  H  H170  1  0.15150000  0.89300000  0.00710000  1
  H  H171  1  0.11410000  0.35560000  0.50710000  1
  H  H172  1  0.57200000  0.46110000  0.15890000  1
  H  H173  1  0.69780000  0.08690000  0.65890000  1
  H  H174  1  0.55520000  0.66190000  0.39390000  1
  H  H175  1  0.73200000  0.33870000  0.89390000  1
  H  H176  1  0.17360000  0.11120000  0.23860000  1
  H  H177  1  0.12740000  0.56500000  0.73860000  1
  H  H178  1  0.35910000  0.55460000  0.50110000  1
  H  H179  1  0.94650000  0.64200000  0.00110000  1
  H  H180  1  0.53050000  0.09790000  0.89140000  1
  H  H181  1  0.79350000  0.86090000  0.39140000  1
  H  H182  1  0.36070000  0.16720000  0.15410000  1
  H  H183  1  0.98690000  0.29340000  0.65410000  1
  H  H184  1  0.34430000  0.82790000  0.83460000  1
  H  H185  1  0.00670000  0.99030000  0.33460000  1
  H  H186  1  0.26790000  0.86370000  0.95700000  1
  H  H187  1  0.09330000  0.18910000  0.45700000  1
  H  H188  1  0.61020000  0.49250000  0.25690000  1
  H  H189  1  0.76440000  0.14670000  0.75690000  1
  H  H190  1  0.23540000  0.17710000  0.33770000  1
  H  H191  1  0.16060000  0.60230000  0.83770000  1
  H  H192  1  0.54390000  0.49300000  0.34970000  1
  H  H193  1  0.85670000  0.30580000  0.84970000  1
  H  H194  1  0.33780000  0.38440000  0.45280000  1
  H  H195  1  0.06840000  0.61500000  0.95280000  1
  H  H196  1  0.65610000  0.07340000  0.84670000  1
  H  H197  1  0.77330000  0.69060000  0.34670000  1
  H  H198  1  0.39820000  0.19720000  0.25220000  1
  H  H199  1  0.05500000  0.35400000  0.75220000  1
  H  H200  1  0.60180000  0.80280000  0.74780000  1
  H  H201  1  0.94500000  0.64600000  0.24780000  1
  H  H202  1  0.34390000  0.92660000  0.15330000  1
  H  H203  1  0.22670000  0.30940000  0.65330000  1
  H  H204  1  0.66220000  0.61560000  0.54720000  1
  H  H205  1  0.93160000  0.38500000  0.04720000  1
  H  H206  1  0.45610000  0.50700000  0.65030000  1
  H  H207  1  0.14330000  0.69420000  0.15030000  1
  H  H208  1  0.76460000  0.82290000  0.66230000  1
  H  H209  1  0.83940000  0.39770000  0.16230000  1
  H  H210  1  0.38980000  0.50750000  0.74310000  1
  H  H211  1  0.23560000  0.85330000  0.24310000  1
  H  H212  1  0.73210000  0.13630000  0.04300000  1
  H  H213  1  0.90670000  0.81090000  0.54300000  1
  H  H214  1  0.65570000  0.17210000  0.16540000  1
  H  H215  1  0.99330000  0.00970000  0.66540000  1
  H  H216  1  0.63930000  0.83280000  0.84590000  1
  H  H217  1  0.01310000  0.70660000  0.34590000  1
  H  H218  1  0.46950000  0.90210000  0.10860000  1
  H  H219  1  0.20650000  0.13910000  0.60860000  1
  H  H220  1  0.64090000  0.44540000  0.49890000  1
  H  H221  1  0.05350000  0.35800000  0.99890000  1
  H  H222  1  0.82640000  0.88880000  0.76140000  1
  H  H223  1  0.87260000  0.43500000  0.26140000  1
  H  H224  1  0.44480000  0.33810000  0.60610000  1
  H  H225  1  0.26800000  0.66130000  0.10610000  1
  H  H226  1  0.42800000  0.53890000  0.84110000  1
  H  H227  1  0.30220000  0.91310000  0.34110000  1
  H  H228  1  0.84850000  0.10700000  0.99290000  1
  H  H229  1  0.88590000  0.64440000  0.49290000  1
  H  H230  1  0.68310000  0.21260000  0.26470000  1
  H  H231  1  0.05210000  0.08160000  0.76470000  1
  H  H232  1  0.54000000  0.02910000  0.33670000  1
  H  H233  1  0.30760000  0.29670000  0.83670000  1
  H  H234  1  0.60800000  0.24200000  0.48220000  1
  H  H235  1  0.24020000  0.37420000  0.98220000  1
  H  H236  1  0.83880000  0.43650000  0.48630000  1
  H  H237  1  0.04980000  0.14750000  0.98630000  1
  H  H238  1  0.73410000  0.95480000  0.11330000  1
  H  H239  1  0.15850000  0.87920000  0.61330000  1
  H  H240  1  0.81320000  0.24440000  0.34100000  1
  H  H241  1  0.09660000  0.02780000  0.84100000  1
  H  H242  1  0.78890000  0.83600000  0.96330000  1
  H  H243  1  0.12730000  0.67440000  0.46330000  1
  H  H244  1  0.59270000  0.60500000  0.96590000  1
  H  H245  1  0.36090000  0.87320000  0.46590000  1
  H  H246  1  0.52320000  0.67770000  0.11670000  1
  H  H247  1  0.43900000  0.09350000  0.61670000  1
  N  N248  1  0.17990000  0.64930000  0.59060000  1
  N  N249  1  0.94130000  0.91070000  0.09060000  1
  N  N250  1  0.43260000  0.85320000  0.59520000  1
  N  N251  1  0.74200000  0.66260000  0.09520000  1
  N  N252  1  0.58460000  0.39610000  0.05610000  1
  N  N253  1  0.66000000  0.97150000  0.55610000  1
  N  N254  1  0.61140000  0.83210000  0.47050000  1
  N  N255  1  0.63840000  0.35910000  0.97050000  1
  N  N256  1  0.43810000  0.11260000  0.96970000  1
  N  N257  1  0.85710000  0.03160000  0.46970000  1
  N  N258  1  0.38680000  0.13880000  0.05660000  1
  N  N259  1  0.91780000  0.16980000  0.55660000  1
  N  N260  1  0.45470000  0.78750000  0.73200000  1
  N  N261  1  0.94450000  0.77730000  0.23200000  1
  N  N262  1  0.23440000  0.90880000  0.08420000  1
  N  N263  1  0.17540000  0.34980000  0.58420000  1
  N  N264  1  0.66170000  0.80280000  0.56250000  1
  N  N265  1  0.75970000  0.40080000  0.06250000  1
  N  N266  1  0.40840000  0.54670000  0.57990000  1
  N  N267  1  0.03320000  0.67150000  0.07990000  1
  N  N268  1  0.25510000  0.53580000  0.73050000  1
  N  N269  1  0.19470000  0.97540000  0.23050000  1
  N  N270  1  0.55950000  0.14590000  0.06000000  1
  N  N271  1  0.91410000  0.00050000  0.56000000  1
  N  N272  1  0.44050000  0.85410000  0.94000000  1
  N  N273  1  0.08590000  0.99950000  0.44000000  1
  N  N274  1  0.74490000  0.46420000  0.26950000  1
  N  N275  1  0.80530000  0.02460000  0.76950000  1
  N  N276  1  0.59160000  0.45330000  0.42010000  1
  N  N277  1  0.96680000  0.32850000  0.92010000  1
  N  N278  1  0.33830000  0.19720000  0.43750000  1
  N  N279  1  0.24030000  0.59920000  0.93750000  1
  N  N280  1  0.76560000  0.09120000  0.91580000  1
  N  N281  1  0.82460000  0.65020000  0.41580000  1
  N  N282  1  0.54530000  0.21250000  0.26800000  1
  N  N283  1  0.05550000  0.22270000  0.76800000  1
  N  N284  1  0.61320000  0.86120000  0.94340000  1
  N  N285  1  0.08220000  0.83020000  0.44340000  1
  N  N286  1  0.56190000  0.88740000  0.03030000  1
  N  N287  1  0.14290000  0.96840000  0.53030000  1
  N  N288  1  0.38860000  0.16790000  0.52950000  1
  N  N289  1  0.36160000  0.64090000  0.02950000  1
  N  N290  1  0.41540000  0.60390000  0.94390000  1
  N  N291  1  0.34000000  0.02850000  0.44390000  1
  N  N292  1  0.56740000  0.14680000  0.40480000  1
  N  N293  1  0.25800000  0.33740000  0.90480000  1
  N  N294  1  0.82010000  0.35070000  0.40940000  1
  N  N295  1  0.05870000  0.08930000  0.90940000  1
