# generated using pymatgen
data_CdH8C12(NO2)2
_symmetry_space_group_name_H-M   'P 1'
_cell_length_a   6.03920000
_cell_length_b   12.31950000
_cell_length_c   25.36600000
_cell_angle_alpha   90.00000000
_cell_angle_beta   90.00000000
_cell_angle_gamma   90.00000000
_symmetry_Int_Tables_number   1
_chemical_formula_structural   CdH8C12(NO2)2
_chemical_formula_sum   'Cd4 H32 C48 N8 O16'
_cell_volume   1887.22848233
_cell_formula_units_Z   4
loop_
 _symmetry_equiv_pos_site_id
 _symmetry_equiv_pos_as_xyz
  1  'x, y, z'
loop_
 _atom_site_type_symbol
 _atom_site_label
 _atom_site_symmetry_multiplicity
 _atom_site_fract_x
 _atom_site_fract_y
 _atom_site_fract_z
 _atom_site_occupancy
  Cd  Cd0  1  0.19971000  0.36492000  0.12863000  1
  Cd  Cd1  1  0.69971000  0.86492000  0.37137000  1
  Cd  Cd2  1  0.30029000  0.36492000  0.62863000  1
  Cd  Cd3  1  0.80029000  0.86492000  0.87137000  1
  H  H4  1  0.66960000  0.13710000  0.02590000  1
  H  H5  1  0.41700000  0.51820000  0.03960000  1
  H  H6  1  0.74750000  0.68560000  0.04320000  1
  H  H7  1  0.85390000  0.56560000  0.10800000  1
  H  H8  1  0.56780000  0.17630000  0.13790000  1
  H  H9  1  0.69920000  0.04430000  0.19230000  1
  H  H10  1  0.03560000  0.20540000  0.22000000  1
  H  H11  1  0.65160000  0.57480000  0.22180000  1
  H  H12  1  0.15160000  0.07480000  0.27820000  1
  H  H13  1  0.53560000  0.70540000  0.28000000  1
  H  H14  1  0.19920000  0.54430000  0.30770000  1
  H  H15  1  0.06780000  0.67630000  0.36210000  1
  H  H16  1  0.35390000  0.06560000  0.39200000  1
  H  H17  1  0.24750000  0.18560000  0.45680000  1
  H  H18  1  0.91700000  0.01820000  0.46040000  1
  H  H19  1  0.16960000  0.63710000  0.47410000  1
  H  H20  1  0.83040000  0.13710000  0.52590000  1
  H  H21  1  0.08300000  0.51820000  0.53960000  1
  H  H22  1  0.75250000  0.68560000  0.54320000  1
  H  H23  1  0.64610000  0.56560000  0.60800000  1
  H  H24  1  0.93220000  0.17630000  0.63790000  1
  H  H25  1  0.80080000  0.04430000  0.69230000  1
  H  H26  1  0.46440000  0.20540000  0.72000000  1
  H  H27  1  0.84840000  0.57480000  0.72180000  1
  H  H28  1  0.34840000  0.07480000  0.77820000  1
  H  H29  1  0.96440000  0.70540000  0.78000000  1
  H  H30  1  0.30080000  0.54430000  0.80770000  1
  H  H31  1  0.43220000  0.67630000  0.86210000  1
  H  H32  1  0.14610000  0.06560000  0.89200000  1
  H  H33  1  0.25250000  0.18560000  0.95680000  1
  H  H34  1  0.58300000  0.01820000  0.96040000  1
  H  H35  1  0.33040000  0.63710000  0.97410000  1
  C  C36  1  0.22710000  0.62210000  0.00030000  1
  C  C37  1  0.97620000  0.17220000  0.00060000  1
  C  C38  1  0.27750000  0.55020000  0.03970000  1
  C  C39  1  0.88400000  0.65100000  0.04100000  1
  C  C40  1  0.04830000  0.24420000  0.04470000  1
  C  C41  1  0.94890000  0.57730000  0.07970000  1
  C  C42  1  0.48300000  0.15620000  0.16690000  1
  C  C43  1  0.56390000  0.07710000  0.19970000  1
  C  C44  1  0.17340000  0.17350000  0.21470000  1
  C  C45  1  0.04110000  0.46910000  0.21730000  1
  C  C46  1  0.44630000  0.04660000  0.24280000  1
  C  C47  1  0.74160000  0.59480000  0.24990000  1
  C  C48  1  0.24160000  0.09480000  0.25010000  1
  C  C49  1  0.94630000  0.54660000  0.25720000  1
  C  C50  1  0.54110000  0.96910000  0.28270000  1
  C  C51  1  0.67340000  0.67350000  0.28530000  1
  C  C52  1  0.06390000  0.57710000  0.30030000  1
  C  C53  1  0.98300000  0.65620000  0.33310000  1
  C  C54  1  0.44890000  0.07730000  0.42030000  1
  C  C55  1  0.54830000  0.74420000  0.45530000  1
  C  C56  1  0.38400000  0.15100000  0.45900000  1
  C  C57  1  0.77750000  0.05020000  0.46030000  1
  C  C58  1  0.47620000  0.67220000  0.49940000  1
  C  C59  1  0.72710000  0.12210000  0.49970000  1
  C  C60  1  0.27290000  0.62210000  0.50030000  1
  C  C61  1  0.52380000  0.17220000  0.50060000  1
  C  C62  1  0.22250000  0.55020000  0.53970000  1
  C  C63  1  0.61600000  0.65100000  0.54100000  1
  C  C64  1  0.45170000  0.24420000  0.54470000  1
  C  C65  1  0.55110000  0.57730000  0.57970000  1
  C  C66  1  0.01700000  0.15620000  0.66690000  1
  C  C67  1  0.93610000  0.07710000  0.69970000  1
  C  C68  1  0.32660000  0.17350000  0.71470000  1
  C  C69  1  0.45890000  0.46910000  0.71730000  1
  C  C70  1  0.05370000  0.04660000  0.74280000  1
  C  C71  1  0.75840000  0.59480000  0.74990000  1
  C  C72  1  0.25840000  0.09480000  0.75010000  1
  C  C73  1  0.55370000  0.54660000  0.75720000  1
  C  C74  1  0.95890000  0.96910000  0.78270000  1
  C  C75  1  0.82660000  0.67350000  0.78530000  1
  C  C76  1  0.43610000  0.57710000  0.80030000  1
  C  C77  1  0.51700000  0.65620000  0.83310000  1
  C  C78  1  0.05110000  0.07730000  0.92030000  1
  C  C79  1  0.95170000  0.74420000  0.95530000  1
  C  C80  1  0.11600000  0.15100000  0.95900000  1
  C  C81  1  0.72250000  0.05020000  0.96030000  1
  C  C82  1  0.02380000  0.67220000  0.99940000  1
  C  C83  1  0.77290000  0.12210000  0.99970000  1
  N  N84  1  0.13600000  0.52340000  0.07855000  1
  N  N85  1  0.28960000  0.20570000  0.17440000  1
  N  N86  1  0.78960000  0.70570000  0.32560000  1
  N  N87  1  0.63600000  0.02340000  0.42145000  1
  N  N88  1  0.36400000  0.52340000  0.57855000  1
  N  N89  1  0.21040000  0.20570000  0.67440000  1
  N  N90  1  0.71040000  0.70570000  0.82560000  1
  N  N91  1  0.86400000  0.02340000  0.92145000  1
  O  O92  1  0.24510000  0.27070000  0.04797000  1
  O  O93  1  0.90680000  0.27130000  0.07914000  1
  O  O94  1  0.91200000  0.41870000  0.18659000  1
  O  O95  1  0.24570000  0.46380000  0.21284000  1
  O  O96  1  0.74570000  0.96380000  0.28716000  1
  O  O97  1  0.41200000  0.91870000  0.31341000  1
  O  O98  1  0.40680000  0.77130000  0.42086000  1
  O  O99  1  0.74510000  0.77070000  0.45203000  1
  O  O100  1  0.25490000  0.27070000  0.54797000  1
  O  O101  1  0.59320000  0.27130000  0.57914000  1
  O  O102  1  0.58800000  0.41870000  0.68659000  1
  O  O103  1  0.25430000  0.46380000  0.71284000  1
  O  O104  1  0.75430000  0.96380000  0.78716000  1
  O  O105  1  0.08800000  0.91870000  0.81341000  1
  O  O106  1  0.09320000  0.77130000  0.92086000  1
  O  O107  1  0.75490000  0.77070000  0.95203000  1
