# generated using pymatgen
data_Ni3H29C35NO13
_symmetry_space_group_name_H-M   'P 1'
_cell_length_a   11.08980000
_cell_length_b   17.65169278
_cell_length_c   17.65169278
_cell_angle_alpha   93.12186347
_cell_angle_beta   106.84347984
_cell_angle_gamma   106.84347984
_symmetry_Int_Tables_number   1
_chemical_formula_structural   Ni3H29C35NO13
_chemical_formula_sum   'Ni6 H58 C70 N2 O26'
_cell_volume   3128.92618830
_cell_formula_units_Z   2
loop_
 _symmetry_equiv_pos_site_id
 _symmetry_equiv_pos_as_xyz
  1  'x, y, z'
loop_
 _atom_site_type_symbol
 _atom_site_label
 _atom_site_symmetry_multiplicity
 _atom_site_fract_x
 _atom_site_fract_y
 _atom_site_fract_z
 _atom_site_occupancy
  C  C0  1  0.83500000  0.18560000  0.77220000  1
  C  C1  1  0.94890000  0.26460000  0.68920000  1
  C  C2  1  0.45020000  0.30090000  0.64890000  1
  C  C3  1  0.34110000  0.38530000  0.55910000  1
  C  C4  1  0.26860000  0.41120000  0.49240000  1
  C  C5  1  0.38270000  0.32320000  0.56820000  1
  C  C6  1  0.87410000  0.18600000  0.70060000  1
  C  C7  1  0.76430000  0.10170000  0.77790000  1
  C  C8  1  0.89440000  0.27800000  0.60120000  1
  C  C9  1  0.38950000  0.21450000  0.65930000  1
  C  C10  1  0.46840000  0.17200000  0.68620000  1
  C  C11  1  0.96840000  0.30350000  0.54770000  1
  C  C12  1  0.48410000  0.50920000  0.33940000  1
  C  C13  1  0.25610000  0.18120000  0.64420000  1
  C  C14  1  0.74820000  0.25730000  0.56550000  1
  C  C15  1  0.53600000  0.53400000  0.27020000  1
  C  C16  1  0.91790000  0.30960000  0.47380000  1
  C  C17  1  0.41260000  0.08650000  0.69190000  1
  C  C18  1  0.23930000  0.35860000  0.41740000  1
  C  C19  1  0.83500000  0.11700000  0.65320000  1
  C  C20  1  0.73130000  0.03920000  0.73080000  1
  C  C21  1  0.69910000  0.27220000  0.48940000  1
  C  C22  1  0.48310000  0.42430000  0.33250000  1
  C  C23  1  0.35080000  0.26300000  0.49220000  1
  C  C24  1  0.19640000  0.09890000  0.64650000  1
  C  C25  1  0.27320000  0.05980000  0.67100000  1
  C  C26  1  0.77870000  0.29410000  0.43490000  1
  C  C27  1  0.65020000  0.96340000  0.76520000  1
  C  C28  1  0.77100000  0.04680000  0.66420000  1
  C  C29  1  0.15980000  0.36690000  0.34090000  1
  C  C30  1  0.27600000  0.28740000  0.41600000  1
  C  C31  1  0.49430000  0.45720000  0.21000000  1
  C  C32  1  0.21550000  0.97500000  0.67800000  1
  C  C33  1  0.72320000  0.30070000  0.34850000  1
  C  C34  1  0.61110000  0.45080000  0.18400000  1
  C  C35  1  0.38890000  0.81600000  0.54920000  1
  C  C36  1  0.27680000  0.65150000  0.69930000  1
  C  C37  1  0.78450000  0.32200000  0.02500000  1
  C  C38  1  0.50570000  0.79000000  0.54280000  1
  C  C39  1  0.72400000  0.58400000  0.71260000  1
  C  C40  1  0.84020000  0.65910000  0.63310000  1
  C  C41  1  0.22900000  0.33580000  0.95320000  1
  C  C42  1  0.34980000  0.23480000  0.03660000  1
  C  C43  1  0.22130000  0.56510000  0.70590000  1
  C  C44  1  0.72680000  0.32900000  0.94020000  1
  C  C45  1  0.80360000  0.35350000  0.90110000  1
  C  C46  1  0.64920000  0.50780000  0.73700000  1
  C  C47  1  0.51690000  0.66750000  0.57570000  1
  C  C48  1  0.30090000  0.51060000  0.72780000  1
  C  C49  1  0.26870000  0.26920000  0.96080000  1
  C  C50  1  0.16500000  0.34680000  0.88300000  1
  C  C51  1  0.76070000  0.58260000  0.64140000  1
  C  C52  1  0.58740000  0.30810000  0.91350000  1
  C  C53  1  0.08210000  0.52620000  0.69040000  1
  C  C54  1  0.46400000  0.72980000  0.46600000  1
  C  C55  1  0.25180000  0.43450000  0.74270000  1
  C  C56  1  0.74390000  0.35580000  0.81880000  1
  C  C57  1  0.51590000  0.66060000  0.49080000  1
  C  C58  1  0.03160000  0.45230000  0.69650000  1
  C  C59  1  0.53160000  0.31380000  0.82800000  1
  C  C60  1  0.61050000  0.34070000  0.78550000  1
  C  C61  1  0.10560000  0.39880000  0.72200000  1
  C  C62  1  0.23570000  0.22210000  0.89830000  1
  C  C63  1  0.12590000  0.29940000  0.81400000  1
  C  C64  1  0.61730000  0.43180000  0.67680000  1
  C  C65  1  0.73140000  0.50760000  0.58880000  1
  C  C66  1  0.65890000  0.44090000  0.61470000  1
  C  C67  1  0.54980000  0.35110000  0.69910000  1
  C  C68  1  0.05110000  0.31080000  0.73540000  1
  C  C69  1  0.16500000  0.22780000  0.81440000  1
  H  H70  1  0.63530000  0.39330000  0.58050000  1
  H  H71  1  0.14840000  0.19140000  0.76960000  1
  H  H72  1  0.24190000  0.45640000  0.49540000  1
  H  H73  1  0.54390000  0.54020000  0.39040000  1
  H  H74  1  0.74100000  0.09510000  0.82430000  1
  H  H75  1  0.56010000  0.19600000  0.70180000  1
  H  H76  1  0.06040000  0.31650000  0.56790000  1
  H  H77  1  0.63200000  0.55760000  0.28940000  1
  H  H78  1  0.20220000  0.21350000  0.63210000  1
  H  H79  1  0.39580000  0.51310000  0.33110000  1
  H  H80  1  0.69160000  0.23470000  0.59410000  1
  H  H81  1  0.49770000  0.57280000  0.24500000  1
  H  H82  1  0.57240000  0.42220000  0.35660000  1
  H  H83  1  0.97520000  0.32510000  0.44390000  1
  H  H84  1  0.46450000  0.05370000  0.70790000  1
  H  H85  1  0.42650000  0.39390000  0.36050000  1
  H  H86  1  0.60970000  0.26820000  0.47060000  1
  H  H87  1  0.85620000  0.11920000  0.60580000  1
  H  H88  1  0.37500000  0.21670000  0.49310000  1
  H  H89  1  0.10450000  0.07540000  0.63060000  1
  H  H90  1  0.47730000  0.89340000  0.79300000  1
  H  H91  1  0.97630000  0.42960000  0.25600000  1
  H  H92  1  0.17160000  0.86520000  0.80280000  1
  H  H93  1  0.42550000  0.81050000  0.82310000  1
  H  H94  1  0.75210000  0.00190000  0.62730000  1
  H  H95  1  0.42570000  0.46130000  0.16230000  1
  H  H96  1  0.25350000  0.25530000  0.36730000  1
  H  H97  1  0.91890000  0.44200000  0.16540000  1
  H  H98  1  0.10130000  0.77120000  0.78220000  1
  H  H99  1  0.89870000  0.21780000  0.22880000  1
  H  H100  1  0.08110000  0.83460000  0.55800000  1
  H  H101  1  0.74650000  0.63270000  0.74470000  1
  H  H102  1  0.57430000  0.83770000  0.53870000  1
  H  H103  1  0.24790000  0.37270000  0.99810000  1
  H  H104  1  0.57450000  0.17690000  0.18950000  1
  H  H105  1  0.82840000  0.19720000  0.13480000  1
  H  H106  1  0.02370000  0.74400000  0.57040000  1
  H  H107  1  0.52270000  0.20700000  0.10660000  1
  H  H108  1  0.89550000  0.36940000  0.92460000  1
  H  H109  1  0.62500000  0.50690000  0.78330000  1
  H  H110  1  0.14380000  0.39420000  0.88080000  1
  H  H111  1  0.39030000  0.52940000  0.73180000  1
  H  H112  1  0.57350000  0.63950000  0.60610000  1
  H  H113  1  0.53550000  0.29210000  0.94630000  1
  H  H114  1  0.02480000  0.55610000  0.67490000  1
  H  H115  1  0.42760000  0.64340000  0.57780000  1
  H  H116  1  0.50230000  0.75500000  0.42720000  1
  H  H117  1  0.30840000  0.40590000  0.76530000  1
  H  H118  1  0.60420000  0.66890000  0.48690000  1
  H  H119  1  0.79780000  0.36790000  0.78650000  1
  H  H120  1  0.36800000  0.71060000  0.44240000  1
  H  H121  1  0.93960000  0.43210000  0.68350000  1
  H  H122  1  0.43990000  0.29820000  0.80400000  1
  H  H123  1  0.25900000  0.17570000  0.90490000  1
  H  H124  1  0.45610000  0.60960000  0.45980000  1
  H  H125  1  0.75810000  0.50460000  0.54360000  1
  H  H126  1  0.85160000  0.23040000  0.80860000  1
  H  H127  1  0.36470000  0.41950000  0.60670000  1
  N  N128  1  0.43220000  0.38880000  0.24600000  1
  N  N129  1  0.56780000  0.75400000  0.61120000  1
  Ni  Ni130  1  0.97985000  0.83550000  0.67662000  1
  Ni  Ni131  1  0.48234000  0.29407000  0.21751000  1
  Ni  Ni132  1  0.25020000  0.81184000  0.69000000  1
  Ni  Ni133  1  0.74980000  0.31000000  0.18816000  1
  Ni  Ni134  1  0.51766000  0.78249000  0.70593000  1
  Ni  Ni135  1  0.02015000  0.32338000  0.16450000  1
  O  O136  1  0.62380000  0.97030000  0.82130000  1
  O  O137  1  0.09630000  0.41860000  0.33860000  1
  O  O138  1  0.67130000  0.49610000  0.15890000  1
  O  O139  1  0.79830000  0.32130000  0.31390000  1
  O  O140  1  0.15160000  0.34420000  0.28520000  1
  O  O141  1  0.08910000  0.95090000  0.67210000  1
  O  O142  1  0.59740000  0.29430000  0.32390000  1
  O  O143  1  0.43160000  0.83640000  0.77660000  1
  O  O144  1  0.93050000  0.40300000  0.20120000  1
  O  O145  1  0.28630000  0.92350000  0.67810000  1
  O  O146  1  0.63570000  0.89370000  0.69510000  1
  O  O147  1  0.12880000  0.81990000  0.76010000  1
  O  O148  1  0.63890000  0.38470000  0.18430000  1
  O  O149  1  0.36110000  0.81570000  0.61530000  1
  O  O150  1  0.87120000  0.23990000  0.18010000  1
  O  O151  1  0.36430000  0.30490000  0.10630000  1
  O  O152  1  0.71370000  0.32190000  0.07650000  1
  O  O153  1  0.06950000  0.79880000  0.59700000  1
  O  O154  1  0.56840000  0.22340000  0.16360000  1
  O  O155  1  0.40260000  0.67610000  0.70570000  1
  O  O156  1  0.91090000  0.32790000  0.04910000  1
  O  O157  1  0.84840000  0.71480000  0.65580000  1
  O  O158  1  0.20170000  0.68610000  0.67870000  1
  O  O159  1  0.32870000  0.84110000  0.50390000  1
  O  O160  1  0.90370000  0.66140000  0.58140000  1
  O  O161  1  0.37620000  0.17870000  0.02970000  1
