# generated using pymatgen
data_MgH4(C2O)4
_symmetry_space_group_name_H-M   'P 1'
_cell_length_a   8.97780000
_cell_length_b   9.87300000
_cell_length_c   17.25300000
_cell_angle_alpha   90.00000000
_cell_angle_beta   90.00000000
_cell_angle_gamma   92.61800000
_symmetry_Int_Tables_number   1
_chemical_formula_structural   MgH4(C2O)4
_chemical_formula_sum   'Mg6 H24 C48 O24'
_cell_volume   1527.67215382
_cell_formula_units_Z   6
loop_
 _symmetry_equiv_pos_site_id
 _symmetry_equiv_pos_as_xyz
  1  'x, y, z'
loop_
 _atom_site_type_symbol
 _atom_site_label
 _atom_site_symmetry_multiplicity
 _atom_site_fract_x
 _atom_site_fract_y
 _atom_site_fract_z
 _atom_site_occupancy
  Mg  Mg0  1  0.00000000  0.50000000  0.00000000  1
  Mg  Mg1  1  0.12229000  0.89732000  0.52010000  1
  Mg  Mg2  1  0.37771000  0.60268000  0.02010000  1
  Mg  Mg3  1  0.50000000  0.00000000  0.50000000  1
  Mg  Mg4  1  0.62229000  0.39732000  0.97990000  1
  Mg  Mg5  1  0.87771000  0.10268000  0.47990000  1
  H  H6  1  0.00970000  0.83560000  0.67460000  1
  H  H7  1  0.01650000  0.70750000  0.78830000  1
  H  H8  1  0.03820000  0.19800000  0.07320000  1
  H  H9  1  0.08260000  0.20060000  0.86090000  1
  H  H10  1  0.08970000  0.07240000  0.74740000  1
  H  H11  1  0.19200000  0.01610000  0.09190000  1
  H  H12  1  0.30800000  0.48390000  0.59190000  1
  H  H13  1  0.41030000  0.42760000  0.24740000  1
  H  H14  1  0.41740000  0.29940000  0.36090000  1
  H  H15  1  0.46180000  0.30200000  0.57320000  1
  H  H16  1  0.48350000  0.79250000  0.28830000  1
  H  H17  1  0.49030000  0.66440000  0.17460000  1
  H  H18  1  0.50970000  0.33560000  0.82540000  1
  H  H19  1  0.51650000  0.20750000  0.71170000  1
  H  H20  1  0.53820000  0.69800000  0.42680000  1
  H  H21  1  0.58260000  0.70060000  0.63910000  1
  H  H22  1  0.58970000  0.57240000  0.75260000  1
  H  H23  1  0.69200000  0.51610000  0.40810000  1
  H  H24  1  0.80800000  0.98390000  0.90810000  1
  H  H25  1  0.91030000  0.92760000  0.25260000  1
  H  H26  1  0.91740000  0.79940000  0.13910000  1
  H  H27  1  0.96180000  0.80200000  0.92680000  1
  H  H28  1  0.98350000  0.29250000  0.21170000  1
  H  H29  1  0.99030000  0.16440000  0.32540000  1
  C  C30  1  0.02290000  0.11760000  0.04341000  1
  C  C31  1  0.07214000  0.29360000  0.24179000  1
  C  C32  1  0.07589000  0.21749000  0.30961000  1
  C  C33  1  0.09050000  0.89146000  0.01129000  1
  C  C34  1  0.11400000  0.00959000  0.05469000  1
  C  C35  1  0.17090000  0.20230000  0.83047000  1
  C  C36  1  0.17490000  0.12630000  0.76285000  1
  C  C37  1  0.19172000  0.77658000  0.02228000  1
  C  C38  1  0.19320000  0.44695000  0.14196000  1
  C  C39  1  0.19650000  0.37119000  0.21758000  1
  C  C40  1  0.20448000  0.21910000  0.35407000  1
  C  C41  1  0.21672000  0.13199000  0.42486000  1
  C  C42  1  0.28328000  0.36801000  0.92486000  1
  C  C43  1  0.29552000  0.28090000  0.85407000  1
  C  C44  1  0.30350000  0.12881000  0.71758000  1
  C  C45  1  0.30680000  0.05305000  0.64196000  1
  C  C46  1  0.30828000  0.72342000  0.52228000  1
  C  C47  1  0.32510000  0.37370000  0.26285000  1
  C  C48  1  0.32910000  0.29770000  0.33047000  1
  C  C49  1  0.38600000  0.49041000  0.55469000  1
  C  C50  1  0.40950000  0.60854000  0.51129000  1
  C  C51  1  0.42411000  0.28251000  0.80961000  1
  C  C52  1  0.42786000  0.20640000  0.74179000  1
  C  C53  1  0.47710000  0.38240000  0.54341000  1
  C  C54  1  0.52290000  0.61760000  0.45659000  1
  C  C55  1  0.57214000  0.79360000  0.25821000  1
  C  C56  1  0.57589000  0.71749000  0.19039000  1
  C  C57  1  0.59050000  0.39146000  0.48871000  1
  C  C58  1  0.61400000  0.50959000  0.44531000  1
  C  C59  1  0.67090000  0.70230000  0.66953000  1
  C  C60  1  0.67490000  0.62630000  0.73715000  1
  C  C61  1  0.69172000  0.27658000  0.47772000  1
  C  C62  1  0.69320000  0.94695000  0.35804000  1
  C  C63  1  0.69650000  0.87119000  0.28242000  1
  C  C64  1  0.70448000  0.71910000  0.14593000  1
  C  C65  1  0.71672000  0.63199000  0.07514000  1
  C  C66  1  0.78328000  0.86801000  0.57514000  1
  C  C67  1  0.79552000  0.78090000  0.64593000  1
  C  C68  1  0.80350000  0.62881000  0.78242000  1
  C  C69  1  0.80680000  0.55305000  0.85804000  1
  C  C70  1  0.80828000  0.22342000  0.97772000  1
  C  C71  1  0.82510000  0.87370000  0.23715000  1
  C  C72  1  0.82910000  0.79770000  0.16953000  1
  C  C73  1  0.88600000  0.99041000  0.94531000  1
  C  C74  1  0.90950000  0.10854000  0.98871000  1
  C  C75  1  0.92411000  0.78251000  0.69039000  1
  C  C76  1  0.92786000  0.70640000  0.75821000  1
  C  C77  1  0.97710000  0.88240000  0.95659000  1
  O  O78  1  0.06994000  0.45740000  0.11001000  1
  O  O79  1  0.09835000  0.07149000  0.45221000  1
  O  O80  1  0.15733000  0.38185000  0.95245000  1
  O  O81  1  0.15794000  0.66147000  0.99160000  1
  O  O82  1  0.18219000  0.00744000  0.61564000  1
  O  O83  1  0.18745000  0.70538000  0.55820000  1
  O  O84  1  0.31255000  0.79462000  0.05820000  1
  O  O85  1  0.31781000  0.49256000  0.11564000  1
  O  O86  1  0.34206000  0.83853000  0.49160000  1
  O  O87  1  0.34267000  0.11815000  0.45245000  1
  O  O88  1  0.40165000  0.42851000  0.95221000  1
  O  O89  1  0.43006000  0.04260000  0.61001000  1
  O  O90  1  0.56994000  0.95740000  0.38999000  1
  O  O91  1  0.59835000  0.57149000  0.04779000  1
  O  O92  1  0.65733000  0.88185000  0.54755000  1
  O  O93  1  0.65794000  0.16147000  0.50840000  1
  O  O94  1  0.68219000  0.50744000  0.88436000  1
  O  O95  1  0.68745000  0.20538000  0.94180000  1
  O  O96  1  0.81255000  0.29462000  0.44180000  1
  O  O97  1  0.81781000  0.99256000  0.38436000  1
  O  O98  1  0.84206000  0.33853000  0.00840000  1
  O  O99  1  0.84267000  0.61815000  0.04755000  1
  O  O100  1  0.90165000  0.92851000  0.54779000  1
  O  O101  1  0.93006000  0.54260000  0.88999000  1
