# generated using pymatgen
data_Sm2H6(C3O4)3
_symmetry_space_group_name_H-M   'P 1'
_cell_length_a   10.54773857
_cell_length_b   10.54773857
_cell_length_c   10.90722948
_cell_angle_alpha   101.24339628
_cell_angle_beta   117.44063787
_cell_angle_gamma   108.77435635
_symmetry_Int_Tables_number   1
_chemical_formula_structural   Sm2H6(C3O4)3
_chemical_formula_sum   'Sm4 H12 C18 O24'
_cell_volume   930.67156798
_cell_formula_units_Z   2
loop_
 _symmetry_equiv_pos_site_id
 _symmetry_equiv_pos_as_xyz
  1  'x, y, z'
loop_
 _atom_site_type_symbol
 _atom_site_label
 _atom_site_symmetry_multiplicity
 _atom_site_fract_x
 _atom_site_fract_y
 _atom_site_fract_z
 _atom_site_occupancy
  C  C0  1  0.62490000  0.87490000  0.75000000  1
  C  C1  1  0.37510000  0.12510000  0.25000000  1
  C  C2  1  0.59910000  0.87470000  0.87580000  1
  C  C3  1  0.50110000  0.27670000  0.37580000  1
  C  C4  1  0.98880000  0.94730000  0.27930000  1
  C  C5  1  0.83200000  0.29050000  0.77930000  1
  C  C6  1  0.90340000  0.85090000  0.33210000  1
  C  C7  1  0.98120000  0.42870000  0.83210000  1
  C  C8  1  0.95300000  0.07170000  0.25690000  1
  C  C9  1  0.68520000  0.30390000  0.75690000  1
  C  C10  1  0.04700000  0.92830000  0.74310000  1
  C  C11  1  0.31480000  0.69610000  0.24310000  1
  C  C12  1  0.09660000  0.14910000  0.66790000  1
  C  C13  1  0.01880000  0.57130000  0.16790000  1
  C  C14  1  0.01120000  0.05270000  0.72070000  1
  C  C15  1  0.16800000  0.70950000  0.22070000  1
  C  C16  1  0.40090000  0.12530000  0.12420000  1
  C  C17  1  0.49890000  0.72330000  0.62420000  1
  H  H18  1  0.60800000  0.95500000  0.71100000  1
  H  H19  1  0.25600000  0.10300000  0.21100000  1
  H  H20  1  0.96400000  0.88700000  0.18500000  1
  H  H21  1  0.79800000  0.22100000  0.68500000  1
  H  H22  1  0.11900000  0.99300000  0.36400000  1
  H  H23  1  0.87100000  0.24500000  0.86400000  1
  H  H24  1  0.88100000  0.00700000  0.63600000  1
  H  H25  1  0.12900000  0.75500000  0.13600000  1
  H  H26  1  0.03600000  0.11300000  0.81500000  1
  H  H27  1  0.20200000  0.77900000  0.31500000  1
  H  H28  1  0.39200000  0.04500000  0.28900000  1
  H  H29  1  0.74400000  0.89700000  0.78900000  1
  O  O30  1  0.63260000  0.79350000  0.94110000  1
  O  O31  1  0.64760000  0.30850000  0.44110000  1
  O  O32  1  0.98370000  0.81310000  0.42800000  1
  O  O33  1  0.11490000  0.44430000  0.92800000  1
  O  O34  1  0.53920000  0.94990000  0.90830000  1
  O  O35  1  0.45840000  0.36910000  0.40830000  1
  O  O36  1  0.75420000  0.80930000  0.27450000  1
  O  O37  1  0.96520000  0.52030000  0.77450000  1
  O  O38  1  0.06810000  0.18400000  0.28490000  1
  O  O39  1  0.60090000  0.21680000  0.78490000  1
  O  O40  1  0.81410000  0.05770000  0.20840000  1
  O  O41  1  0.65070000  0.39430000  0.70840000  1
  O  O42  1  0.18590000  0.94230000  0.79160000  1
  O  O43  1  0.34930000  0.60570000  0.29160000  1
  O  O44  1  0.93190000  0.81600000  0.71510000  1
  O  O45  1  0.39910000  0.78320000  0.21510000  1
  O  O46  1  0.24580000  0.19070000  0.72550000  1
  O  O47  1  0.03480000  0.47970000  0.22550000  1
  O  O48  1  0.46080000  0.05010000  0.09170000  1
  O  O49  1  0.54160000  0.63090000  0.59170000  1
  O  O50  1  0.01630000  0.18690000  0.57200000  1
  O  O51  1  0.88510000  0.55570000  0.07200000  1
  O  O52  1  0.36740000  0.20650000  0.05890000  1
  O  O53  1  0.35240000  0.69150000  0.55890000  1
  Sm  Sm54  1  0.55150000  0.86489000  0.12023000  1
  Sm  Sm55  1  0.75534000  0.56873000  0.62023000  1
  Sm  Sm56  1  0.44850000  0.13511000  0.87977000  1
  Sm  Sm57  1  0.24466000  0.43127000  0.37977000  1
