# generated using pymatgen
data_AgH8(CN)2
_symmetry_space_group_name_H-M   'P 1'
_cell_length_a   5.97200000
_cell_length_b   13.71113903
_cell_length_c   13.71113903
_cell_angle_alpha   90.55996079
_cell_angle_beta   97.23530263
_cell_angle_gamma   97.23530263
_symmetry_Int_Tables_number   1
_chemical_formula_structural   AgH8(CN)2
_chemical_formula_sum   'Ag8 H64 C16 N16'
_cell_volume   1104.52481027
_cell_formula_units_Z   8
loop_
 _symmetry_equiv_pos_site_id
 _symmetry_equiv_pos_as_xyz
  1  'x, y, z'
loop_
 _atom_site_type_symbol
 _atom_site_label
 _atom_site_symmetry_multiplicity
 _atom_site_fract_x
 _atom_site_fract_y
 _atom_site_fract_z
 _atom_site_occupancy
  Ag  Ag0  1  0.00000000  0.00000000  0.00000000  1
  Ag  Ag1  1  0.50000000  0.00000000  0.00000000  1
  Ag  Ag2  1  0.00000000  0.50000000  0.50000000  1
  Ag  Ag3  1  0.50000000  0.50000000  0.50000000  1
  Ag  Ag4  1  0.50000000  1.00000000  0.50000000  1
  Ag  Ag5  1  1.00000000  1.00000000  0.50000000  1
  Ag  Ag6  1  0.50000000  0.50000000  0.00000000  1
  Ag  Ag7  1  0.00000000  0.50000000  0.00000000  1
  C  C8  1  0.77080000  0.02180000  0.79700000  1
  C  C9  1  0.27080000  0.79700000  0.02180000  1
  C  C10  1  0.29820000  0.30230000  0.50290000  1
  C  C11  1  0.79820000  0.50290000  0.30230000  1
  C  C12  1  0.22460000  0.19430000  0.47930000  1
  C  C13  1  0.72460000  0.47930000  0.19430000  1
  C  C14  1  0.73980000  0.97940000  0.69340000  1
  C  C15  1  0.23980000  0.69340000  0.97940000  1
  C  C16  1  0.26020000  0.02060000  0.30660000  1
  C  C17  1  0.76020000  0.30660000  0.02060000  1
  C  C18  1  0.77540000  0.80570000  0.52070000  1
  C  C19  1  0.27540000  0.52070000  0.80570000  1
  C  C20  1  0.70180000  0.69770000  0.49710000  1
  C  C21  1  0.20180000  0.49710000  0.69770000  1
  C  C22  1  0.22920000  0.97820000  0.20300000  1
  C  C23  1  0.72920000  0.20300000  0.97820000  1
  H  H24  1  0.83370000  0.09060000  0.79900000  1
  H  H25  1  0.33370000  0.79900000  0.09060000  1
  H  H26  1  0.39190000  0.30980000  0.56640000  1
  H  H27  1  0.89190000  0.56640000  0.30980000  1
  H  H28  1  0.16520000  0.33520000  0.50700000  1
  H  H29  1  0.66520000  0.50700000  0.33520000  1
  H  H30  1  0.62710000  0.01540000  0.82380000  1
  H  H31  1  0.12710000  0.82380000  0.01540000  1
  H  H32  1  0.06360000  0.96910000  0.82530000  1
  H  H33  1  0.56360000  0.82530000  0.96910000  1
  H  H34  1  0.15010000  0.15140000  0.61120000  1
  H  H35  1  0.65010000  0.61120000  0.15140000  1
  H  H36  1  0.62540000  0.10150000  0.65190000  1
  H  H37  1  0.12540000  0.65190000  0.10150000  1
  H  H38  1  0.55450000  0.32060000  0.42320000  1
  H  H39  1  0.05450000  0.42320000  0.32060000  1
  H  H40  1  0.87380000  0.89790000  0.84510000  1
  H  H41  1  0.37380000  0.84510000  0.89790000  1
  H  H42  1  0.94890000  0.17600000  0.54840000  1
  H  H43  1  0.44890000  0.54840000  0.17600000  1
  H  H44  1  0.34240000  0.34730000  0.36890000  1
  H  H45  1  0.84240000  0.36890000  0.34730000  1
  H  H46  1  0.44370000  0.02670000  0.67350000  1
  H  H47  1  0.94370000  0.67350000  0.02670000  1
  H  H48  1  0.88110000  0.98930000  0.66450000  1
  H  H49  1  0.38110000  0.66450000  0.98930000  1
  H  H50  1  0.35890000  0.16080000  0.48060000  1
  H  H51  1  0.85890000  0.48060000  0.16080000  1
  H  H52  1  0.68330000  0.90990000  0.69110000  1
  H  H53  1  0.18330000  0.69110000  0.90990000  1
  H  H54  1  0.14360000  0.18690000  0.41330000  1
  H  H55  1  0.64360000  0.41330000  0.18690000  1
  H  H56  1  0.85640000  0.81310000  0.58670000  1
  H  H57  1  0.35640000  0.58670000  0.81310000  1
  H  H58  1  0.31670000  0.09010000  0.30890000  1
  H  H59  1  0.81670000  0.30890000  0.09010000  1
  H  H60  1  0.64110000  0.83920000  0.51940000  1
  H  H61  1  0.14110000  0.51940000  0.83920000  1
  H  H62  1  0.11890000  0.01070000  0.33550000  1
  H  H63  1  0.61890000  0.33550000  0.01070000  1
  H  H64  1  0.55630000  0.97330000  0.32650000  1
  H  H65  1  0.05630000  0.32650000  0.97330000  1
  H  H66  1  0.65760000  0.65270000  0.63110000  1
  H  H67  1  0.15760000  0.63110000  0.65270000  1
  H  H68  1  0.05110000  0.82400000  0.45160000  1
  H  H69  1  0.55110000  0.45160000  0.82400000  1
  H  H70  1  0.12620000  0.10210000  0.15490000  1
  H  H71  1  0.62620000  0.15490000  0.10210000  1
  H  H72  1  0.44550000  0.67940000  0.57680000  1
  H  H73  1  0.94550000  0.57680000  0.67940000  1
  H  H74  1  0.37460000  0.89850000  0.34810000  1
  H  H75  1  0.87460000  0.34810000  0.89850000  1
  H  H76  1  0.84990000  0.84860000  0.38880000  1
  H  H77  1  0.34990000  0.38880000  0.84860000  1
  H  H78  1  0.93640000  0.03090000  0.17470000  1
  H  H79  1  0.43640000  0.17470000  0.03090000  1
  H  H80  1  0.37290000  0.98460000  0.17620000  1
  H  H81  1  0.87290000  0.17620000  0.98460000  1
  H  H82  1  0.83480000  0.66480000  0.49300000  1
  H  H83  1  0.33480000  0.49300000  0.66480000  1
  H  H84  1  0.60810000  0.69020000  0.43360000  1
  H  H85  1  0.10810000  0.43360000  0.69020000  1
  H  H86  1  0.16630000  0.90940000  0.20100000  1
  H  H87  1  0.66630000  0.20100000  0.90940000  1
  N  N88  1  0.93260000  0.96180000  0.85180000  1
  N  N89  1  0.43260000  0.85180000  0.96180000  1
  N  N90  1  0.42700000  0.34780000  0.42820000  1
  N  N91  1  0.92700000  0.42820000  0.34780000  1
  N  N92  1  0.07600000  0.14690000  0.54910000  1
  N  N93  1  0.57600000  0.54910000  0.14690000  1
  N  N94  1  0.57200000  0.03710000  0.64490000  1
  N  N95  1  0.07200000  0.64490000  0.03710000  1
  N  N96  1  0.42800000  0.96290000  0.35510000  1
  N  N97  1  0.92800000  0.35510000  0.96290000  1
  N  N98  1  0.92400000  0.85310000  0.45090000  1
  N  N99  1  0.42400000  0.45090000  0.85310000  1
  N  N100  1  0.57300000  0.65220000  0.57180000  1
  N  N101  1  0.07300000  0.57180000  0.65220000  1
  N  N102  1  0.06740000  0.03820000  0.14820000  1
  N  N103  1  0.56740000  0.14820000  0.03820000  1
