# generated using pymatgen
data_H4PbC10N3O4
_symmetry_space_group_name_H-M   'P 1'
_cell_length_a   16.41647448
_cell_length_b   16.41660000
_cell_length_c   16.41660000
_cell_angle_alpha   96.06430000
_cell_angle_beta   116.56272924
_cell_angle_gamma   116.56272924
_symmetry_Int_Tables_number   1
_chemical_formula_structural   H4PbC10N3O4
_chemical_formula_sum   'H32 Pb8 C80 N24 O32'
_cell_volume   3271.16347695
_cell_formula_units_Z   8
loop_
 _symmetry_equiv_pos_site_id
 _symmetry_equiv_pos_as_xyz
  1  'x, y, z'
loop_
 _atom_site_type_symbol
 _atom_site_label
 _atom_site_symmetry_multiplicity
 _atom_site_fract_x
 _atom_site_fract_y
 _atom_site_fract_z
 _atom_site_occupancy
  H  H0  1  0.00460000  0.19770000  0.96150000  1
  H  H1  1  0.03200000  0.42130000  0.12690000  1
  H  H2  1  0.05720000  0.69800000  0.02580000  1
  H  H3  1  0.17220000  0.47420000  0.53140000  1
  H  H4  1  0.18120000  0.44230000  0.25910000  1
  H  H5  1  0.18320000  0.26110000  0.94230000  1
  H  H6  1  0.20560000  0.62690000  0.59490000  1
  H  H7  1  0.23620000  0.19310000  0.69770000  1
  H  H8  1  0.26380000  0.46150000  0.45690000  1
  H  H9  1  0.29440000  0.38930000  0.92130000  1
  H  H10  1  0.31680000  0.75910000  0.57790000  1
  H  H11  1  0.31880000  0.07790000  0.76110000  1
  H  H12  1  0.32780000  0.35920000  0.80200000  1
  H  H13  1  0.44280000  0.96860000  0.14080000  1
  H  H14  1  0.46800000  0.09490000  0.88930000  1
  H  H15  1  0.49540000  0.95690000  0.69310000  1
  H  H16  1  0.50460000  0.04310000  0.30690000  1
  H  H17  1  0.53200000  0.90510000  0.11070000  1
  H  H18  1  0.55720000  0.03140000  0.85920000  1
  H  H19  1  0.67220000  0.64080000  0.19800000  1
  H  H20  1  0.68120000  0.92210000  0.23890000  1
  H  H21  1  0.68320000  0.24090000  0.42210000  1
  H  H22  1  0.70560000  0.61070000  0.07870000  1
  H  H23  1  0.73620000  0.53850000  0.54310000  1
  H  H24  1  0.76380000  0.80690000  0.30230000  1
  H  H25  1  0.79440000  0.37310000  0.40510000  1
  H  H26  1  0.81680000  0.73890000  0.05770000  1
  H  H27  1  0.81880000  0.55770000  0.74090000  1
  H  H28  1  0.82780000  0.52580000  0.46860000  1
  H  H29  1  0.94280000  0.30200000  0.97420000  1
  H  H30  1  0.96800000  0.57870000  0.87310000  1
  H  H31  1  0.99540000  0.80230000  0.03850000  1
  Pb  Pb32  1  0.01552000  0.99402000  0.16894000  1
  Pb  Pb33  1  0.17492000  0.02150000  0.50598000  1
  Pb  Pb34  1  0.32508000  0.33106000  0.34658000  1
  Pb  Pb35  1  0.48448000  0.15342000  0.47850000  1
  Pb  Pb36  1  0.51552000  0.84658000  0.52150000  1
  Pb  Pb37  1  0.67492000  0.66894000  0.65342000  1
  Pb  Pb38  1  0.82508000  0.97850000  0.49402000  1
  Pb  Pb39  1  0.98448000  0.00598000  0.83106000  1
  C  C40  1  0.00230000  0.30950000  0.02920000  1
  C  C41  1  0.01050000  0.17840000  0.49410000  1
  C  C42  1  0.01590000  0.89350000  0.59100000  1
  C  C43  1  0.02930000  0.12260000  0.35410000  1
  C  C44  1  0.03950000  0.24740000  0.02130000  1
  C  C45  1  0.05600000  0.38100000  0.11980000  1
  C  C46  1  0.09250000  0.03090000  0.70100000  1
  C  C47  1  0.12030000  0.20780000  0.36070000  1
  C  C48  1  0.12920000  0.26360000  0.10540000  1
  C  C49  1  0.14480000  0.39230000  0.19910000  1
  C  C50  1  0.15290000  0.91250000  0.29220000  1
  C  C51  1  0.15820000  0.13440000  0.76360000  1
  C  C52  1  0.17010000  0.20100000  0.10850000  1
  C  C53  1  0.18430000  0.00590000  0.01640000  1
  C  C54  1  0.19320000  0.24750000  0.89230000  1
  C  C55  1  0.19750000  0.09100000  0.07510000  1
  C  C56  1  0.21970000  0.52920000  0.52690000  1
  C  C57  1  0.22610000  0.20790000  0.74740000  1
  C  C58  1  0.23150000  0.90670000  0.37740000  1
  C  C59  1  0.23880000  0.61980000  0.56380000  1
  C  C60  1  0.26120000  0.32500000  0.88100000  1
  C  C61  1  0.26850000  0.14590000  0.17520000  1
  C  C62  1  0.27390000  0.52130000  0.48180000  1
  C  C63  1  0.28030000  0.30720000  0.80950000  1
  C  C64  1  0.30250000  0.87760000  0.39350000  1
  C  C65  1  0.30680000  0.69910000  0.55430000  1
  C  C66  1  0.31570000  0.83210000  0.32160000  1
  C  C67  1  0.32990000  0.93840000  0.53090000  1
  C  C68  1  0.34180000  0.60540000  0.47620000  1
  C  C69  1  0.34710000  0.13930000  0.25960000  1
  C  C70  1  0.35520000  0.05430000  0.74750000  1
  C  C71  1  0.37080000  0.97620000  0.63440000  1
  C  C72  1  0.37970000  0.24040000  0.58750000  1
  C  C73  1  0.40750000  0.60850000  0.43840000  1
  C  C74  1  0.44400000  0.06380000  0.82500000  1
  C  C75  1  0.46050000  0.98180000  0.70790000  1
  C  C76  1  0.47070000  0.32480000  0.59330000  1
  C  C77  1  0.48410000  0.57510000  0.37760000  1
  C  C78  1  0.48950000  0.48360000  0.66790000  1
  C  C79  1  0.49770000  0.02690000  0.80720000  1
  C  C80  1  0.50230000  0.97310000  0.19280000  1
  C  C81  1  0.51050000  0.51640000  0.33210000  1
  C  C82  1  0.51590000  0.42490000  0.62240000  1
  C  C83  1  0.52930000  0.67520000  0.40670000  1
  C  C84  1  0.53950000  0.01820000  0.29210000  1
  C  C85  1  0.55600000  0.93620000  0.17500000  1
  C  C86  1  0.59250000  0.39150000  0.56160000  1
  C  C87  1  0.62030000  0.75960000  0.41250000  1
  C  C88  1  0.62920000  0.02380000  0.36560000  1
  C  C89  1  0.64480000  0.94570000  0.25250000  1
  C  C90  1  0.65290000  0.86070000  0.74040000  1
  C  C91  1  0.65820000  0.39460000  0.52380000  1
  C  C92  1  0.67010000  0.06160000  0.46910000  1
  C  C93  1  0.68430000  0.16790000  0.67840000  1
  C  C94  1  0.69320000  0.30090000  0.44570000  1
  C  C95  1  0.69750000  0.12240000  0.60650000  1
  C  C96  1  0.71970000  0.69280000  0.19050000  1
  C  C97  1  0.72610000  0.47870000  0.51820000  1
  C  C98  1  0.73150000  0.85410000  0.82480000  1
  C  C99  1  0.73880000  0.67500000  0.11900000  1
  C  C100  1  0.76120000  0.38020000  0.43620000  1
  C  C101  1  0.76850000  0.09330000  0.62260000  1
  C  C102  1  0.77390000  0.79210000  0.25260000  1
  C  C103  1  0.78030000  0.47080000  0.47310000  1
  C  C104  1  0.80250000  0.90900000  0.92490000  1
  C  C105  1  0.80680000  0.75250000  0.10770000  1
  C  C106  1  0.81570000  0.99410000  0.98360000  1
  C  C107  1  0.82990000  0.79900000  0.89150000  1
  C  C108  1  0.84180000  0.86560000  0.23640000  1
  C  C109  1  0.84710000  0.08750000  0.70780000  1
  C  C110  1  0.85520000  0.60770000  0.80090000  1
  C  C111  1  0.87080000  0.73640000  0.89460000  1
  C  C112  1  0.87970000  0.79220000  0.63930000  1
  C  C113  1  0.90750000  0.96910000  0.29900000  1
  C  C114  1  0.94400000  0.61900000  0.88020000  1
  C  C115  1  0.96050000  0.75260000  0.97870000  1
  C  C116  1  0.97070000  0.87740000  0.64590000  1
  C  C117  1  0.98410000  0.10650000  0.40900000  1
  C  C118  1  0.98950000  0.82160000  0.50590000  1
  C  C119  1  0.99770000  0.69050000  0.97080000  1
  N  N120  1  0.02190000  0.96590000  0.71660000  1
  N  N121  1  0.09210000  0.98980000  0.62510000  1
  N  N122  1  0.13530000  0.12510000  0.03300000  1
  N  N123  1  0.14100000  0.15440000  0.83640000  1
  N  N124  1  0.18200000  0.33640000  0.19540000  1
  N  N125  1  0.24930000  0.94400000  0.46590000  1
  N  N126  1  0.25070000  0.21660000  0.19470000  1
  N  N127  1  0.31800000  0.01340000  0.65440000  1
  N  N128  1  0.35900000  0.69540000  0.51340000  1
  N  N129  1  0.36470000  0.89770000  0.48980000  1
  N  N130  1  0.40790000  0.53300000  0.39770000  1
  N  N131  1  0.47810000  0.69470000  0.44400000  1
  N  N132  1  0.52190000  0.30530000  0.55600000  1
  N  N133  1  0.59210000  0.46700000  0.60230000  1
  N  N134  1  0.63530000  0.10230000  0.51020000  1
  N  N135  1  0.64100000  0.30460000  0.48660000  1
  N  N136  1  0.68200000  0.98660000  0.34560000  1
  N  N137  1  0.74930000  0.78340000  0.80530000  1
  N  N138  1  0.75070000  0.05600000  0.53410000  1
  N  N139  1  0.81800000  0.66360000  0.80460000  1
  N  N140  1  0.85900000  0.84560000  0.16360000  1
  N  N141  1  0.86470000  0.87490000  0.96700000  1
  N  N142  1  0.90790000  0.01020000  0.37490000  1
  N  N143  1  0.97810000  0.03410000  0.28340000  1
  O  O144  1  0.03850000  0.84670000  0.46640000  1
  O  O145  1  0.08950000  0.27030000  0.52500000  1
  O  O146  1  0.10890000  0.95200000  0.30970000  1
  O  O147  1  0.11970000  0.96640000  0.92790000  1
  O  O148  1  0.13560000  0.88080000  0.20980000  1
  O  O149  1  0.14230000  0.19030000  0.29920000  1
  O  O150  1  0.17100000  0.29020000  0.42580000  1
  O  O151  1  0.24530000  0.97500000  0.06450000  1
  O  O152  1  0.25470000  0.81920000  0.22970000  1
  O  O153  1  0.32900000  0.25480000  0.61920000  1
  O  O154  1  0.35770000  0.15690000  0.54800000  1
  O  O155  1  0.36440000  0.07420000  0.24520000  1
  O  O156  1  0.38030000  0.80820000  0.34670000  1
  O  O157  1  0.39110000  0.20080000  0.34310000  1
  O  O158  1  0.41050000  0.43550000  0.68080000  1
  O  O159  1  0.46150000  0.42790000  0.30820000  1
  O  O160  1  0.53850000  0.57210000  0.69180000  1
  O  O161  1  0.58950000  0.56450000  0.31920000  1
  O  O162  1  0.60890000  0.79920000  0.65690000  1
  O  O163  1  0.61970000  0.19180000  0.65330000  1
  O  O164  1  0.63560000  0.92580000  0.75480000  1
  O  O165  1  0.64230000  0.84310000  0.45200000  1
  O  O166  1  0.67100000  0.74520000  0.38080000  1
  O  O167  1  0.74530000  0.18080000  0.77030000  1
  O  O168  1  0.75470000  0.02500000  0.93550000  1
  O  O169  1  0.82900000  0.70980000  0.57420000  1
  O  O170  1  0.85770000  0.80970000  0.70080000  1
  O  O171  1  0.86440000  0.11920000  0.79020000  1
  O  O172  1  0.88030000  0.03360000  0.07210000  1
  O  O173  1  0.89110000  0.04800000  0.69030000  1
  O  O174  1  0.91050000  0.72970000  0.47500000  1
  O  O175  1  0.96150000  0.15330000  0.53360000  1
