# generated using pymatgen
data_ZnH16C20(N3O2)2
_symmetry_space_group_name_H-M   'P 1'
_cell_length_a   12.88420000
_cell_length_b   14.59560000
_cell_length_c   14.59560000
_cell_angle_alpha   90.00000000
_cell_angle_beta   90.00000000
_cell_angle_gamma   90.00000000
_symmetry_Int_Tables_number   1
_chemical_formula_structural   ZnH16C20(N3O2)2
_chemical_formula_sum   'Zn4 H64 C80 N24 O16'
_cell_volume   2744.74095942
_cell_formula_units_Z   4
loop_
 _symmetry_equiv_pos_site_id
 _symmetry_equiv_pos_as_xyz
  1  'x, y, z'
loop_
 _atom_site_type_symbol
 _atom_site_label
 _atom_site_symmetry_multiplicity
 _atom_site_fract_x
 _atom_site_fract_y
 _atom_site_fract_z
 _atom_site_occupancy
  Zn  Zn0  1  0.00000000  0.00000000  0.50000000  1
  Zn  Zn1  1  0.00000000  0.50000000  0.00000000  1
  Zn  Zn2  1  0.50000000  0.00000000  0.50000000  1
  Zn  Zn3  1  0.50000000  0.50000000  0.00000000  1
  H  H4  1  0.06360000  0.32120000  0.44220000  1
  H  H5  1  0.06360000  0.44220000  0.67880000  1
  H  H6  1  0.06360000  0.55780000  0.32120000  1
  H  H7  1  0.06360000  0.67880000  0.55780000  1
  H  H8  1  0.12310000  0.25630000  0.66880000  1
  H  H9  1  0.12310000  0.33120000  0.25630000  1
  H  H10  1  0.12310000  0.66880000  0.74370000  1
  H  H11  1  0.12310000  0.74370000  0.33120000  1
  H  H12  1  0.19190000  0.00420000  0.36060000  1
  H  H13  1  0.19190000  0.36060000  0.99580000  1
  H  H14  1  0.19190000  0.63940000  0.00420000  1
  H  H15  1  0.19190000  0.99580000  0.63940000  1
  H  H16  1  0.23650000  0.16200000  0.59040000  1
  H  H17  1  0.23650000  0.40960000  0.16200000  1
  H  H18  1  0.23650000  0.59040000  0.83800000  1
  H  H19  1  0.23650000  0.83800000  0.40960000  1
  H  H20  1  0.24780000  0.08320000  0.30490000  1
  H  H21  1  0.24780000  0.30490000  0.91680000  1
  H  H22  1  0.24780000  0.69510000  0.08320000  1
  H  H23  1  0.24780000  0.91680000  0.69510000  1
  H  H24  1  0.28730000  0.05700000  0.40430000  1
  H  H25  1  0.28730000  0.40430000  0.94300000  1
  H  H26  1  0.28730000  0.59570000  0.05700000  1
  H  H27  1  0.28730000  0.94300000  0.59570000  1
  H  H28  1  0.36200000  0.22970000  0.40150000  1
  H  H29  1  0.36200000  0.40150000  0.77030000  1
  H  H30  1  0.36200000  0.59850000  0.22970000  1
  H  H31  1  0.36200000  0.77030000  0.59850000  1
  H  H32  1  0.47840000  0.30830000  0.68860000  1
  H  H33  1  0.47840000  0.31140000  0.30830000  1
  H  H34  1  0.47840000  0.68860000  0.69170000  1
  H  H35  1  0.47840000  0.69170000  0.31140000  1
  H  H36  1  0.56360000  0.05780000  0.17880000  1
  H  H37  1  0.56360000  0.17880000  0.94220000  1
  H  H38  1  0.56360000  0.82120000  0.05780000  1
  H  H39  1  0.56360000  0.94220000  0.82120000  1
  H  H40  1  0.62310000  0.16880000  0.75630000  1
  H  H41  1  0.62310000  0.24370000  0.16880000  1
  H  H42  1  0.62310000  0.75630000  0.83120000  1
  H  H43  1  0.62310000  0.83120000  0.24370000  1
  H  H44  1  0.69190000  0.13940000  0.49580000  1
  H  H45  1  0.69190000  0.49580000  0.86060000  1
  H  H46  1  0.69190000  0.50420000  0.13940000  1
  H  H47  1  0.69190000  0.86060000  0.50420000  1
  H  H48  1  0.73650000  0.09040000  0.66200000  1
  H  H49  1  0.73650000  0.33800000  0.09040000  1
  H  H50  1  0.73650000  0.66200000  0.90960000  1
  H  H51  1  0.73650000  0.90960000  0.33800000  1
  H  H52  1  0.74780000  0.19510000  0.41680000  1
  H  H53  1  0.74780000  0.41680000  0.80490000  1
  H  H54  1  0.74780000  0.58320000  0.19510000  1
  H  H55  1  0.74780000  0.80490000  0.58320000  1
  H  H56  1  0.78730000  0.09570000  0.44300000  1
  H  H57  1  0.78730000  0.44300000  0.90430000  1
  H  H58  1  0.78730000  0.55700000  0.09570000  1
  H  H59  1  0.78730000  0.90430000  0.55700000  1
  H  H60  1  0.86200000  0.09850000  0.27030000  1
  H  H61  1  0.86200000  0.27030000  0.90150000  1
  H  H62  1  0.86200000  0.72970000  0.09850000  1
  H  H63  1  0.86200000  0.90150000  0.72970000  1
  H  H64  1  0.97840000  0.18860000  0.80830000  1
  H  H65  1  0.97840000  0.19170000  0.18860000  1
  H  H66  1  0.97840000  0.80830000  0.81140000  1
  H  H67  1  0.97840000  0.81140000  0.19170000  1
  C  C68  1  0.07880000  0.25830000  0.43930000  1
  C  C69  1  0.07880000  0.43930000  0.74170000  1
  C  C70  1  0.07880000  0.56070000  0.25830000  1
  C  C71  1  0.07880000  0.74170000  0.56070000  1
  C  C72  1  0.15530000  0.13050000  0.40530000  1
  C  C73  1  0.15530000  0.40530000  0.86950000  1
  C  C74  1  0.15530000  0.59470000  0.13050000  1
  C  C75  1  0.15530000  0.86950000  0.59470000  1
  C  C76  1  0.19500000  0.26630000  0.67280000  1
  C  C77  1  0.19500000  0.32720000  0.26630000  1
  C  C78  1  0.19500000  0.67280000  0.73370000  1
  C  C79  1  0.19500000  0.73370000  0.32720000  1
  C  C80  1  0.22660000  0.06300000  0.36540000  1
  C  C81  1  0.22660000  0.36540000  0.93700000  1
  C  C82  1  0.22660000  0.63460000  0.06300000  1
  C  C83  1  0.22660000  0.93700000  0.63460000  1
  C  C84  1  0.23230000  0.27440000  0.33580000  1
  C  C85  1  0.23230000  0.33580000  0.72560000  1
  C  C86  1  0.23230000  0.66420000  0.27440000  1
  C  C87  1  0.23230000  0.72560000  0.66420000  1
  C  C88  1  0.26250000  0.21090000  0.62540000  1
  C  C89  1  0.26250000  0.37460000  0.21090000  1
  C  C90  1  0.26250000  0.62540000  0.78910000  1
  C  C91  1  0.26250000  0.78910000  0.37460000  1
  C  C92  1  0.33760000  0.26670000  0.35350000  1
  C  C93  1  0.33760000  0.35350000  0.73330000  1
  C  C94  1  0.33760000  0.64650000  0.26670000  1
  C  C95  1  0.33760000  0.73330000  0.64650000  1
  C  C96  1  0.36990000  0.22660000  0.62890000  1
  C  C97  1  0.36990000  0.37110000  0.22660000  1
  C  C98  1  0.36990000  0.62890000  0.77340000  1
  C  C99  1  0.36990000  0.77340000  0.37110000  1
  C  C100  1  0.40660000  0.29770000  0.68420000  1
  C  C101  1  0.40660000  0.31580000  0.29770000  1
  C  C102  1  0.40660000  0.68420000  0.70230000  1
  C  C103  1  0.40660000  0.70230000  0.31580000  1
  C  C104  1  0.44450000  0.16470000  0.58020000  1
  C  C105  1  0.44450000  0.41980000  0.16470000  1
  C  C106  1  0.44450000  0.58020000  0.83530000  1
  C  C107  1  0.44450000  0.83530000  0.41980000  1
  C  C108  1  0.57880000  0.06070000  0.24170000  1
  C  C109  1  0.57880000  0.24170000  0.93930000  1
  C  C110  1  0.57880000  0.75830000  0.06070000  1
  C  C111  1  0.57880000  0.93930000  0.75830000  1
  C  C112  1  0.65530000  0.09470000  0.36950000  1
  C  C113  1  0.65530000  0.36950000  0.90530000  1
  C  C114  1  0.65530000  0.63050000  0.09470000  1
  C  C115  1  0.65530000  0.90530000  0.63050000  1
  C  C116  1  0.69500000  0.17280000  0.76630000  1
  C  C117  1  0.69500000  0.23370000  0.17280000  1
  C  C118  1  0.69500000  0.76630000  0.82720000  1
  C  C119  1  0.69500000  0.82720000  0.23370000  1
  C  C120  1  0.72660000  0.13460000  0.43700000  1
  C  C121  1  0.72660000  0.43700000  0.86540000  1
  C  C122  1  0.72660000  0.56300000  0.13460000  1
  C  C123  1  0.72660000  0.86540000  0.56300000  1
  C  C124  1  0.73230000  0.16420000  0.22560000  1
  C  C125  1  0.73230000  0.22560000  0.83580000  1
  C  C126  1  0.73230000  0.77440000  0.16420000  1
  C  C127  1  0.73230000  0.83580000  0.77440000  1
  C  C128  1  0.76250000  0.12540000  0.71090000  1
  C  C129  1  0.76250000  0.28910000  0.12540000  1
  C  C130  1  0.76250000  0.71090000  0.87460000  1
  C  C131  1  0.76250000  0.87460000  0.28910000  1
  C  C132  1  0.83760000  0.14650000  0.23330000  1
  C  C133  1  0.83760000  0.23330000  0.85350000  1
  C  C134  1  0.83760000  0.76670000  0.14650000  1
  C  C135  1  0.83760000  0.85350000  0.76670000  1
  C  C136  1  0.86990000  0.12890000  0.72660000  1
  C  C137  1  0.86990000  0.27340000  0.12890000  1
  C  C138  1  0.86990000  0.72660000  0.87110000  1
  C  C139  1  0.86990000  0.87110000  0.27340000  1
  C  C140  1  0.90660000  0.18420000  0.79770000  1
  C  C141  1  0.90660000  0.20230000  0.18420000  1
  C  C142  1  0.90660000  0.79770000  0.81580000  1
  C  C143  1  0.90660000  0.81580000  0.20230000  1
  C  C144  1  0.94450000  0.08020000  0.66470000  1
  C  C145  1  0.94450000  0.33530000  0.08020000  1
  C  C146  1  0.94450000  0.66470000  0.91980000  1
  C  C147  1  0.94450000  0.91980000  0.33530000  1
  N  N148  1  0.02400000  0.19520000  0.48020000  1
  N  N149  1  0.02400000  0.48020000  0.80480000  1
  N  N150  1  0.02400000  0.51980000  0.19520000  1
  N  N151  1  0.02400000  0.80480000  0.51980000  1
  N  N152  1  0.07400000  0.11380000  0.45830000  1
  N  N153  1  0.07400000  0.45830000  0.88620000  1
  N  N154  1  0.07400000  0.54170000  0.11380000  1
  N  N155  1  0.07400000  0.88620000  0.54170000  1
  N  N156  1  0.16050000  0.22250000  0.39170000  1
  N  N157  1  0.16050000  0.39170000  0.77750000  1
  N  N158  1  0.16050000  0.60830000  0.22250000  1
  N  N159  1  0.16050000  0.77750000  0.60830000  1
  N  N160  1  0.52400000  0.01980000  0.30480000  1
  N  N161  1  0.52400000  0.30480000  0.98020000  1
  N  N162  1  0.52400000  0.69520000  0.01980000  1
  N  N163  1  0.52400000  0.98020000  0.69520000  1
  N  N164  1  0.57400000  0.04170000  0.38620000  1
  N  N165  1  0.57400000  0.38620000  0.95830000  1
  N  N166  1  0.57400000  0.61380000  0.04170000  1
  N  N167  1  0.57400000  0.95830000  0.61380000  1
  N  N168  1  0.66050000  0.10830000  0.27750000  1
  N  N169  1  0.66050000  0.27750000  0.89170000  1
  N  N170  1  0.66050000  0.72250000  0.10830000  1
  N  N171  1  0.66050000  0.89170000  0.72250000  1
  O  O172  1  0.03920000  0.08000000  0.68190000  1
  O  O173  1  0.03920000  0.31810000  0.08000000  1
  O  O174  1  0.03920000  0.68190000  0.92000000  1
  O  O175  1  0.03920000  0.92000000  0.31810000  1
  O  O176  1  0.40270000  0.09570000  0.54010000  1
  O  O177  1  0.40270000  0.45990000  0.09570000  1
  O  O178  1  0.40270000  0.54010000  0.90430000  1
  O  O179  1  0.40270000  0.90430000  0.45990000  1
  O  O180  1  0.53920000  0.18190000  0.58000000  1
  O  O181  1  0.53920000  0.42000000  0.18190000  1
  O  O182  1  0.53920000  0.58000000  0.81810000  1
  O  O183  1  0.53920000  0.81810000  0.42000000  1
  O  O184  1  0.90270000  0.04010000  0.59570000  1
  O  O185  1  0.90270000  0.40430000  0.04010000  1
  O  O186  1  0.90270000  0.59570000  0.95990000  1
  O  O187  1  0.90270000  0.95990000  0.40430000  1
