# generated using pymatgen
data_TbCu3H12C18Br3(NO2)3
_symmetry_space_group_name_H-M   'P 1'
_cell_length_a   9.81160000
_cell_length_b   14.76610000
_cell_length_c   20.17530000
_cell_angle_alpha   73.21300000
_cell_angle_beta   82.54100000
_cell_angle_gamma   77.74800000
_symmetry_Int_Tables_number   1
_chemical_formula_structural   TbCu3H12C18Br3(NO2)3
_chemical_formula_sum   'Tb4 Cu12 H48 C72 Br12 N12 O24'
_cell_volume   2727.33301034
_cell_formula_units_Z   4
loop_
 _symmetry_equiv_pos_site_id
 _symmetry_equiv_pos_as_xyz
  1  'x, y, z'
loop_
 _atom_site_type_symbol
 _atom_site_label
 _atom_site_symmetry_multiplicity
 _atom_site_fract_x
 _atom_site_fract_y
 _atom_site_fract_z
 _atom_site_occupancy
  Tb  Tb0  1  0.13180000  0.94812000  0.20358000  1
  Tb  Tb1  1  0.33588000  0.04719000  0.81015000  1
  Tb  Tb2  1  0.66412000  0.95281000  0.18985000  1
  Tb  Tb3  1  0.86820000  0.05188000  0.79642000  1
  Cu  Cu4  1  0.01522000  0.66729000  0.67428000  1
  Cu  Cu5  1  0.10013000  0.60108000  0.55297000  1
  Cu  Cu6  1  0.22745000  0.74395000  0.57220000  1
  Cu  Cu7  1  0.26001000  0.56032000  0.65862000  1
  Cu  Cu8  1  0.32627000  0.50407000  0.11508000  1
  Cu  Cu9  1  0.40897000  0.51422000  0.94633000  1
  Cu  Cu10  1  0.59103000  0.48578000  0.05367000  1
  Cu  Cu11  1  0.67373000  0.49593000  0.88492000  1
  Cu  Cu12  1  0.73999000  0.43968000  0.34138000  1
  Cu  Cu13  1  0.77255000  0.25605000  0.42780000  1
  Cu  Cu14  1  0.89987000  0.39892000  0.44703000  1
  Cu  Cu15  1  0.98478000  0.33271000  0.32572000  1
  H  H16  1  0.03750000  0.45790000  0.14700000  1
  H  H17  1  0.07030000  0.72080000  0.41100000  1
  H  H18  1  0.07780000  0.19100000  0.08290000  1
  H  H19  1  0.09190000  0.35270000  0.03790000  1
  H  H20  1  0.10540000  0.53370000  0.97380000  1
  H  H21  1  0.11700000  0.20130000  0.24240000  1
  H  H22  1  0.18140000  0.43470000  0.46480000  1
  H  H23  1  0.18220000  0.68870000  0.13500000  1
  H  H24  1  0.18870000  0.46200000  0.84630000  1
  H  H25  1  0.23020000  0.29800000  0.85350000  1
  H  H26  1  0.23120000  0.70110000  0.27980000  1
  H  H27  1  0.23140000  0.54560000  0.34740000  1
  H  H28  1  0.25800000  0.87760000  0.64730000  1
  H  H29  1  0.26330000  0.39540000  0.29200000  1
  H  H30  1  0.31970000  0.24950000  0.63960000  1
  H  H31  1  0.32750000  0.12860000  0.48400000  1
  H  H32  1  0.33650000  0.72950000  0.90890000  1
  H  H33  1  0.35270000  0.35210000  0.72280000  1
  H  H34  1  0.35760000  0.36980000  0.53870000  1
  H  H35  1  0.37320000  0.03890000  0.40320000  1
  H  H36  1  0.43730000  0.44410000  0.37300000  1
  H  H37  1  0.47640000  0.79020000  0.79520000  1
  H  H38  1  0.48550000  0.34000000  0.25120000  1
  H  H39  1  0.49380000  0.20700000  0.49700000  1
  H  H40  1  0.50620000  0.79300000  0.50300000  1
  H  H41  1  0.51450000  0.66000000  0.74880000  1
  H  H42  1  0.52360000  0.20980000  0.20480000  1
  H  H43  1  0.56270000  0.55590000  0.62700000  1
  H  H44  1  0.62680000  0.96110000  0.59680000  1
  H  H45  1  0.64240000  0.63020000  0.46130000  1
  H  H46  1  0.64730000  0.64790000  0.27720000  1
  H  H47  1  0.66350000  0.27050000  0.09110000  1
  H  H48  1  0.67250000  0.87140000  0.51600000  1
  H  H49  1  0.68030000  0.75050000  0.36040000  1
  H  H50  1  0.73670000  0.60460000  0.70800000  1
  H  H51  1  0.74200000  0.12240000  0.35270000  1
  H  H52  1  0.76860000  0.45440000  0.65260000  1
  H  H53  1  0.76880000  0.29890000  0.72020000  1
  H  H54  1  0.76980000  0.70200000  0.14650000  1
  H  H55  1  0.81130000  0.53800000  0.15370000  1
  H  H56  1  0.81780000  0.31130000  0.86500000  1
  H  H57  1  0.81860000  0.56530000  0.53520000  1
  H  H58  1  0.88300000  0.79870000  0.75760000  1
  H  H59  1  0.89460000  0.46630000  0.02620000  1
  H  H60  1  0.90810000  0.64730000  0.96210000  1
  H  H61  1  0.92220000  0.80900000  0.91710000  1
  H  H62  1  0.92970000  0.27920000  0.58900000  1
  H  H63  1  0.96250000  0.54210000  0.85300000  1
  C  C64  1  0.00240000  0.76190000  0.92440000  1
  C  C65  1  0.00520000  0.33420000  0.05010000  1
  C  C66  1  0.01720000  0.29690000  0.57850000  1
  C  C67  1  0.02130000  0.52300000  0.14480000  1
  C  C68  1  0.02650000  0.28820000  0.85960000  1
  C  C69  1  0.04530000  0.18410000  0.86000000  1
  C  C70  1  0.08410000  0.18190000  0.69220000  1
  C  C71  1  0.10660000  0.65870000  0.13740000  1
  C  C72  1  0.11350000  0.59810000  0.95720000  1
  C  C73  1  0.11480000  0.42970000  0.85120000  1
  C  C74  1  0.11760000  0.25400000  0.62600000  1
  C  C75  1  0.13370000  0.78530000  0.91040000  1
  C  C76  1  0.13930000  0.33270000  0.85460000  1
  C  C77  1  0.15160000  0.88850000  0.88240000  1
  C  C78  1  0.16510000  0.38810000  0.50570000  1
  C  C79  1  0.19250000  0.22870000  0.24490000  1
  C  C80  1  0.24850000  0.27930000  0.61000000  1
  C  C81  1  0.24850000  0.71260000  0.91930000  1
  C  C82  1  0.27210000  0.34940000  0.54960000  1
  C  C83  1  0.27830000  0.34240000  0.27420000  1
  C  C84  1  0.31500000  0.65980000  0.29240000  1
  C  C85  1  0.31530000  0.56730000  0.33160000  1
  C  C86  1  0.32300000  0.19170000  0.21820000  1
  C  C87  1  0.33870000  0.10770000  0.18870000  1
  C  C88  1  0.34230000  0.87740000  0.62020000  1
  C  C89  1  0.40160000  0.97910000  0.68740000  1
  C  C90  1  0.41180000  0.12540000  0.45700000  1
  C  C91  1  0.41210000  0.31030000  0.24920000  1
  C  C92  1  0.43430000  0.23350000  0.22140000  1
  C  C93  1  0.43580000  0.92920000  0.63140000  1
  C  C94  1  0.43740000  0.37330000  0.70930000  1
  C  C95  1  0.43870000  0.50740000  0.34740000  1
  C  C96  1  0.43890000  0.07280000  0.40870000  1
  C  C97  1  0.44040000  0.69100000  0.27160000  1
  C  C98  1  0.44730000  0.79210000  0.22840000  1
  C  C99  1  0.48780000  0.82760000  0.53610000  1
  C  C100  1  0.51220000  0.17240000  0.46390000  1
  C  C101  1  0.55270000  0.20790000  0.77160000  1
  C  C102  1  0.55960000  0.30900000  0.72840000  1
  C  C103  1  0.56110000  0.92720000  0.59130000  1
  C  C104  1  0.56130000  0.49260000  0.65260000  1
  C  C105  1  0.56260000  0.62670000  0.29070000  1
  C  C106  1  0.56420000  0.07080000  0.36860000  1
  C  C107  1  0.56570000  0.76650000  0.77860000  1
  C  C108  1  0.58790000  0.68970000  0.75080000  1
  C  C109  1  0.58820000  0.87460000  0.54300000  1
  C  C110  1  0.59840000  0.02090000  0.31260000  1
  C  C111  1  0.65770000  0.12260000  0.37980000  1
  C  C112  1  0.66130000  0.89230000  0.81130000  1
  C  C113  1  0.67700000  0.80830000  0.78180000  1
  C  C114  1  0.68470000  0.43270000  0.66840000  1
  C  C115  1  0.68500000  0.34020000  0.70760000  1
  C  C116  1  0.72170000  0.65760000  0.72580000  1
  C  C117  1  0.72790000  0.65060000  0.45040000  1
  C  C118  1  0.75150000  0.28740000  0.08070000  1
  C  C119  1  0.75150000  0.72070000  0.39000000  1
  C  C120  1  0.80750000  0.77130000  0.75510000  1
  C  C121  1  0.83490000  0.61190000  0.49430000  1
  C  C122  1  0.84840000  0.11150000  0.11760000  1
  C  C123  1  0.86070000  0.66730000  0.14540000  1
  C  C124  1  0.86630000  0.21470000  0.08960000  1
  C  C125  1  0.88240000  0.74600000  0.37400000  1
  C  C126  1  0.88520000  0.57030000  0.14880000  1
  C  C127  1  0.88650000  0.40190000  0.04280000  1
  C  C128  1  0.89340000  0.34130000  0.86260000  1
  C  C129  1  0.91590000  0.81810000  0.30780000  1
  C  C130  1  0.95470000  0.81590000  0.14000000  1
  C  C131  1  0.97350000  0.71180000  0.14040000  1
  C  C132  1  0.97870000  0.47700000  0.85520000  1
  C  C133  1  0.98280000  0.70310000  0.42150000  1
  C  C134  1  0.99480000  0.66580000  0.94990000  1
  C  C135  1  0.99760000  0.23810000  0.07560000  1
  Br  Br136  1  0.01693000  0.18489000  0.43591000  1
  Br  Br137  1  0.03804000  0.49677000  0.66219000  1
  Br  Br138  1  0.21733000  0.67507000  0.72822000  1
  Br  Br139  1  0.33005000  0.62786000  0.50791000  1
  Br  Br140  1  0.37655000  0.38384000  0.05534000  1
  Br  Br141  1  0.49876000  0.42175000  0.86415000  1
  Br  Br142  1  0.50124000  0.57825000  0.13585000  1
  Br  Br143  1  0.62345000  0.61616000  0.94466000  1
  Br  Br144  1  0.66995000  0.37214000  0.49209000  1
  Br  Br145  1  0.78267000  0.32493000  0.27178000  1
  Br  Br146  1  0.96196000  0.50323000  0.33781000  1
  Br  Br147  1  0.98307000  0.81511000  0.56409000  1
  N  N148  1  0.03880000  0.36240000  0.51860000  1
  N  N149  1  0.13200000  0.56570000  0.13780000  1
  N  N150  1  0.16900000  0.30170000  0.27410000  1
  N  N151  1  0.24200000  0.61970000  0.94170000  1
  N  N152  1  0.36550000  0.82740000  0.57320000  1
  N  N153  1  0.43570000  0.46470000  0.67230000  1
  N  N154  1  0.56430000  0.53530000  0.32770000  1
  N  N155  1  0.63450000  0.17260000  0.42680000  1
  N  N156  1  0.75800000  0.38030000  0.05830000  1
  N  N157  1  0.83100000  0.69830000  0.72590000  1
  N  N158  1  0.86800000  0.43430000  0.86220000  1
  N  N159  1  0.96120000  0.63760000  0.48140000  1
  O  O160  1  0.03850000  0.83550000  0.29700000  1
  O  O161  1  0.05360000  0.95030000  0.85500000  1
  O  O162  1  0.05760000  0.84290000  0.15310000  1
  O  O163  1  0.16490000  0.13290000  0.87230000  1
  O  O164  1  0.17840000  0.14340000  0.73220000  1
  O  O165  1  0.23050000  0.08330000  0.17960000  1
  O  O166  1  0.26800000  0.90760000  0.88740000  1
  O  O167  1  0.30350000  0.95430000  0.73350000  1
  O  O168  1  0.33910000  0.84190000  0.20090000  1
  O  O169  1  0.43760000  0.18160000  0.77810000  1
  O  O170  1  0.45970000  0.06600000  0.17490000  1
  O  O171  1  0.46820000  0.04110000  0.69040000  1
  O  O172  1  0.53180000  0.95890000  0.30960000  1
  O  O173  1  0.54030000  0.93400000  0.82510000  1
  O  O174  1  0.56240000  0.81840000  0.22190000  1
  O  O175  1  0.66090000  0.15810000  0.79910000  1
  O  O176  1  0.69650000  0.04570000  0.26650000  1
  O  O177  1  0.73200000  0.09240000  0.11260000  1
  O  O178  1  0.76950000  0.91670000  0.82040000  1
  O  O179  1  0.82160000  0.85660000  0.26780000  1
  O  O180  1  0.83510000  0.86710000  0.12770000  1
  O  O181  1  0.94240000  0.15710000  0.84690000  1
  O  O182  1  0.94640000  0.04970000  0.14500000  1
  O  O183  1  0.96150000  0.16450000  0.70300000  1
