# generated using pymatgen
data_ZnH20C17N8
_symmetry_space_group_name_H-M   'P 1'
_cell_length_a   14.54100000
_cell_length_b   18.29500000
_cell_length_c   18.65500000
_cell_angle_alpha   90.00000000
_cell_angle_beta   90.00000000
_cell_angle_gamma   90.00000000
_symmetry_Int_Tables_number   1
_chemical_formula_structural   ZnH20C17N8
_chemical_formula_sum   'Zn8 H160 C136 N64'
_cell_volume   4962.74478473
_cell_formula_units_Z   8
loop_
 _symmetry_equiv_pos_site_id
 _symmetry_equiv_pos_as_xyz
  1  'x, y, z'
loop_
 _atom_site_type_symbol
 _atom_site_label
 _atom_site_symmetry_multiplicity
 _atom_site_fract_x
 _atom_site_fract_y
 _atom_site_fract_z
 _atom_site_occupancy
  Zn  Zn0  1  0.87430000  0.77371000  0.45158000  1
  Zn  Zn1  1  0.62570000  0.77371000  0.95158000  1
  Zn  Zn2  1  0.37430000  0.72629000  0.45158000  1
  Zn  Zn3  1  0.12570000  0.72629000  0.95158000  1
  Zn  Zn4  1  0.87430000  0.27371000  0.04842000  1
  Zn  Zn5  1  0.62570000  0.27371000  0.54842000  1
  Zn  Zn6  1  0.37430000  0.22629000  0.04842000  1
  Zn  Zn7  1  0.12570000  0.22629000  0.54842000  1
  H  H8  1  0.37400000  0.99100000  0.25690000  1
  H  H9  1  0.12600000  0.99100000  0.75690000  1
  H  H10  1  0.44430000  0.97040000  0.14270000  1
  H  H11  1  0.05570000  0.97040000  0.64270000  1
  H  H12  1  0.27950000  0.95520000  0.27650000  1
  H  H13  1  0.22050000  0.95520000  0.77650000  1
  H  H14  1  0.29900000  0.94950000  0.66620000  1
  H  H15  1  0.20100000  0.94950000  0.16620000  1
  H  H16  1  0.85090000  0.94340000  0.44470000  1
  H  H17  1  0.64910000  0.94340000  0.94470000  1
  H  H18  1  0.25600000  0.94280000  0.09440000  1
  H  H19  1  0.24400000  0.94280000  0.59440000  1
  H  H20  1  0.35160000  0.92640000  0.00610000  1
  H  H21  1  0.14840000  0.92640000  0.50610000  1
  H  H22  1  0.79330000  0.92440000  0.76610000  1
  H  H23  1  0.70670000  0.92440000  0.26610000  1
  H  H24  1  0.97440000  0.92390000  0.80790000  1
  H  H25  1  0.52560000  0.92390000  0.30790000  1
  H  H26  1  0.47430000  0.89900000  0.18220000  1
  H  H27  1  0.02570000  0.89900000  0.68220000  1
  H  H28  1  0.43240000  0.85220000  0.91640000  1
  H  H29  1  0.06760000  0.85220000  0.41640000  1
  H  H30  1  0.28180000  0.83980000  0.35250000  1
  H  H31  1  0.21820000  0.83980000  0.85250000  1
  H  H32  1  0.25750000  0.83410000  0.71690000  1
  H  H33  1  0.24250000  0.83410000  0.21690000  1
  H  H34  1  0.33490000  0.83170000  0.58340000  1
  H  H35  1  0.16510000  0.83170000  0.08340000  1
  H  H36  1  0.81810000  0.83050000  0.01350000  1
  H  H37  1  0.68190000  0.83050000  0.51350000  1
  H  H38  1  0.95550000  0.82920000  0.89940000  1
  H  H39  1  0.54450000  0.82920000  0.39940000  1
  H  H40  1  0.94640000  0.81970000  0.60180000  1
  H  H41  1  0.55360000  0.81970000  0.10180000  1
  H  H42  1  0.34420000  0.80650000  0.21860000  1
  H  H43  1  0.15580000  0.80650000  0.71860000  1
  H  H44  1  0.75430000  0.80260000  0.30500000  1
  H  H45  1  0.74570000  0.80260000  0.80500000  1
  H  H46  1  0.89140000  0.78170000  0.12140000  1
  H  H47  1  0.60860000  0.78170000  0.62140000  1
  H  H48  1  0.39140000  0.71830000  0.12140000  1
  H  H49  1  0.10860000  0.71830000  0.62140000  1
  H  H50  1  0.25430000  0.69740000  0.30500000  1
  H  H51  1  0.24570000  0.69740000  0.80500000  1
  H  H52  1  0.84420000  0.69350000  0.21860000  1
  H  H53  1  0.65580000  0.69350000  0.71860000  1
  H  H54  1  0.44640000  0.68030000  0.60180000  1
  H  H55  1  0.05360000  0.68030000  0.10180000  1
  H  H56  1  0.45550000  0.67080000  0.89940000  1
  H  H57  1  0.04450000  0.67080000  0.39940000  1
  H  H58  1  0.31810000  0.66950000  0.01350000  1
  H  H59  1  0.18190000  0.66950000  0.51350000  1
  H  H60  1  0.83490000  0.66830000  0.58340000  1
  H  H61  1  0.66510000  0.66830000  0.08340000  1
  H  H62  1  0.75750000  0.66590000  0.71690000  1
  H  H63  1  0.74250000  0.66590000  0.21690000  1
  H  H64  1  0.78180000  0.66020000  0.35250000  1
  H  H65  1  0.71820000  0.66020000  0.85250000  1
  H  H66  1  0.93240000  0.64780000  0.91640000  1
  H  H67  1  0.56760000  0.64780000  0.41640000  1
  H  H68  1  0.97430000  0.60100000  0.18220000  1
  H  H69  1  0.52570000  0.60100000  0.68220000  1
  H  H70  1  0.47440000  0.57610000  0.80790000  1
  H  H71  1  0.02560000  0.57610000  0.30790000  1
  H  H72  1  0.29330000  0.57560000  0.76610000  1
  H  H73  1  0.20670000  0.57560000  0.26610000  1
  H  H74  1  0.85160000  0.57360000  0.00610000  1
  H  H75  1  0.64840000  0.57360000  0.50610000  1
  H  H76  1  0.75600000  0.55720000  0.09440000  1
  H  H77  1  0.74400000  0.55720000  0.59440000  1
  H  H78  1  0.35090000  0.55660000  0.44470000  1
  H  H79  1  0.14910000  0.55660000  0.94470000  1
  H  H80  1  0.79900000  0.55050000  0.66620000  1
  H  H81  1  0.70100000  0.55050000  0.16620000  1
  H  H82  1  0.77950000  0.54480000  0.27650000  1
  H  H83  1  0.72050000  0.54480000  0.77650000  1
  H  H84  1  0.94430000  0.52960000  0.14270000  1
  H  H85  1  0.55570000  0.52960000  0.64270000  1
  H  H86  1  0.87400000  0.50900000  0.25690000  1
  H  H87  1  0.62600000  0.50900000  0.75690000  1
  H  H88  1  0.37400000  0.49100000  0.24310000  1
  H  H89  1  0.12600000  0.49100000  0.74310000  1
  H  H90  1  0.44430000  0.47040000  0.35730000  1
  H  H91  1  0.05570000  0.47040000  0.85730000  1
  H  H92  1  0.27950000  0.45520000  0.22350000  1
  H  H93  1  0.22050000  0.45520000  0.72350000  1
  H  H94  1  0.29900000  0.44950000  0.83380000  1
  H  H95  1  0.20100000  0.44950000  0.33380000  1
  H  H96  1  0.85090000  0.44340000  0.05530000  1
  H  H97  1  0.64910000  0.44340000  0.55530000  1
  H  H98  1  0.25600000  0.44280000  0.40560000  1
  H  H99  1  0.24400000  0.44280000  0.90560000  1
  H  H100  1  0.35160000  0.42640000  0.49390000  1
  H  H101  1  0.14840000  0.42640000  0.99390000  1
  H  H102  1  0.79330000  0.42440000  0.73390000  1
  H  H103  1  0.70670000  0.42440000  0.23390000  1
  H  H104  1  0.97440000  0.42390000  0.69210000  1
  H  H105  1  0.52560000  0.42390000  0.19210000  1
  H  H106  1  0.47430000  0.39900000  0.31780000  1
  H  H107  1  0.02570000  0.39900000  0.81780000  1
  H  H108  1  0.43240000  0.35220000  0.58360000  1
  H  H109  1  0.06760000  0.35220000  0.08360000  1
  H  H110  1  0.28180000  0.33980000  0.14750000  1
  H  H111  1  0.21820000  0.33980000  0.64750000  1
  H  H112  1  0.25750000  0.33410000  0.78310000  1
  H  H113  1  0.24250000  0.33410000  0.28310000  1
  H  H114  1  0.33490000  0.33170000  0.91660000  1
  H  H115  1  0.16510000  0.33170000  0.41660000  1
  H  H116  1  0.81810000  0.33050000  0.48650000  1
  H  H117  1  0.68190000  0.33050000  0.98650000  1
  H  H118  1  0.95550000  0.32920000  0.60060000  1
  H  H119  1  0.54450000  0.32920000  0.10060000  1
  H  H120  1  0.94640000  0.31970000  0.89820000  1
  H  H121  1  0.55360000  0.31970000  0.39820000  1
  H  H122  1  0.34420000  0.30650000  0.28140000  1
  H  H123  1  0.15580000  0.30650000  0.78140000  1
  H  H124  1  0.75430000  0.30260000  0.19500000  1
  H  H125  1  0.74570000  0.30260000  0.69500000  1
  H  H126  1  0.89140000  0.28170000  0.37860000  1
  H  H127  1  0.60860000  0.28170000  0.87860000  1
  H  H128  1  0.39140000  0.21830000  0.37860000  1
  H  H129  1  0.10860000  0.21830000  0.87860000  1
  H  H130  1  0.25430000  0.19740000  0.19500000  1
  H  H131  1  0.24570000  0.19740000  0.69500000  1
  H  H132  1  0.84420000  0.19350000  0.28140000  1
  H  H133  1  0.65580000  0.19350000  0.78140000  1
  H  H134  1  0.44640000  0.18030000  0.89820000  1
  H  H135  1  0.05360000  0.18030000  0.39820000  1
  H  H136  1  0.45550000  0.17080000  0.60060000  1
  H  H137  1  0.04450000  0.17080000  0.10060000  1
  H  H138  1  0.31810000  0.16950000  0.48650000  1
  H  H139  1  0.18190000  0.16950000  0.98650000  1
  H  H140  1  0.83490000  0.16830000  0.91660000  1
  H  H141  1  0.66510000  0.16830000  0.41660000  1
  H  H142  1  0.75750000  0.16590000  0.78310000  1
  H  H143  1  0.74250000  0.16590000  0.28310000  1
  H  H144  1  0.78180000  0.16020000  0.14750000  1
  H  H145  1  0.71820000  0.16020000  0.64750000  1
  H  H146  1  0.93240000  0.14780000  0.58360000  1
  H  H147  1  0.56760000  0.14780000  0.08360000  1
  H  H148  1  0.97430000  0.10100000  0.31780000  1
  H  H149  1  0.52570000  0.10100000  0.81780000  1
  H  H150  1  0.47440000  0.07610000  0.69210000  1
  H  H151  1  0.02560000  0.07610000  0.19210000  1
  H  H152  1  0.29330000  0.07560000  0.73390000  1
  H  H153  1  0.20670000  0.07560000  0.23390000  1
  H  H154  1  0.85160000  0.07360000  0.49390000  1
  H  H155  1  0.64840000  0.07360000  0.99390000  1
  H  H156  1  0.75600000  0.05720000  0.40560000  1
  H  H157  1  0.74400000  0.05720000  0.90560000  1
  H  H158  1  0.35090000  0.05660000  0.05530000  1
  H  H159  1  0.14910000  0.05660000  0.55530000  1
  H  H160  1  0.79900000  0.05050000  0.83380000  1
  H  H161  1  0.70100000  0.05050000  0.33380000  1
  H  H162  1  0.77950000  0.04480000  0.22350000  1
  H  H163  1  0.72050000  0.04480000  0.72350000  1
  H  H164  1  0.94430000  0.02960000  0.35730000  1
  H  H165  1  0.55570000  0.02960000  0.85730000  1
  H  H166  1  0.87400000  0.00900000  0.24310000  1
  H  H167  1  0.62600000  0.00900000  0.74310000  1
  C  C168  1  0.26003000  0.95900000  0.14377000  1
  C  C169  1  0.23997000  0.95900000  0.64377000  1
  C  C170  1  0.34110000  0.94491000  0.25931000  1
  C  C171  1  0.15890000  0.94491000  0.75931000  1
  C  C172  1  0.82150000  0.92328000  0.40504000  1
  C  C173  1  0.67850000  0.92328000  0.90504000  1
  C  C174  1  0.43010000  0.91893000  0.14855000  1
  C  C175  1  0.06990000  0.91893000  0.64855000  1
  C  C176  1  0.75850000  0.91321000  0.80638000  1
  C  C177  1  0.74150000  0.91321000  0.30638000  1
  C  C178  1  0.33404000  0.91286000  0.18242000  1
  C  C179  1  0.16596000  0.91286000  0.68242000  1
  C  C180  1  0.40150000  0.89570000  0.01431000  1
  C  C181  1  0.09850000  0.89570000  0.51431000  1
  C  C182  1  0.47930000  0.89528000  0.32776000  1
  C  C183  1  0.02070000  0.89528000  0.82776000  1
  C  C184  1  0.44660000  0.85480000  0.96494000  1
  C  C185  1  0.05340000  0.85480000  0.46494000  1
  C  C186  1  0.34480000  0.84835000  0.35266000  1
  C  C187  1  0.15520000  0.84835000  0.85266000  1
  C  C188  1  0.76810000  0.84628000  0.32817000  1
  C  C189  1  0.73190000  0.84628000  0.82817000  1
  C  C190  1  0.48920000  0.84300000  0.37829000  1
  C  C191  1  0.01080000  0.84300000  0.87829000  1
  C  C192  1  0.98670000  0.83650000  0.56677000  1
  C  C193  1  0.51330000  0.83650000  0.06677000  1
  C  C194  1  0.29970000  0.83323000  0.19007000  1
  C  C195  1  0.20030000  0.83323000  0.69007000  1
  C  C196  1  0.28780000  0.79761000  0.57885000  1
  C  C197  1  0.21220000  0.79761000  0.07885000  1
  C  C198  1  0.79660000  0.79166000  0.04095000  1
  C  C199  1  0.70340000  0.79166000  0.54095000  1
  C  C200  1  0.83740000  0.76484000  0.10034000  1
  C  C201  1  0.66260000  0.76484000  0.60034000  1
  C  C202  1  0.33740000  0.73516000  0.10034000  1
  C  C203  1  0.16260000  0.73516000  0.60034000  1
  C  C204  1  0.29660000  0.70834000  0.04095000  1
  C  C205  1  0.20340000  0.70834000  0.54095000  1
  C  C206  1  0.78780000  0.70239000  0.57885000  1
  C  C207  1  0.71220000  0.70239000  0.07885000  1
  C  C208  1  0.79970000  0.66677000  0.19007000  1
  C  C209  1  0.70030000  0.66677000  0.69007000  1
  C  C210  1  0.48670000  0.66350000  0.56677000  1
  C  C211  1  0.01330000  0.66350000  0.06677000  1
  C  C212  1  0.98920000  0.65700000  0.37829000  1
  C  C213  1  0.51080000  0.65700000  0.87829000  1
  C  C214  1  0.26810000  0.65372000  0.32817000  1
  C  C215  1  0.23190000  0.65372000  0.82817000  1
  C  C216  1  0.84480000  0.65165000  0.35266000  1
  C  C217  1  0.65520000  0.65165000  0.85266000  1
  C  C218  1  0.94660000  0.64520000  0.96494000  1
  C  C219  1  0.55340000  0.64520000  0.46494000  1
  C  C220  1  0.97930000  0.60472000  0.32776000  1
  C  C221  1  0.52070000  0.60472000  0.82776000  1
  C  C222  1  0.90150000  0.60430000  0.01431000  1
  C  C223  1  0.59850000  0.60430000  0.51431000  1
  C  C224  1  0.83404000  0.58714000  0.18242000  1
  C  C225  1  0.66596000  0.58714000  0.68242000  1
  C  C226  1  0.25850000  0.58679000  0.80638000  1
  C  C227  1  0.24150000  0.58679000  0.30638000  1
  C  C228  1  0.93010000  0.58107000  0.14855000  1
  C  C229  1  0.56990000  0.58107000  0.64855000  1
  C  C230  1  0.32150000  0.57672000  0.40504000  1
  C  C231  1  0.17850000  0.57672000  0.90504000  1
  C  C232  1  0.84110000  0.55509000  0.25931000  1
  C  C233  1  0.65890000  0.55509000  0.75931000  1
  C  C234  1  0.76003000  0.54100000  0.14377000  1
  C  C235  1  0.73997000  0.54100000  0.64377000  1
  C  C236  1  0.26003000  0.45900000  0.35623000  1
  C  C237  1  0.23997000  0.45900000  0.85623000  1
  C  C238  1  0.34110000  0.44491000  0.24069000  1
  C  C239  1  0.15890000  0.44491000  0.74069000  1
  C  C240  1  0.82150000  0.42328000  0.09496000  1
  C  C241  1  0.67850000  0.42328000  0.59496000  1
  C  C242  1  0.43010000  0.41893000  0.35145000  1
  C  C243  1  0.06990000  0.41893000  0.85145000  1
  C  C244  1  0.75850000  0.41321000  0.69362000  1
  C  C245  1  0.74150000  0.41321000  0.19362000  1
  C  C246  1  0.33404000  0.41286000  0.31758000  1
  C  C247  1  0.16596000  0.41286000  0.81758000  1
  C  C248  1  0.40150000  0.39570000  0.48569000  1
  C  C249  1  0.09850000  0.39570000  0.98569000  1
  C  C250  1  0.47930000  0.39528000  0.17224000  1
  C  C251  1  0.02070000  0.39528000  0.67224000  1
  C  C252  1  0.44660000  0.35480000  0.53506000  1
  C  C253  1  0.05340000  0.35480000  0.03506000  1
  C  C254  1  0.34480000  0.34835000  0.14734000  1
  C  C255  1  0.15520000  0.34835000  0.64734000  1
  C  C256  1  0.76810000  0.34628000  0.17183000  1
  C  C257  1  0.73190000  0.34628000  0.67183000  1
  C  C258  1  0.48920000  0.34300000  0.12171000  1
  C  C259  1  0.01080000  0.34300000  0.62171000  1
  C  C260  1  0.98670000  0.33650000  0.93323000  1
  C  C261  1  0.51330000  0.33650000  0.43323000  1
  C  C262  1  0.29970000  0.33323000  0.30993000  1
  C  C263  1  0.20030000  0.33323000  0.80993000  1
  C  C264  1  0.28780000  0.29761000  0.92115000  1
  C  C265  1  0.21220000  0.29761000  0.42115000  1
  C  C266  1  0.79660000  0.29166000  0.45905000  1
  C  C267  1  0.70340000  0.29166000  0.95905000  1
  C  C268  1  0.83740000  0.26484000  0.39966000  1
  C  C269  1  0.66260000  0.26484000  0.89966000  1
  C  C270  1  0.33740000  0.23516000  0.39966000  1
  C  C271  1  0.16260000  0.23516000  0.89966000  1
  C  C272  1  0.29660000  0.20834000  0.45905000  1
  C  C273  1  0.20340000  0.20834000  0.95905000  1
  C  C274  1  0.78780000  0.20239000  0.92115000  1
  C  C275  1  0.71220000  0.20239000  0.42115000  1
  C  C276  1  0.79970000  0.16677000  0.30993000  1
  C  C277  1  0.70030000  0.16677000  0.80993000  1
  C  C278  1  0.48670000  0.16350000  0.93323000  1
  C  C279  1  0.01330000  0.16350000  0.43323000  1
  C  C280  1  0.98920000  0.15700000  0.12171000  1
  C  C281  1  0.51080000  0.15700000  0.62171000  1
  C  C282  1  0.26810000  0.15372000  0.17183000  1
  C  C283  1  0.23190000  0.15372000  0.67183000  1
  C  C284  1  0.84480000  0.15165000  0.14734000  1
  C  C285  1  0.65520000  0.15165000  0.64734000  1
  C  C286  1  0.94660000  0.14520000  0.53506000  1
  C  C287  1  0.55340000  0.14520000  0.03506000  1
  C  C288  1  0.97930000  0.10472000  0.17224000  1
  C  C289  1  0.52070000  0.10472000  0.67224000  1
  C  C290  1  0.90150000  0.10430000  0.48569000  1
  C  C291  1  0.59850000  0.10430000  0.98569000  1
  C  C292  1  0.83404000  0.08714000  0.31758000  1
  C  C293  1  0.66596000  0.08714000  0.81758000  1
  C  C294  1  0.25850000  0.08679000  0.69362000  1
  C  C295  1  0.24150000  0.08679000  0.19362000  1
  C  C296  1  0.93010000  0.08107000  0.35145000  1
  C  C297  1  0.56990000  0.08107000  0.85145000  1
  C  C298  1  0.32150000  0.07672000  0.09496000  1
  C  C299  1  0.17850000  0.07672000  0.59496000  1
  C  C300  1  0.84110000  0.05509000  0.24069000  1
  C  C301  1  0.65890000  0.05509000  0.74069000  1
  C  C302  1  0.76003000  0.04100000  0.35623000  1
  C  C303  1  0.73997000  0.04100000  0.85623000  1
  N  N304  1  0.77642000  0.96184000  0.35579000  1
  N  N305  1  0.72358000  0.96184000  0.85579000  1
  N  N306  1  0.38722000  0.89786000  0.31138000  1
  N  N307  1  0.11278000  0.89786000  0.81138000  1
  N  N308  1  0.44418000  0.88265000  0.07901000  1
  N  N309  1  0.05582000  0.88265000  0.57901000  1
  N  N310  1  0.81909000  0.85248000  0.39020000  1
  N  N311  1  0.68091000  0.85248000  0.89020000  1
  N  N312  1  0.98297000  0.81775000  0.49853000  1
  N  N313  1  0.51703000  0.81775000  0.99853000  1
  N  N314  1  0.40435000  0.81333000  0.39362000  1
  N  N315  1  0.09565000  0.81333000  0.89362000  1
  N  N316  1  0.28387000  0.79215000  0.12354000  1
  N  N317  1  0.21613000  0.79215000  0.62354000  1
  N  N318  1  0.78257000  0.75185000  0.52750000  1
  N  N319  1  0.71743000  0.75185000  0.02750000  1
  N  N320  1  0.28257000  0.74815000  0.52750000  1
  N  N321  1  0.21743000  0.74815000  0.02750000  1
  N  N322  1  0.78387000  0.70785000  0.12354000  1
  N  N323  1  0.71613000  0.70785000  0.62354000  1
  N  N324  1  0.90435000  0.68667000  0.39362000  1
  N  N325  1  0.59565000  0.68667000  0.89362000  1
  N  N326  1  0.48297000  0.68225000  0.49853000  1
  N  N327  1  0.01703000  0.68225000  0.99853000  1
  N  N328  1  0.31909000  0.64752000  0.39020000  1
  N  N329  1  0.18091000  0.64752000  0.89020000  1
  N  N330  1  0.94418000  0.61735000  0.07901000  1
  N  N331  1  0.55582000  0.61735000  0.57901000  1
  N  N332  1  0.88722000  0.60214000  0.31138000  1
  N  N333  1  0.61278000  0.60214000  0.81138000  1
  N  N334  1  0.27642000  0.53816000  0.35579000  1
  N  N335  1  0.22358000  0.53816000  0.85579000  1
  N  N336  1  0.77642000  0.46184000  0.14421000  1
  N  N337  1  0.72358000  0.46184000  0.64421000  1
  N  N338  1  0.38722000  0.39786000  0.18862000  1
  N  N339  1  0.11278000  0.39786000  0.68862000  1
  N  N340  1  0.44418000  0.38265000  0.42099000  1
  N  N341  1  0.05582000  0.38265000  0.92099000  1
  N  N342  1  0.81909000  0.35248000  0.10980000  1
  N  N343  1  0.68091000  0.35248000  0.60980000  1
  N  N344  1  0.98297000  0.31775000  0.00147000  1
  N  N345  1  0.51703000  0.31775000  0.50147000  1
  N  N346  1  0.40435000  0.31333000  0.10638000  1
  N  N347  1  0.09565000  0.31333000  0.60638000  1
  N  N348  1  0.28387000  0.29215000  0.37646000  1
  N  N349  1  0.21613000  0.29215000  0.87646000  1
  N  N350  1  0.78257000  0.25185000  0.97250000  1
  N  N351  1  0.71743000  0.25185000  0.47250000  1
  N  N352  1  0.28257000  0.24815000  0.97250000  1
  N  N353  1  0.21743000  0.24815000  0.47250000  1
  N  N354  1  0.78387000  0.20785000  0.37646000  1
  N  N355  1  0.71613000  0.20785000  0.87646000  1
  N  N356  1  0.90435000  0.18667000  0.10638000  1
  N  N357  1  0.59565000  0.18667000  0.60638000  1
  N  N358  1  0.48297000  0.18225000  0.00147000  1
  N  N359  1  0.01703000  0.18225000  0.50147000  1
  N  N360  1  0.31909000  0.14752000  0.10980000  1
  N  N361  1  0.18091000  0.14752000  0.60980000  1
  N  N362  1  0.94418000  0.11735000  0.42099000  1
  N  N363  1  0.55582000  0.11735000  0.92099000  1
  N  N364  1  0.88722000  0.10214000  0.18862000  1
  N  N365  1  0.61278000  0.10214000  0.68862000  1
  N  N366  1  0.27642000  0.03816000  0.14421000  1
  N  N367  1  0.22358000  0.03816000  0.64421000  1
