# generated using pymatgen
data_AgH8(CN)2
_symmetry_space_group_name_H-M   'P 1'
_cell_length_a   6.28320000
_cell_length_b   7.40466686
_cell_length_c   7.40466686
_cell_angle_alpha   90.75998941
_cell_angle_beta   107.30836281
_cell_angle_gamma   107.30836281
_symmetry_Int_Tables_number   1
_chemical_formula_structural   AgH8(CN)2
_chemical_formula_sum   'Ag2 H16 C4 N4'
_cell_volume   312.04488966
_cell_formula_units_Z   2
loop_
 _symmetry_equiv_pos_site_id
 _symmetry_equiv_pos_as_xyz
  1  'x, y, z'
loop_
 _atom_site_type_symbol
 _atom_site_label
 _atom_site_symmetry_multiplicity
 _atom_site_fract_x
 _atom_site_fract_y
 _atom_site_fract_z
 _atom_site_occupancy
  Ag  Ag0  1  1.00000000  0.50000000  0.50000000  1
  Ag  Ag1  1  0.50000000  0.50000000  0.50000000  1
  C  C2  1  0.54590000  0.52720000  0.10620000  1
  C  C3  1  0.04590000  0.10620000  0.52720000  1
  C  C4  1  0.45410000  0.47280000  0.89380000  1
  C  C5  1  0.95410000  0.89380000  0.47280000  1
  H  H6  1  0.57550000  0.66270000  0.13230000  1
  H  H7  1  0.07550000  0.13230000  0.66270000  1
  H  H8  1  0.69390000  0.50170000  0.15730000  1
  H  H9  1  0.19390000  0.15730000  0.50170000  1
  H  H10  1  0.24240000  0.44380000  0.15180000  1
  H  H11  1  0.74240000  0.15180000  0.44380000  1
  H  H12  1  0.64390000  0.70290000  0.82050000  1
  H  H13  1  0.14390000  0.82050000  0.70290000  1
  H  H14  1  0.35610000  0.29710000  0.17950000  1
  H  H15  1  0.85610000  0.17950000  0.29710000  1
  H  H16  1  0.75760000  0.55620000  0.84820000  1
  H  H17  1  0.25760000  0.84820000  0.55620000  1
  H  H18  1  0.30610000  0.49830000  0.84270000  1
  H  H19  1  0.80610000  0.84270000  0.49830000  1
  H  H20  1  0.42450000  0.33730000  0.86770000  1
  H  H21  1  0.92450000  0.86770000  0.33730000  1
  N  N22  1  0.38080000  0.42250000  0.20210000  1
  N  N23  1  0.88080000  0.20210000  0.42250000  1
  N  N24  1  0.61920000  0.57750000  0.79790000  1
  N  N25  1  0.11920000  0.79790000  0.57750000  1
