# generated using pymatgen
data_AgH6C4N3
_symmetry_space_group_name_H-M   'P 1'
_cell_length_a   11.65630000
_cell_length_b   11.93180000
_cell_length_c   21.38660000
_cell_angle_alpha   90.00000000
_cell_angle_beta   90.00000000
_cell_angle_gamma   113.84400000
_symmetry_Int_Tables_number   1
_chemical_formula_structural   AgH6C4N3
_chemical_formula_sum   'Ag16 H96 C64 N48'
_cell_volume   2720.59019453
_cell_formula_units_Z   16
loop_
 _symmetry_equiv_pos_site_id
 _symmetry_equiv_pos_as_xyz
  1  'x, y, z'
loop_
 _atom_site_type_symbol
 _atom_site_label
 _atom_site_symmetry_multiplicity
 _atom_site_fract_x
 _atom_site_fract_y
 _atom_site_fract_z
 _atom_site_occupancy
  Ag  Ag0  1  0.03427000  0.58794000  0.31382000  1
  Ag  Ag1  1  0.05504000  0.09894000  0.68632000  1
  Ag  Ag2  1  0.14103000  0.81845000  0.44771000  1
  Ag  Ag3  1  0.15085000  0.32355000  0.55290000  1
  Ag  Ag4  1  0.34915000  0.67645000  0.05290000  1
  Ag  Ag5  1  0.35897000  0.18155000  0.94771000  1
  Ag  Ag6  1  0.44496000  0.90106000  0.18632000  1
  Ag  Ag7  1  0.46573000  0.41206000  0.81382000  1
  Ag  Ag8  1  0.53427000  0.58794000  0.18618000  1
  Ag  Ag9  1  0.55504000  0.09894000  0.81368000  1
  Ag  Ag10  1  0.64103000  0.81845000  0.05229000  1
  Ag  Ag11  1  0.65085000  0.32355000  0.94710000  1
  Ag  Ag12  1  0.84915000  0.67645000  0.44710000  1
  Ag  Ag13  1  0.85897000  0.18155000  0.55229000  1
  Ag  Ag14  1  0.94496000  0.90106000  0.31368000  1
  Ag  Ag15  1  0.96573000  0.41206000  0.68618000  1
  H  H16  1  0.02080000  0.00240000  0.13200000  1
  H  H17  1  0.03550000  0.90280000  0.08880000  1
  H  H18  1  0.03720000  0.51130000  0.87020000  1
  H  H19  1  0.04070000  0.67910000  0.17840000  1
  H  H20  1  0.05260000  0.41180000  0.91310000  1
  H  H21  1  0.05550000  0.54490000  0.07400000  1
  H  H22  1  0.06210000  0.18980000  0.82040000  1
  H  H23  1  0.07050000  0.05130000  0.92460000  1
  H  H24  1  0.10310000  0.38420000  0.40480000  1
  H  H25  1  0.11500000  0.34890000  0.06400000  1
  H  H26  1  0.12660000  0.23130000  0.03760000  1
  H  H27  1  0.13330000  0.89710000  0.59630000  1
  H  H28  1  0.13390000  0.25520000  0.10990000  1
  H  H29  1  0.13540000  0.73270000  0.12320000  1
  H  H30  1  0.13940000  0.73950000  0.94390000  1
  H  H31  1  0.14120000  0.86330000  0.91830000  1
  H  H32  1  0.14480000  0.06740000  0.40020000  1
  H  H33  1  0.14710000  0.19080000  0.42670000  1
  H  H34  1  0.15560000  0.24060000  0.87640000  1
  H  H35  1  0.16950000  0.77390000  0.87330000  1
  H  H36  1  0.17070000  0.69650000  0.57250000  1
  H  H37  1  0.18260000  0.57830000  0.59740000  1
  H  H38  1  0.18800000  0.96030000  0.21330000  1
  H  H39  1  0.20460000  0.46130000  0.78710000  1
  H  H40  1  0.29540000  0.53870000  0.28710000  1
  H  H41  1  0.31200000  0.03970000  0.71330000  1
  H  H42  1  0.31740000  0.42170000  0.09740000  1
  H  H43  1  0.32930000  0.30350000  0.07250000  1
  H  H44  1  0.33050000  0.22610000  0.37330000  1
  H  H45  1  0.34440000  0.75940000  0.37640000  1
  H  H46  1  0.35290000  0.80920000  0.92670000  1
  H  H47  1  0.35520000  0.93260000  0.90020000  1
  H  H48  1  0.35880000  0.13670000  0.41830000  1
  H  H49  1  0.36060000  0.26050000  0.44390000  1
  H  H50  1  0.36460000  0.26730000  0.62320000  1
  H  H51  1  0.36610000  0.74480000  0.60990000  1
  H  H52  1  0.36670000  0.10290000  0.09630000  1
  H  H53  1  0.37340000  0.76870000  0.53760000  1
  H  H54  1  0.38500000  0.65110000  0.56400000  1
  H  H55  1  0.39690000  0.61580000  0.90480000  1
  H  H56  1  0.42950000  0.94870000  0.42460000  1
  H  H57  1  0.43790000  0.81020000  0.32040000  1
  H  H58  1  0.44450000  0.45510000  0.57400000  1
  H  H59  1  0.44740000  0.58820000  0.41310000  1
  H  H60  1  0.45930000  0.32090000  0.67840000  1
  H  H61  1  0.46280000  0.48870000  0.37020000  1
  H  H62  1  0.46450000  0.09720000  0.58880000  1
  H  H63  1  0.47920000  0.99760000  0.63200000  1
  H  H64  1  0.52080000  0.00240000  0.36800000  1
  H  H65  1  0.53550000  0.90280000  0.41120000  1
  H  H66  1  0.53720000  0.51130000  0.62980000  1
  H  H67  1  0.54070000  0.67910000  0.32160000  1
  H  H68  1  0.55260000  0.41180000  0.58690000  1
  H  H69  1  0.55550000  0.54490000  0.42600000  1
  H  H70  1  0.56210000  0.18980000  0.67960000  1
  H  H71  1  0.57050000  0.05130000  0.57540000  1
  H  H72  1  0.60310000  0.38420000  0.09520000  1
  H  H73  1  0.61500000  0.34890000  0.43600000  1
  H  H74  1  0.62660000  0.23130000  0.46240000  1
  H  H75  1  0.63330000  0.89710000  0.90370000  1
  H  H76  1  0.63390000  0.25520000  0.39010000  1
  H  H77  1  0.63540000  0.73270000  0.37680000  1
  H  H78  1  0.63940000  0.73950000  0.55610000  1
  H  H79  1  0.64120000  0.86330000  0.58170000  1
  H  H80  1  0.64480000  0.06740000  0.09980000  1
  H  H81  1  0.64710000  0.19080000  0.07330000  1
  H  H82  1  0.65560000  0.24060000  0.62360000  1
  H  H83  1  0.66950000  0.77390000  0.62670000  1
  H  H84  1  0.67070000  0.69650000  0.92750000  1
  H  H85  1  0.68260000  0.57830000  0.90260000  1
  H  H86  1  0.68800000  0.96030000  0.28670000  1
  H  H87  1  0.70460000  0.46130000  0.71290000  1
  H  H88  1  0.79540000  0.53870000  0.21290000  1
  H  H89  1  0.81200000  0.03970000  0.78670000  1
  H  H90  1  0.81740000  0.42170000  0.40260000  1
  H  H91  1  0.82930000  0.30350000  0.42750000  1
  H  H92  1  0.83050000  0.22610000  0.12670000  1
  H  H93  1  0.84440000  0.75940000  0.12360000  1
  H  H94  1  0.85290000  0.80920000  0.57330000  1
  H  H95  1  0.85520000  0.93260000  0.59980000  1
  H  H96  1  0.85880000  0.13670000  0.08170000  1
  H  H97  1  0.86060000  0.26050000  0.05610000  1
  H  H98  1  0.86460000  0.26730000  0.87680000  1
  H  H99  1  0.86610000  0.74480000  0.89010000  1
  H  H100  1  0.86670000  0.10290000  0.40370000  1
  H  H101  1  0.87340000  0.76870000  0.96240000  1
  H  H102  1  0.88500000  0.65110000  0.93600000  1
  H  H103  1  0.89690000  0.61580000  0.59520000  1
  H  H104  1  0.92950000  0.94870000  0.07540000  1
  H  H105  1  0.93790000  0.81020000  0.17960000  1
  H  H106  1  0.94450000  0.45510000  0.92600000  1
  H  H107  1  0.94740000  0.58820000  0.08690000  1
  H  H108  1  0.95930000  0.32090000  0.82160000  1
  H  H109  1  0.96280000  0.48870000  0.12980000  1
  H  H110  1  0.96450000  0.09720000  0.91120000  1
  H  H111  1  0.97920000  0.99760000  0.86800000  1
  C  C112  1  0.00680000  0.56170000  0.10590000  1
  C  C113  1  0.02340000  0.06980000  0.89240000  1
  C  C114  1  0.09120000  0.65960000  0.14780000  1
  C  C115  1  0.11090000  0.16830000  0.85123000  1
  C  C116  1  0.11910000  0.45450000  0.42832000  1
  C  C117  1  0.13950000  0.96360000  0.57170000  1
  C  C118  1  0.15490000  0.29320000  0.06950000  1
  C  C119  1  0.16220000  0.07880000  0.49482000  1
  C  C120  1  0.16610000  0.57910000  0.50318000  1
  C  C121  1  0.17930000  0.80560000  0.91510000  1
  C  C122  1  0.18510000  0.13230000  0.43033000  1
  C  C123  1  0.18530000  0.62570000  0.18145000  1
  C  C124  1  0.20390000  0.13300000  0.81814000  1
  C  C125  1  0.20570000  0.92970000  0.25038000  1
  C  C126  1  0.21010000  0.64010000  0.56490000  1
  C  C127  1  0.22320000  0.43250000  0.74966000  1
  C  C128  1  0.27680000  0.56750000  0.24966000  1
  C  C129  1  0.28990000  0.35990000  0.06490000  1
  C  C130  1  0.29430000  0.07030000  0.75038000  1
  C  C131  1  0.29610000  0.86700000  0.31814000  1
  C  C132  1  0.31470000  0.37430000  0.68145000  1
  C  C133  1  0.31490000  0.86770000  0.93033000  1
  C  C134  1  0.32070000  0.19440000  0.41510000  1
  C  C135  1  0.33390000  0.42090000  0.00318000  1
  C  C136  1  0.33780000  0.92120000  0.99482000  1
  C  C137  1  0.34510000  0.70680000  0.56950000  1
  C  C138  1  0.36050000  0.03640000  0.07170000  1
  C  C139  1  0.38090000  0.54550000  0.92832000  1
  C  C140  1  0.38910000  0.83170000  0.35123000  1
  C  C141  1  0.40880000  0.34040000  0.64780000  1
  C  C142  1  0.47660000  0.93020000  0.39240000  1
  C  C143  1  0.49320000  0.43830000  0.60590000  1
  C  C144  1  0.50680000  0.56170000  0.39410000  1
  C  C145  1  0.52340000  0.06980000  0.60760000  1
  C  C146  1  0.59120000  0.65960000  0.35220000  1
  C  C147  1  0.61090000  0.16830000  0.64877000  1
  C  C148  1  0.61910000  0.45450000  0.07168000  1
  C  C149  1  0.63950000  0.96360000  0.92830000  1
  C  C150  1  0.65490000  0.29320000  0.43050000  1
  C  C151  1  0.66220000  0.07880000  0.00518000  1
  C  C152  1  0.66610000  0.57910000  0.99682000  1
  C  C153  1  0.67930000  0.80560000  0.58490000  1
  C  C154  1  0.68510000  0.13230000  0.06967000  1
  C  C155  1  0.68530000  0.62570000  0.31855000  1
  C  C156  1  0.70390000  0.13300000  0.68186000  1
  C  C157  1  0.70570000  0.92970000  0.24962000  1
  C  C158  1  0.71010000  0.64010000  0.93510000  1
  C  C159  1  0.72320000  0.43250000  0.75034000  1
  C  C160  1  0.77680000  0.56750000  0.25034000  1
  C  C161  1  0.78990000  0.35990000  0.43510000  1
  C  C162  1  0.79430000  0.07030000  0.74962000  1
  C  C163  1  0.79610000  0.86700000  0.18186000  1
  C  C164  1  0.81470000  0.37430000  0.81855000  1
  C  C165  1  0.81490000  0.86770000  0.56967000  1
  C  C166  1  0.82070000  0.19440000  0.08490000  1
  C  C167  1  0.83390000  0.42090000  0.49682000  1
  C  C168  1  0.83780000  0.92120000  0.50518000  1
  C  C169  1  0.84510000  0.70680000  0.93050000  1
  C  C170  1  0.86050000  0.03640000  0.42830000  1
  C  C171  1  0.88090000  0.54550000  0.57168000  1
  C  C172  1  0.88910000  0.83170000  0.14877000  1
  C  C173  1  0.90880000  0.34040000  0.85220000  1
  C  C174  1  0.97660000  0.93020000  0.10760000  1
  C  C175  1  0.99320000  0.43830000  0.89410000  1
  N  N176  1  0.10840000  0.55200000  0.40615000  1
  N  N177  1  0.13040000  0.06170000  0.59443000  1
  N  N178  1  0.13060000  0.90120000  0.29892000  1
  N  N179  1  0.13940000  0.63410000  0.45502000  1
  N  N180  1  0.14600000  0.13790000  0.54372000  1
  N  N181  1  0.14860000  0.40550000  0.70072000  1
  N  N182  1  0.15570000  0.46590000  0.48867000  1
  N  N183  1  0.15860000  0.96800000  0.50975000  1
  N  N184  1  0.17120000  0.58520000  0.24064000  1
  N  N185  1  0.18910000  0.08970000  0.75909000  1
  N  N186  1  0.18960000  0.85960000  0.34373000  1
  N  N187  1  0.20850000  0.36660000  0.65569000  1
  N  N188  1  0.29150000  0.63340000  0.15569000  1
  N  N189  1  0.31040000  0.14040000  0.84373000  1
  N  N190  1  0.31090000  0.91030000  0.25909000  1
  N  N191  1  0.32880000  0.41480000  0.74064000  1
  N  N192  1  0.34140000  0.03200000  0.00975000  1
  N  N193  1  0.34430000  0.53410000  0.98867000  1
  N  N194  1  0.35140000  0.59450000  0.20072000  1
  N  N195  1  0.35400000  0.86210000  0.04372000  1
  N  N196  1  0.36060000  0.36590000  0.95502000  1
  N  N197  1  0.36940000  0.09880000  0.79892000  1
  N  N198  1  0.36960000  0.93830000  0.09443000  1
  N  N199  1  0.39160000  0.44800000  0.90615000  1
  N  N200  1  0.60840000  0.55200000  0.09385000  1
  N  N201  1  0.63040000  0.06170000  0.90557000  1
  N  N202  1  0.63060000  0.90120000  0.20108000  1
  N  N203  1  0.63940000  0.63410000  0.04498000  1
  N  N204  1  0.64600000  0.13790000  0.95628000  1
  N  N205  1  0.64860000  0.40550000  0.79928000  1
  N  N206  1  0.65570000  0.46590000  0.01133000  1
  N  N207  1  0.65860000  0.96800000  0.99025000  1
  N  N208  1  0.67120000  0.58520000  0.25936000  1
  N  N209  1  0.68910000  0.08970000  0.74091000  1
  N  N210  1  0.68960000  0.85960000  0.15627000  1
  N  N211  1  0.70850000  0.36660000  0.84431000  1
  N  N212  1  0.79150000  0.63340000  0.34431000  1
  N  N213  1  0.81040000  0.14040000  0.65627000  1
  N  N214  1  0.81090000  0.91030000  0.24091000  1
  N  N215  1  0.82880000  0.41480000  0.75936000  1
  N  N216  1  0.84140000  0.03200000  0.49025000  1
  N  N217  1  0.84430000  0.53410000  0.51133000  1
  N  N218  1  0.85140000  0.59450000  0.29928000  1
  N  N219  1  0.85400000  0.86210000  0.45628000  1
  N  N220  1  0.86060000  0.36590000  0.54498000  1
  N  N221  1  0.86940000  0.09880000  0.70108000  1
  N  N222  1  0.86960000  0.93830000  0.40557000  1
  N  N223  1  0.89160000  0.44800000  0.59385000  1
