# generated using pymatgen
data_Zn3H12C20(N3O4)2
_symmetry_space_group_name_H-M   'P 1'
_cell_length_a   9.17430000
_cell_length_b   10.84880000
_cell_length_c   11.34580000
_cell_angle_alpha   113.47900000
_cell_angle_beta   98.72600000
_cell_angle_gamma   98.01600000
_symmetry_Int_Tables_number   1
_chemical_formula_structural   Zn3H12C20(N3O4)2
_chemical_formula_sum   'Zn3 H12 C20 N6 O8'
_cell_volume   998.57024378
_cell_formula_units_Z   1
loop_
 _symmetry_equiv_pos_site_id
 _symmetry_equiv_pos_as_xyz
  1  'x, y, z'
loop_
 _atom_site_type_symbol
 _atom_site_label
 _atom_site_symmetry_multiplicity
 _atom_site_fract_x
 _atom_site_fract_y
 _atom_site_fract_z
 _atom_site_occupancy
  Zn  Zn0  1  0.18035000  0.61329000  0.61399000  1
  Zn  Zn1  1  0.50000000  0.50000000  0.50000000  1
  Zn  Zn2  1  0.81965000  0.38671000  0.38601000  1
  H  H3  1  0.00020000  0.78730000  0.82610000  1
  H  H4  1  0.27390000  0.25610000  0.21560000  1
  H  H5  1  0.27940000  0.00600000  0.57650000  1
  H  H6  1  0.32080000  0.62990000  0.99690000  1
  H  H7  1  0.37910000  0.17890000  0.52170000  1
  H  H8  1  0.40740000  0.60600000  0.18560000  1
  H  H9  1  0.59260000  0.39400000  0.81440000  1
  H  H10  1  0.62090000  0.82110000  0.47830000  1
  H  H11  1  0.67920000  0.37010000  0.00310000  1
  H  H12  1  0.72060000  0.99400000  0.42350000  1
  H  H13  1  0.72610000  0.74390000  0.78440000  1
  H  H14  1  0.99980000  0.21270000  0.17390000  1
  C  C15  1  0.06670000  0.28030000  0.24960000  1
  C  C16  1  0.21770000  0.30400000  0.27280000  1
  C  C17  1  0.36790000  0.00370000  0.54590000  1
  C  C18  1  0.37890000  0.78330000  0.56740000  1
  C  C19  1  0.39220000  0.52920000  0.76140000  1
  C  C20  1  0.39280000  0.57770000  0.99830000  1
  C  C21  1  0.42780000  0.10710000  0.51280000  1
  C  C22  1  0.44230000  0.89530000  0.53270000  1
  C  C23  1  0.44450000  0.56350000  0.11100000  1
  C  C24  1  0.44700000  0.51450000  0.88560000  1
  C  C25  1  0.55300000  0.48550000  0.11440000  1
  C  C26  1  0.55550000  0.43650000  0.88900000  1
  C  C27  1  0.55770000  0.10470000  0.46730000  1
  C  C28  1  0.57220000  0.89290000  0.48720000  1
  C  C29  1  0.60720000  0.42230000  0.00170000  1
  C  C30  1  0.60780000  0.47080000  0.23860000  1
  C  C31  1  0.62110000  0.21670000  0.43260000  1
  C  C32  1  0.63210000  0.99630000  0.45410000  1
  C  C33  1  0.78230000  0.69600000  0.72720000  1
  C  C34  1  0.93330000  0.71970000  0.75040000  1
  N  N35  1  0.02860000  0.37110000  0.35490000  1
  N  N36  1  0.15750000  0.44870000  0.44130000  1
  N  N37  1  0.27430000  0.40930000  0.39300000  1
  N  N38  1  0.72570000  0.59070000  0.60700000  1
  N  N39  1  0.84250000  0.55130000  0.55870000  1
  N  N40  1  0.97140000  0.62890000  0.64510000  1
  O  O41  1  0.24990000  0.78190000  0.59430000  1
  O  O42  1  0.28460000  0.59390000  0.76380000  1
  O  O43  1  0.44960000  0.47730000  0.66620000  1
  O  O44  1  0.45520000  0.69720000  0.57020000  1
  O  O45  1  0.54480000  0.30280000  0.42980000  1
  O  O46  1  0.55040000  0.52270000  0.33380000  1
  O  O47  1  0.71540000  0.40610000  0.23620000  1
  O  O48  1  0.75010000  0.21810000  0.40570000  1
