# generated using pymatgen
data_Al3H9C24N3O13
_symmetry_space_group_name_H-M   'P 1'
_cell_length_a   21.49340000
_cell_length_b   21.49340000
_cell_length_c   21.49340000
_cell_angle_alpha   90.00000000
_cell_angle_beta   90.00000000
_cell_angle_gamma   90.00000000
_symmetry_Int_Tables_number   1
_chemical_formula_structural   Al3H9C24N3O13
_chemical_formula_sum   'Al24 H72 C192 N24 O104'
_cell_volume   9929.22525933
_cell_formula_units_Z   8
loop_
 _symmetry_equiv_pos_site_id
 _symmetry_equiv_pos_as_xyz
  1  'x, y, z'
loop_
 _atom_site_type_symbol
 _atom_site_label
 _atom_site_symmetry_multiplicity
 _atom_site_fract_x
 _atom_site_fract_y
 _atom_site_fract_z
 _atom_site_occupancy
  Al  Al0  1  0.18077000  0.30148000  0.76072000  1
  Al  Al1  1  0.18077000  0.69852000  0.23928000  1
  Al  Al2  1  0.19852000  0.31923000  0.26072000  1
  Al  Al3  1  0.19852000  0.68077000  0.73928000  1
  Al  Al4  1  0.23928000  0.18077000  0.69852000  1
  Al  Al5  1  0.23928000  0.81923000  0.30148000  1
  Al  Al6  1  0.26072000  0.19852000  0.31923000  1
  Al  Al7  1  0.26072000  0.80148000  0.68077000  1
  Al  Al8  1  0.30148000  0.23928000  0.81923000  1
  Al  Al9  1  0.30148000  0.76072000  0.18077000  1
  Al  Al10  1  0.31923000  0.26072000  0.19852000  1
  Al  Al11  1  0.31923000  0.73928000  0.80148000  1
  Al  Al12  1  0.68077000  0.26072000  0.80148000  1
  Al  Al13  1  0.68077000  0.73928000  0.19852000  1
  Al  Al14  1  0.69852000  0.23928000  0.18077000  1
  Al  Al15  1  0.69852000  0.76072000  0.81923000  1
  Al  Al16  1  0.73928000  0.19852000  0.68077000  1
  Al  Al17  1  0.73928000  0.80148000  0.31923000  1
  Al  Al18  1  0.76072000  0.18077000  0.30148000  1
  Al  Al19  1  0.76072000  0.81923000  0.69852000  1
  Al  Al20  1  0.80148000  0.31923000  0.73928000  1
  Al  Al21  1  0.80148000  0.68077000  0.26072000  1
  Al  Al22  1  0.81923000  0.30148000  0.23928000  1
  Al  Al23  1  0.81923000  0.69852000  0.76072000  1
  H  H24  1  0.00890000  0.24840000  0.26990000  1
  H  H25  1  0.00890000  0.75160000  0.73010000  1
  H  H26  1  0.07810000  0.08450000  0.70030000  1
  H  H27  1  0.07810000  0.91550000  0.29970000  1
  H  H28  1  0.08450000  0.29970000  0.92190000  1
  H  H29  1  0.08450000  0.70030000  0.07810000  1
  H  H30  1  0.09500000  0.31130000  0.10960000  1
  H  H31  1  0.09500000  0.68870000  0.89040000  1
  H  H32  1  0.10960000  0.09500000  0.31130000  1
  H  H33  1  0.10960000  0.90500000  0.68870000  1
  H  H34  1  0.18870000  0.40500000  0.60960000  1
  H  H35  1  0.18870000  0.59500000  0.39040000  1
  H  H36  1  0.20030000  0.41550000  0.42190000  1
  H  H37  1  0.20030000  0.58450000  0.57810000  1
  H  H38  1  0.23010000  0.25160000  0.50890000  1
  H  H39  1  0.23010000  0.74840000  0.49110000  1
  H  H40  1  0.24840000  0.26990000  0.00890000  1
  H  H41  1  0.24840000  0.73010000  0.99110000  1
  H  H42  1  0.25160000  0.49110000  0.76990000  1
  H  H43  1  0.25160000  0.50890000  0.23010000  1
  H  H44  1  0.26990000  0.00890000  0.24840000  1
  H  H45  1  0.26990000  0.99110000  0.75160000  1
  H  H46  1  0.29970000  0.07810000  0.91550000  1
  H  H47  1  0.29970000  0.92190000  0.08450000  1
  H  H48  1  0.31130000  0.10960000  0.09500000  1
  H  H49  1  0.31130000  0.89040000  0.90500000  1
  H  H50  1  0.39040000  0.18870000  0.59500000  1
  H  H51  1  0.39040000  0.81130000  0.40500000  1
  H  H52  1  0.40500000  0.39040000  0.81130000  1
  H  H53  1  0.40500000  0.60960000  0.18870000  1
  H  H54  1  0.41550000  0.42190000  0.20030000  1
  H  H55  1  0.41550000  0.57810000  0.79970000  1
  H  H56  1  0.42190000  0.20030000  0.41550000  1
  H  H57  1  0.42190000  0.79970000  0.58450000  1
  H  H58  1  0.49110000  0.23010000  0.74840000  1
  H  H59  1  0.49110000  0.76990000  0.25160000  1
  H  H60  1  0.50890000  0.23010000  0.25160000  1
  H  H61  1  0.50890000  0.76990000  0.74840000  1
  H  H62  1  0.57810000  0.20030000  0.58450000  1
  H  H63  1  0.57810000  0.79970000  0.41550000  1
  H  H64  1  0.58450000  0.42190000  0.79970000  1
  H  H65  1  0.58450000  0.57810000  0.20030000  1
  H  H66  1  0.59500000  0.39040000  0.18870000  1
  H  H67  1  0.59500000  0.60960000  0.81130000  1
  H  H68  1  0.60960000  0.18870000  0.40500000  1
  H  H69  1  0.60960000  0.81130000  0.59500000  1
  H  H70  1  0.68870000  0.10960000  0.90500000  1
  H  H71  1  0.68870000  0.89040000  0.09500000  1
  H  H72  1  0.70030000  0.07810000  0.08450000  1
  H  H73  1  0.70030000  0.92190000  0.91550000  1
  H  H74  1  0.73010000  0.00890000  0.75160000  1
  H  H75  1  0.73010000  0.99110000  0.24840000  1
  H  H76  1  0.74840000  0.49110000  0.23010000  1
  H  H77  1  0.74840000  0.50890000  0.76990000  1
  H  H78  1  0.75160000  0.26990000  0.99110000  1
  H  H79  1  0.75160000  0.73010000  0.00890000  1
  H  H80  1  0.76990000  0.25160000  0.49110000  1
  H  H81  1  0.76990000  0.74840000  0.50890000  1
  H  H82  1  0.79970000  0.41550000  0.57810000  1
  H  H83  1  0.79970000  0.58450000  0.42190000  1
  H  H84  1  0.81130000  0.40500000  0.39040000  1
  H  H85  1  0.81130000  0.59500000  0.60960000  1
  H  H86  1  0.89040000  0.09500000  0.68870000  1
  H  H87  1  0.89040000  0.90500000  0.31130000  1
  H  H88  1  0.90500000  0.31130000  0.89040000  1
  H  H89  1  0.90500000  0.68870000  0.10960000  1
  H  H90  1  0.91550000  0.29970000  0.07810000  1
  H  H91  1  0.91550000  0.70030000  0.92190000  1
  H  H92  1  0.92190000  0.08450000  0.29970000  1
  H  H93  1  0.92190000  0.91550000  0.70030000  1
  H  H94  1  0.99110000  0.24840000  0.73010000  1
  H  H95  1  0.99110000  0.75160000  0.26990000  1
  C  C96  1  0.01089000  0.20565000  0.28111000  1
  C  C97  1  0.01089000  0.79435000  0.71889000  1
  C  C98  1  0.01682000  0.07971000  0.30700000  1
  C  C99  1  0.01682000  0.92029000  0.69300000  1
  C  C100  1  0.04091000  0.10828000  0.70230000  1
  C  C101  1  0.04091000  0.89172000  0.29770000  1
  C  C102  1  0.04330000  0.16993000  0.71435000  1
  C  C103  1  0.04330000  0.83007000  0.28565000  1
  C  C104  1  0.06837000  0.17701000  0.29347000  1
  C  C105  1  0.06837000  0.82299000  0.70653000  1
  C  C106  1  0.07052000  0.11461000  0.30480000  1
  C  C107  1  0.07052000  0.88539000  0.69520000  1
  C  C108  1  0.07971000  0.30700000  0.01682000  1
  C  C109  1  0.07971000  0.69300000  0.98318000  1
  C  C110  1  0.10654000  0.19911000  0.72341000  1
  C  C111  1  0.10654000  0.80089000  0.27659000  1
  C  C112  1  0.10828000  0.29770000  0.95909000  1
  C  C113  1  0.10828000  0.70230000  0.04091000  1
  C  C114  1  0.11461000  0.30480000  0.07052000  1
  C  C115  1  0.11461000  0.69520000  0.92948000  1
  C  C116  1  0.12813000  0.21191000  0.29281000  1
  C  C117  1  0.12813000  0.78809000  0.70719000  1
  C  C118  1  0.16993000  0.28565000  0.95670000  1
  C  C119  1  0.16993000  0.71435000  0.04330000  1
  C  C120  1  0.17701000  0.29347000  0.06837000  1
  C  C121  1  0.17701000  0.70653000  0.93163000  1
  C  C122  1  0.19300000  0.42029000  0.51682000  1
  C  C123  1  0.19300000  0.57971000  0.48318000  1
  C  C124  1  0.19520000  0.38539000  0.57052000  1
  C  C125  1  0.19520000  0.61461000  0.42948000  1
  C  C126  1  0.19911000  0.27659000  0.89346000  1
  C  C127  1  0.19911000  0.72341000  0.10654000  1
  C  C128  1  0.20230000  0.39172000  0.45909000  1
  C  C129  1  0.20230000  0.60828000  0.54091000  1
  C  C130  1  0.20565000  0.28111000  0.01089000  1
  C  C131  1  0.20565000  0.71889000  0.98911000  1
  C  C132  1  0.20653000  0.32299000  0.56837000  1
  C  C133  1  0.20653000  0.67701000  0.43163000  1
  C  C134  1  0.20719000  0.28809000  0.62813000  1
  C  C135  1  0.20719000  0.71191000  0.37187000  1
  C  C136  1  0.21191000  0.29281000  0.12813000  1
  C  C137  1  0.21191000  0.70719000  0.87187000  1
  C  C138  1  0.21435000  0.33007000  0.45670000  1
  C  C139  1  0.21435000  0.66993000  0.54330000  1
  C  C140  1  0.21889000  0.29435000  0.51089000  1
  C  C141  1  0.21889000  0.70565000  0.48911000  1
  C  C142  1  0.22341000  0.30089000  0.39346000  1
  C  C143  1  0.22341000  0.69911000  0.60654000  1
  C  C144  1  0.27659000  0.10654000  0.80089000  1
  C  C145  1  0.27659000  0.89346000  0.19911000  1
  C  C146  1  0.28111000  0.01089000  0.20565000  1
  C  C147  1  0.28111000  0.98911000  0.79435000  1
  C  C148  1  0.28565000  0.04330000  0.83007000  1
  C  C149  1  0.28565000  0.95670000  0.16993000  1
  C  C150  1  0.28809000  0.37187000  0.79281000  1
  C  C151  1  0.28809000  0.62813000  0.20719000  1
  C  C152  1  0.29281000  0.12813000  0.21191000  1
  C  C153  1  0.29281000  0.87187000  0.78809000  1
  C  C154  1  0.29347000  0.06837000  0.17701000  1
  C  C155  1  0.29347000  0.93163000  0.82299000  1
  C  C156  1  0.29435000  0.48911000  0.78111000  1
  C  C157  1  0.29435000  0.51089000  0.21889000  1
  C  C158  1  0.29770000  0.04091000  0.89172000  1
  C  C159  1  0.29770000  0.95909000  0.10828000  1
  C  C160  1  0.30089000  0.39346000  0.22341000  1
  C  C161  1  0.30089000  0.60654000  0.77659000  1
  C  C162  1  0.30480000  0.07052000  0.11461000  1
  C  C163  1  0.30480000  0.92948000  0.88539000  1
  C  C164  1  0.30700000  0.01682000  0.07971000  1
  C  C165  1  0.30700000  0.98318000  0.92029000  1
  C  C166  1  0.32299000  0.43163000  0.79347000  1
  C  C167  1  0.32299000  0.56837000  0.20653000  1
  C  C168  1  0.33007000  0.45670000  0.21435000  1
  C  C169  1  0.33007000  0.54330000  0.78565000  1
  C  C170  1  0.37187000  0.20719000  0.71191000  1
  C  C171  1  0.37187000  0.79281000  0.28809000  1
  C  C172  1  0.38539000  0.42948000  0.80480000  1
  C  C173  1  0.38539000  0.57052000  0.19520000  1
  C  C174  1  0.39172000  0.45909000  0.20230000  1
  C  C175  1  0.39172000  0.54091000  0.79770000  1
  C  C176  1  0.39346000  0.22341000  0.30089000  1
  C  C177  1  0.39346000  0.77659000  0.69911000  1
  C  C178  1  0.42029000  0.48318000  0.80700000  1
  C  C179  1  0.42029000  0.51682000  0.19300000  1
  C  C180  1  0.42948000  0.19520000  0.61461000  1
  C  C181  1  0.42948000  0.80480000  0.38539000  1
  C  C182  1  0.43163000  0.20653000  0.67701000  1
  C  C183  1  0.43163000  0.79347000  0.32299000  1
  C  C184  1  0.45670000  0.21435000  0.33007000  1
  C  C185  1  0.45670000  0.78565000  0.66993000  1
  C  C186  1  0.45909000  0.20230000  0.39172000  1
  C  C187  1  0.45909000  0.79770000  0.60828000  1
  C  C188  1  0.48318000  0.19300000  0.57971000  1
  C  C189  1  0.48318000  0.80700000  0.42029000  1
  C  C190  1  0.48911000  0.21889000  0.70565000  1
  C  C191  1  0.48911000  0.78111000  0.29435000  1
  C  C192  1  0.51089000  0.21889000  0.29435000  1
  C  C193  1  0.51089000  0.78111000  0.70565000  1
  C  C194  1  0.51682000  0.19300000  0.42029000  1
  C  C195  1  0.51682000  0.80700000  0.57971000  1
  C  C196  1  0.54091000  0.20230000  0.60828000  1
  C  C197  1  0.54091000  0.79770000  0.39172000  1
  C  C198  1  0.54330000  0.21435000  0.66993000  1
  C  C199  1  0.54330000  0.78565000  0.33007000  1
  C  C200  1  0.56837000  0.20653000  0.32299000  1
  C  C201  1  0.56837000  0.79347000  0.67701000  1
  C  C202  1  0.57052000  0.19520000  0.38539000  1
  C  C203  1  0.57052000  0.80480000  0.61461000  1
  C  C204  1  0.57971000  0.48318000  0.19300000  1
  C  C205  1  0.57971000  0.51682000  0.80700000  1
  C  C206  1  0.60654000  0.22341000  0.69911000  1
  C  C207  1  0.60654000  0.77659000  0.30089000  1
  C  C208  1  0.60828000  0.45909000  0.79770000  1
  C  C209  1  0.60828000  0.54091000  0.20230000  1
  C  C210  1  0.61461000  0.42948000  0.19520000  1
  C  C211  1  0.61461000  0.57052000  0.80480000  1
  C  C212  1  0.62813000  0.20719000  0.28809000  1
  C  C213  1  0.62813000  0.79281000  0.71191000  1
  C  C214  1  0.66993000  0.45670000  0.78565000  1
  C  C215  1  0.66993000  0.54330000  0.21435000  1
  C  C216  1  0.67701000  0.43163000  0.20653000  1
  C  C217  1  0.67701000  0.56837000  0.79347000  1
  C  C218  1  0.69300000  0.01682000  0.92029000  1
  C  C219  1  0.69300000  0.98318000  0.07971000  1
  C  C220  1  0.69520000  0.07052000  0.88539000  1
  C  C221  1  0.69520000  0.92948000  0.11461000  1
  C  C222  1  0.69911000  0.39346000  0.77659000  1
  C  C223  1  0.69911000  0.60654000  0.22341000  1
  C  C224  1  0.70230000  0.04091000  0.10828000  1
  C  C225  1  0.70230000  0.95909000  0.89172000  1
  C  C226  1  0.70565000  0.48911000  0.21889000  1
  C  C227  1  0.70565000  0.51089000  0.78111000  1
  C  C228  1  0.70653000  0.06837000  0.82299000  1
  C  C229  1  0.70653000  0.93163000  0.17701000  1
  C  C230  1  0.70719000  0.12813000  0.78809000  1
  C  C231  1  0.70719000  0.87187000  0.21191000  1
  C  C232  1  0.71191000  0.37187000  0.20719000  1
  C  C233  1  0.71191000  0.62813000  0.79281000  1
  C  C234  1  0.71435000  0.04330000  0.16993000  1
  C  C235  1  0.71435000  0.95670000  0.83007000  1
  C  C236  1  0.71889000  0.01089000  0.79435000  1
  C  C237  1  0.71889000  0.98911000  0.20565000  1
  C  C238  1  0.72341000  0.10654000  0.19911000  1
  C  C239  1  0.72341000  0.89346000  0.80089000  1
  C  C240  1  0.77659000  0.30089000  0.60654000  1
  C  C241  1  0.77659000  0.69911000  0.39346000  1
  C  C242  1  0.78111000  0.29435000  0.48911000  1
  C  C243  1  0.78111000  0.70565000  0.51089000  1
  C  C244  1  0.78565000  0.33007000  0.54330000  1
  C  C245  1  0.78565000  0.66993000  0.45670000  1
  C  C246  1  0.78809000  0.29281000  0.87187000  1
  C  C247  1  0.78809000  0.70719000  0.12813000  1
  C  C248  1  0.79281000  0.28809000  0.37187000  1
  C  C249  1  0.79281000  0.71191000  0.62813000  1
  C  C250  1  0.79347000  0.32299000  0.43163000  1
  C  C251  1  0.79347000  0.67701000  0.56837000  1
  C  C252  1  0.79435000  0.28111000  0.98911000  1
  C  C253  1  0.79435000  0.71889000  0.01089000  1
  C  C254  1  0.79770000  0.39172000  0.54091000  1
  C  C255  1  0.79770000  0.60828000  0.45909000  1
  C  C256  1  0.80089000  0.27659000  0.10654000  1
  C  C257  1  0.80089000  0.72341000  0.89346000  1
  C  C258  1  0.80480000  0.38539000  0.42948000  1
  C  C259  1  0.80480000  0.61461000  0.57052000  1
  C  C260  1  0.80700000  0.42029000  0.48318000  1
  C  C261  1  0.80700000  0.57971000  0.51682000  1
  C  C262  1  0.82299000  0.29347000  0.93163000  1
  C  C263  1  0.82299000  0.70653000  0.06837000  1
  C  C264  1  0.83007000  0.28565000  0.04330000  1
  C  C265  1  0.83007000  0.71435000  0.95670000  1
  C  C266  1  0.87187000  0.21191000  0.70719000  1
  C  C267  1  0.87187000  0.78809000  0.29281000  1
  C  C268  1  0.88539000  0.30480000  0.92948000  1
  C  C269  1  0.88539000  0.69520000  0.07052000  1
  C  C270  1  0.89172000  0.29770000  0.04091000  1
  C  C271  1  0.89172000  0.70230000  0.95909000  1
  C  C272  1  0.89346000  0.19911000  0.27659000  1
  C  C273  1  0.89346000  0.80089000  0.72341000  1
  C  C274  1  0.92029000  0.30700000  0.98318000  1
  C  C275  1  0.92029000  0.69300000  0.01682000  1
  C  C276  1  0.92948000  0.11461000  0.69520000  1
  C  C277  1  0.92948000  0.88539000  0.30480000  1
  C  C278  1  0.93163000  0.17701000  0.70653000  1
  C  C279  1  0.93163000  0.82299000  0.29347000  1
  C  C280  1  0.95670000  0.16993000  0.28565000  1
  C  C281  1  0.95670000  0.83007000  0.71435000  1
  C  C282  1  0.95909000  0.10828000  0.29770000  1
  C  C283  1  0.95909000  0.89172000  0.70230000  1
  C  C284  1  0.98318000  0.07971000  0.69300000  1
  C  C285  1  0.98318000  0.92029000  0.30700000  1
  C  C286  1  0.98911000  0.20565000  0.71889000  1
  C  C287  1  0.98911000  0.79435000  0.28111000  1
  N  N288  1  0.01414000  0.30880000  0.02400000  1
  N  N289  1  0.01414000  0.69120000  0.97600000  1
  N  N290  1  0.02400000  0.01414000  0.30880000  1
  N  N291  1  0.02400000  0.98586000  0.69120000  1
  N  N292  1  0.19120000  0.48586000  0.52400000  1
  N  N293  1  0.19120000  0.51414000  0.47600000  1
  N  N294  1  0.30880000  0.02400000  0.01414000  1
  N  N295  1  0.30880000  0.97600000  0.98586000  1
  N  N296  1  0.47600000  0.19120000  0.51414000  1
  N  N297  1  0.47600000  0.80880000  0.48586000  1
  N  N298  1  0.48586000  0.47600000  0.80880000  1
  N  N299  1  0.48586000  0.52400000  0.19120000  1
  N  N300  1  0.51414000  0.47600000  0.19120000  1
  N  N301  1  0.51414000  0.52400000  0.80880000  1
  N  N302  1  0.52400000  0.19120000  0.48586000  1
  N  N303  1  0.52400000  0.80880000  0.51414000  1
  N  N304  1  0.69120000  0.02400000  0.98586000  1
  N  N305  1  0.69120000  0.97600000  0.01414000  1
  N  N306  1  0.80880000  0.48586000  0.47600000  1
  N  N307  1  0.80880000  0.51414000  0.52400000  1
  N  N308  1  0.97600000  0.01414000  0.69120000  1
  N  N309  1  0.97600000  0.98586000  0.30880000  1
  N  N310  1  0.98586000  0.30880000  0.97600000  1
  N  N311  1  0.98586000  0.69120000  0.02400000  1
  O  O312  1  0.11055000  0.24872000  0.75297000  1
  O  O313  1  0.11055000  0.75128000  0.24703000  1
  O  O314  1  0.12961000  0.26396000  0.26680000  1
  O  O315  1  0.12961000  0.73604000  0.73320000  1
  O  O316  1  0.15170000  0.16942000  0.69978000  1
  O  O317  1  0.15170000  0.83058000  0.30022000  1
  O  O318  1  0.16942000  0.30022000  0.84830000  1
  O  O319  1  0.16942000  0.69978000  0.15170000  1
  O  O320  1  0.17323000  0.18587000  0.31880000  1
  O  O321  1  0.17323000  0.81413000  0.68120000  1
  O  O322  1  0.18120000  0.31413000  0.67323000  1
  O  O323  1  0.18120000  0.68587000  0.32677000  1
  O  O324  1  0.18587000  0.31880000  0.17323000  1
  O  O325  1  0.18587000  0.68120000  0.82677000  1
  O  O326  1  0.19978000  0.33058000  0.34830000  1
  O  O327  1  0.19978000  0.66942000  0.65170000  1
  O  O328  1  0.23320000  0.23604000  0.62961000  1
  O  O329  1  0.23320000  0.76396000  0.37039000  1
  O  O330  1  0.23604000  0.37039000  0.76680000  1
  O  O331  1  0.23604000  0.62961000  0.23320000  1
  O  O332  1  0.24062000  0.24062000  0.75938000  1
  O  O333  1  0.24062000  0.75938000  0.24062000  1
  O  O334  1  0.24703000  0.11055000  0.75128000  1
  O  O335  1  0.24703000  0.88945000  0.24872000  1
  O  O336  1  0.24872000  0.24703000  0.88945000  1
  O  O337  1  0.24872000  0.75297000  0.11055000  1
  O  O338  1  0.25128000  0.38945000  0.25297000  1
  O  O339  1  0.25128000  0.61055000  0.74703000  1
  O  O340  1  0.25297000  0.25128000  0.38945000  1
  O  O341  1  0.25297000  0.74872000  0.61055000  1
  O  O342  1  0.25938000  0.25938000  0.25938000  1
  O  O343  1  0.25938000  0.74062000  0.74062000  1
  O  O344  1  0.26396000  0.26680000  0.12961000  1
  O  O345  1  0.26396000  0.73320000  0.87039000  1
  O  O346  1  0.26680000  0.12961000  0.26396000  1
  O  O347  1  0.26680000  0.87039000  0.73604000  1
  O  O348  1  0.30022000  0.15170000  0.83058000  1
  O  O349  1  0.30022000  0.84830000  0.16942000  1
  O  O350  1  0.31413000  0.32677000  0.81880000  1
  O  O351  1  0.31413000  0.67323000  0.18120000  1
  O  O352  1  0.31880000  0.17323000  0.18587000  1
  O  O353  1  0.31880000  0.82677000  0.81413000  1
  O  O354  1  0.32677000  0.18120000  0.68587000  1
  O  O355  1  0.32677000  0.81880000  0.31413000  1
  O  O356  1  0.33058000  0.34830000  0.19978000  1
  O  O357  1  0.33058000  0.65170000  0.80022000  1
  O  O358  1  0.34830000  0.19978000  0.33058000  1
  O  O359  1  0.34830000  0.80022000  0.66942000  1
  O  O360  1  0.37039000  0.23320000  0.76396000  1
  O  O361  1  0.37039000  0.76680000  0.23604000  1
  O  O362  1  0.38945000  0.25297000  0.25128000  1
  O  O363  1  0.38945000  0.74703000  0.74872000  1
  O  O364  1  0.61055000  0.25297000  0.74872000  1
  O  O365  1  0.61055000  0.74703000  0.25128000  1
  O  O366  1  0.62961000  0.23320000  0.23604000  1
  O  O367  1  0.62961000  0.76680000  0.76396000  1
  O  O368  1  0.65170000  0.19978000  0.66942000  1
  O  O369  1  0.65170000  0.80022000  0.33058000  1
  O  O370  1  0.66942000  0.34830000  0.80022000  1
  O  O371  1  0.66942000  0.65170000  0.19978000  1
  O  O372  1  0.67323000  0.18120000  0.31413000  1
  O  O373  1  0.67323000  0.81880000  0.68587000  1
  O  O374  1  0.68120000  0.17323000  0.81413000  1
  O  O375  1  0.68120000  0.82677000  0.18587000  1
  O  O376  1  0.68587000  0.32677000  0.18120000  1
  O  O377  1  0.68587000  0.67323000  0.81880000  1
  O  O378  1  0.69978000  0.15170000  0.16942000  1
  O  O379  1  0.69978000  0.84830000  0.83058000  1
  O  O380  1  0.73320000  0.12961000  0.73604000  1
  O  O381  1  0.73320000  0.87039000  0.26396000  1
  O  O382  1  0.73604000  0.26680000  0.87039000  1
  O  O383  1  0.73604000  0.73320000  0.12961000  1
  O  O384  1  0.74062000  0.25938000  0.74062000  1
  O  O385  1  0.74062000  0.74062000  0.25938000  1
  O  O386  1  0.74703000  0.25128000  0.61055000  1
  O  O387  1  0.74703000  0.74872000  0.38945000  1
  O  O388  1  0.74872000  0.38945000  0.74703000  1
  O  O389  1  0.74872000  0.61055000  0.25297000  1
  O  O390  1  0.75128000  0.24703000  0.11055000  1
  O  O391  1  0.75128000  0.75297000  0.88945000  1
  O  O392  1  0.75297000  0.11055000  0.24872000  1
  O  O393  1  0.75297000  0.88945000  0.75128000  1
  O  O394  1  0.75938000  0.24062000  0.24062000  1
  O  O395  1  0.75938000  0.75938000  0.75938000  1
  O  O396  1  0.76396000  0.37039000  0.23320000  1
  O  O397  1  0.76396000  0.62961000  0.76680000  1
  O  O398  1  0.76680000  0.23604000  0.37039000  1
  O  O399  1  0.76680000  0.76396000  0.62961000  1
  O  O400  1  0.80022000  0.33058000  0.65170000  1
  O  O401  1  0.80022000  0.66942000  0.34830000  1
  O  O402  1  0.81413000  0.31880000  0.82677000  1
  O  O403  1  0.81413000  0.68120000  0.17323000  1
  O  O404  1  0.81880000  0.31413000  0.32677000  1
  O  O405  1  0.81880000  0.68587000  0.67323000  1
  O  O406  1  0.82677000  0.18587000  0.68120000  1
  O  O407  1  0.82677000  0.81413000  0.31880000  1
  O  O408  1  0.83058000  0.30022000  0.15170000  1
  O  O409  1  0.83058000  0.69978000  0.84830000  1
  O  O410  1  0.84830000  0.16942000  0.30022000  1
  O  O411  1  0.84830000  0.83058000  0.69978000  1
  O  O412  1  0.87039000  0.26396000  0.73320000  1
  O  O413  1  0.87039000  0.73604000  0.26680000  1
  O  O414  1  0.88945000  0.24872000  0.24703000  1
  O  O415  1  0.88945000  0.75128000  0.75297000  1
