# generated using pymatgen
data_Zn5H18(C2O)24
_symmetry_space_group_name_H-M   'P 1'
_cell_length_a   12.32150000
_cell_length_b   16.54527790
_cell_length_c   22.72240000
_cell_angle_alpha   88.42653390
_cell_angle_beta   85.77100000
_cell_angle_gamma   68.13894695
_symmetry_Int_Tables_number   1
_chemical_formula_structural   Zn5H18(C2O)24
_chemical_formula_sum   'Zn10 H36 C96 O48'
_cell_volume   4287.43619194
_cell_formula_units_Z   2
loop_
 _symmetry_equiv_pos_site_id
 _symmetry_equiv_pos_as_xyz
  1  'x, y, z'
loop_
 _atom_site_type_symbol
 _atom_site_label
 _atom_site_symmetry_multiplicity
 _atom_site_fract_x
 _atom_site_fract_y
 _atom_site_fract_z
 _atom_site_occupancy
  C  C0  1  0.01946000  0.94248000  0.57787000  1
  C  C1  1  0.96194000  0.05752000  0.07787000  1
  C  C2  1  0.37243000  0.19654000  0.57612000  1
  C  C3  1  0.56897000  0.80346000  0.07612000  1
  C  C4  1  0.21663000  0.50034000  0.27913000  1
  C  C5  1  0.71697000  0.49966000  0.77913000  1
  C  C6  1  0.03258000  0.85664000  0.00861000  1
  C  C7  1  0.88922000  0.14336000  0.50861000  1
  C  C8  1  0.01765000  0.88490000  0.53462000  1
  C  C9  1  0.90255000  0.11510000  0.03462000  1
  C  C10  1  0.24225000  0.42550000  0.31278000  1
  C  C11  1  0.66775000  0.57450000  0.81278000  1
  C  C12  1  0.12796000  0.57548000  0.29980000  1
  C  C13  1  0.70344000  0.42452000  0.79980000  1
  C  C14  1  0.32609000  0.17822000  0.91131000  1
  C  C15  1  0.50431000  0.82178000  0.41131000  1
  C  C16  1  0.91804000  0.97092000  0.92172000  1
  C  C17  1  0.88896000  0.02908000  0.42172000  1
  C  C18  1  0.18072000  0.42556000  0.36684000  1
  C  C19  1  0.60628000  0.57444000  0.86684000  1
  C  C20  1  0.30038000  0.17484000  0.85279000  1
  C  C21  1  0.47522000  0.82516000  0.35279000  1
  C  C22  1  0.21188000  0.34264000  0.40322000  1
  C  C23  1  0.55452000  0.65736000  0.90322000  1
  C  C24  1  0.89385000  0.96010000  0.37757000  1
  C  C25  1  0.85395000  0.03990000  0.87757000  1
  C  C26  1  0.06555000  0.57670000  0.35464000  1
  C  C27  1  0.64225000  0.42330000  0.85464000  1
  C  C28  1  0.91127000  0.88466000  0.00798000  1
  C  C29  1  0.79593000  0.11534000  0.50798000  1
  C  C30  1  0.91803000  0.85394000  0.53310000  1
  C  C31  1  0.77197000  0.14606000  0.03310000  1
  C  C32  1  0.09362000  0.50076000  0.38684000  1
  C  C33  1  0.59438000  0.49924000  0.88684000  1
  C  C34  1  0.25423000  0.16234000  0.95614000  1
  C  C35  1  0.41657000  0.83766000  0.45614000  1
  C  C36  1  0.85457000  0.94166000  0.96430000  1
  C  C37  1  0.79623000  0.05834000  0.46430000  1
  C  C38  1  0.97278000  0.65984000  0.37679000  1
  C  C39  1  0.63262000  0.34016000  0.87679000  1
  C  C40  1  0.86585000  0.85970000  0.11430000  1
  C  C41  1  0.72555000  0.14030000  0.61430000  1
  C  C42  1  0.20411000  0.15658000  0.84022000  1
  C  C43  1  0.36069000  0.84342000  0.34022000  1
  C  C44  1  0.84188000  0.85884000  0.05605000  1
  C  C45  1  0.70072000  0.14116000  0.55605000  1
  C  C46  1  0.17390000  0.15540000  0.77720000  1
  C  C47  1  0.32930000  0.84460000  0.27720000  1
  C  C48  1  0.82610000  0.84460000  0.22280000  1
  C  C49  1  0.67070000  0.15540000  0.72280000  1
  C  C50  1  0.15812000  0.14116000  0.94395000  1
  C  C51  1  0.29928000  0.85884000  0.44395000  1
  C  C52  1  0.79589000  0.84342000  0.15978000  1
  C  C53  1  0.63931000  0.15658000  0.65978000  1
  C  C54  1  0.13415000  0.14030000  0.88570000  1
  C  C55  1  0.27445000  0.85970000  0.38570000  1
  C  C56  1  0.02722000  0.34016000  0.62321000  1
  C  C57  1  0.36738000  0.65984000  0.12321000  1
  C  C58  1  0.14543000  0.05834000  0.03570000  1
  C  C59  1  0.20377000  0.94166000  0.53570000  1
  C  C60  1  0.74577000  0.83766000  0.04386000  1
  C  C61  1  0.58343000  0.16234000  0.54386000  1
  C  C62  1  0.90638000  0.49924000  0.61316000  1
  C  C63  1  0.40562000  0.50076000  0.11316000  1
  C  C64  1  0.08197000  0.14606000  0.46690000  1
  C  C65  1  0.22803000  0.85394000  0.96690000  1
  C  C66  1  0.08873000  0.11534000  0.99202000  1
  C  C67  1  0.20407000  0.88466000  0.49202000  1
  C  C68  1  0.93445000  0.42330000  0.64536000  1
  C  C69  1  0.35775000  0.57670000  0.14536000  1
  C  C70  1  0.10615000  0.03990000  0.62243000  1
  C  C71  1  0.14605000  0.96010000  0.12243000  1
  C  C72  1  0.78812000  0.65736000  0.59678000  1
  C  C73  1  0.44548000  0.34264000  0.09678000  1
  C  C74  1  0.69962000  0.82516000  0.14721000  1
  C  C75  1  0.52478000  0.17484000  0.64721000  1
  C  C76  1  0.81928000  0.57444000  0.63316000  1
  C  C77  1  0.39372000  0.42556000  0.13316000  1
  C  C78  1  0.08196000  0.02908000  0.07828000  1
  C  C79  1  0.11104000  0.97092000  0.57828000  1
  C  C80  1  0.67391000  0.82178000  0.08869000  1
  C  C81  1  0.49569000  0.17822000  0.58869000  1
  C  C82  1  0.87204000  0.42452000  0.70020000  1
  C  C83  1  0.29656000  0.57548000  0.20020000  1
  C  C84  1  0.75775000  0.57450000  0.68722000  1
  C  C85  1  0.33225000  0.42550000  0.18722000  1
  C  C86  1  0.98235000  0.11510000  0.46538000  1
  C  C87  1  0.09745000  0.88490000  0.96538000  1
  C  C88  1  0.96742000  0.14336000  0.99139000  1
  C  C89  1  0.11078000  0.85664000  0.49139000  1
  C  C90  1  0.78337000  0.49966000  0.72087000  1
  C  C91  1  0.28303000  0.50034000  0.22087000  1
  C  C92  1  0.62757000  0.80346000  0.42388000  1
  C  C93  1  0.43103000  0.19654000  0.92388000  1
  C  C94  1  0.98054000  0.05752000  0.42213000  1
  C  C95  1  0.03806000  0.94248000  0.92213000  1
  H  H96  1  0.30130000  0.37440000  0.29920000  1
  H  H97  1  0.67570000  0.62560000  0.79920000  1
  H  H98  1  0.07090000  0.81880000  0.03800000  1
  H  H99  1  0.88970000  0.18120000  0.53800000  1
  H  H100  1  0.34820000  0.18500000  0.82220000  1
  H  H101  1  0.53320000  0.81500000  0.32220000  1
  H  H102  1  0.95800000  0.96180000  0.60680000  1
  H  H103  1  0.91980000  0.03820000  0.10680000  1
  H  H104  1  0.10910000  0.62600000  0.27730000  1
  H  H105  1  0.73510000  0.37400000  0.77730000  1
  H  H106  1  0.93090000  0.87160000  0.12320000  1
  H  H107  1  0.80250000  0.12840000  0.62320000  1
  H  H108  1  0.27010000  0.16580000  0.99520000  1
  H  H109  1  0.43590000  0.83420000  0.49520000  1
  H  H110  1  0.05250000  0.50060000  0.42280000  1
  H  H111  1  0.55310000  0.49940000  0.92280000  1
  H  H112  1  0.77360000  0.96040000  0.96350000  1
  H  H113  1  0.73400000  0.03960000  0.46350000  1
  H  H114  1  0.22640000  0.03960000  0.03650000  1
  H  H115  1  0.26600000  0.96040000  0.53650000  1
  H  H116  1  0.94750000  0.49940000  0.57720000  1
  H  H117  1  0.44690000  0.50060000  0.07720000  1
  H  H118  1  0.72990000  0.83420000  0.00480000  1
  H  H119  1  0.56410000  0.16580000  0.50480000  1
  H  H120  1  0.06910000  0.12840000  0.87680000  1
  H  H121  1  0.19750000  0.87160000  0.37680000  1
  H  H122  1  0.89090000  0.37400000  0.72270000  1
  H  H123  1  0.26490000  0.62600000  0.22270000  1
  H  H124  1  0.04200000  0.03820000  0.39320000  1
  H  H125  1  0.08020000  0.96180000  0.89320000  1
  H  H126  1  0.65180000  0.81500000  0.17780000  1
  H  H127  1  0.46680000  0.18500000  0.67780000  1
  H  H128  1  0.92910000  0.18120000  0.96200000  1
  H  H129  1  0.11030000  0.81880000  0.46200000  1
  H  H130  1  0.69870000  0.62560000  0.70080000  1
  H  H131  1  0.32430000  0.37440000  0.20080000  1
  O  O132  1  0.34120000  0.21300000  0.52439000  1
  O  O133  1  0.55420000  0.78700000  0.02439000  1
  O  O134  1  0.98197000  0.92586000  0.34459000  1
  O  O135  1  0.90783000  0.07414000  0.84459000  1
  O  O136  1  0.29162000  0.27676000  0.38558000  1
  O  O137  1  0.56838000  0.72324000  0.88558000  1
  O  O138  1  0.30371000  0.19538000  0.61863000  1
  O  O139  1  0.49909000  0.80462000  0.11863000  1
  O  O140  1  0.91860000  0.84620000  0.23357000  1
  O  O141  1  0.76480000  0.15380000  0.73357000  1
  O  O142  1  0.15318000  0.34964000  0.45104000  1
  O  O143  1  0.50282000  0.65036000  0.95104000  1
  O  O144  1  0.92404000  0.80352000  0.49172000  1
  O  O145  1  0.72756000  0.19648000  0.99172000  1
  O  O146  1  0.24437000  0.16166000  0.73754000  1
  O  O147  1  0.40603000  0.83834000  0.23754000  1
  O  O148  1  0.95736000  0.72688000  0.34685000  1
  O  O149  1  0.68424000  0.27312000  0.84685000  1
  O  O150  1  0.83767000  0.87786000  0.57188000  1
  O  O151  1  0.71553000  0.12214000  0.07188000  1
  O  O152  1  0.80430000  0.94000000  0.37847000  1
  O  O153  1  0.74430000  0.06000000  0.87847000  1
  O  O154  1  0.08454000  0.34492000  0.57606000  1
  O  O155  1  0.42946000  0.65508000  0.07606000  1
  O  O156  1  0.91546000  0.65508000  0.42394000  1
  O  O157  1  0.57054000  0.34492000  0.92394000  1
  O  O158  1  0.19570000  0.06000000  0.62153000  1
  O  O159  1  0.25570000  0.94000000  0.12153000  1
  O  O160  1  0.16233000  0.12214000  0.42812000  1
  O  O161  1  0.28447000  0.87786000  0.92812000  1
  O  O162  1  0.04264000  0.27312000  0.65315000  1
  O  O163  1  0.31576000  0.72688000  0.15315000  1
  O  O164  1  0.75563000  0.83834000  0.26246000  1
  O  O165  1  0.59397000  0.16166000  0.76246000  1
  O  O166  1  0.07596000  0.19648000  0.50828000  1
  O  O167  1  0.27244000  0.80352000  0.00828000  1
  O  O168  1  0.84682000  0.65036000  0.54896000  1
  O  O169  1  0.49718000  0.34964000  0.04896000  1
  O  O170  1  0.08140000  0.15380000  0.76643000  1
  O  O171  1  0.23520000  0.84620000  0.26643000  1
  O  O172  1  0.69629000  0.80462000  0.38137000  1
  O  O173  1  0.50091000  0.19538000  0.88137000  1
  O  O174  1  0.70838000  0.72324000  0.61442000  1
  O  O175  1  0.43162000  0.27676000  0.11442000  1
  O  O176  1  0.01803000  0.07414000  0.65541000  1
  O  O177  1  0.09217000  0.92586000  0.15541000  1
  O  O178  1  0.65880000  0.78700000  0.47561000  1
  O  O179  1  0.44580000  0.21300000  0.97561000  1
  Zn  Zn180  1  0.05160000  0.89680000  0.25000000  1
  Zn  Zn181  1  0.94840000  0.10320000  0.75000000  1
  Zn  Zn182  1  0.17453000  0.26164000  0.51208000  1
  Zn  Zn183  1  0.43617000  0.73836000  0.01208000  1
  Zn  Zn184  1  0.17701000  0.16566000  0.66102000  1
  Zn  Zn185  1  0.34267000  0.83434000  0.16102000  1
  Zn  Zn186  1  0.82299000  0.83434000  0.33898000  1
  Zn  Zn187  1  0.65733000  0.16566000  0.83898000  1
  Zn  Zn188  1  0.82547000  0.73836000  0.48792000  1
  Zn  Zn189  1  0.56383000  0.26164000  0.98792000  1
