# generated using pymatgen
data_Zn2H25C38(N4O3)2
_symmetry_space_group_name_H-M   'P 1'
_cell_length_a   14.79790000
_cell_length_b   18.64130000
_cell_length_c   22.28790000
_cell_angle_alpha   86.67200000
_cell_angle_beta   79.48500000
_cell_angle_gamma   75.82500000
_symmetry_Int_Tables_number   1
_chemical_formula_structural   Zn2H25C38(N4O3)2
_chemical_formula_sum   'Zn8 H100 C152 N32 O24'
_cell_volume   5860.28904247
_cell_formula_units_Z   4
loop_
 _symmetry_equiv_pos_site_id
 _symmetry_equiv_pos_as_xyz
  1  'x, y, z'
loop_
 _atom_site_type_symbol
 _atom_site_label
 _atom_site_symmetry_multiplicity
 _atom_site_fract_x
 _atom_site_fract_y
 _atom_site_fract_z
 _atom_site_occupancy
  Zn  Zn0  1  0.27045000  0.95898000  0.95561000  1
  Zn  Zn1  1  0.31222000  0.70247000  0.13319000  1
  Zn  Zn2  1  0.36145000  0.06322000  0.69566000  1
  Zn  Zn3  1  0.40363000  0.80348000  0.87209000  1
  Zn  Zn4  1  0.59637000  0.19652000  0.12791000  1
  Zn  Zn5  1  0.63855000  0.93678000  0.30434000  1
  Zn  Zn6  1  0.68778000  0.29753000  0.86681000  1
  Zn  Zn7  1  0.72955000  0.04102000  0.04439000  1
  H  H8  1  0.01200000  0.84360000  0.92380000  1
  H  H9  1  0.01790000  0.40960000  0.77130000  1
  H  H10  1  0.02260000  0.70680000  0.79680000  1
  H  H11  1  0.02270000  0.03150000  0.37590000  1
  H  H12  1  0.02520000  0.84700000  0.28700000  1
  H  H13  1  0.02660000  0.11570000  0.61250000  1
  H  H14  1  0.03580000  0.65240000  0.06310000  1
  H  H15  1  0.06990000  0.28300000  0.76450000  1
  H  H16  1  0.07000000  0.71570000  0.91390000  1
  H  H17  1  0.08270000  0.41390000  0.90040000  1
  H  H18  1  0.09550000  0.95090000  0.68380000  1
  H  H19  1  0.12800000  0.28290000  0.14970000  1
  H  H20  1  0.13180000  0.77470000  0.78290000  1
  H  H21  1  0.13500000  0.71960000  0.08570000  1
  H  H22  1  0.14170000  0.41370000  0.06460000  1
  H  H23  1  0.14530000  0.41310000  0.28140000  1
  H  H24  1  0.17520000  0.96710000  0.37750000  1
  H  H25  1  0.18080000  0.31440000  0.00020000  1
  H  H26  1  0.18640000  0.14200000  0.46820000  1
  H  H27  1  0.19270000  0.47380000  0.13770000  1
  H  H28  1  0.19280000  0.00400000  0.72730000  1
  H  H29  1  0.19510000  0.88040000  0.49420000  1
  H  H30  1  0.20980000  0.92420000  0.09020000  1
  H  H31  1  0.21860000  0.86200000  0.12930000  1
  H  H32  1  0.23160000  0.83450000  0.81460000  1
  H  H33  1  0.23370000  0.79490000  0.42350000  1
  H  H34  1  0.23430000  0.18850000  0.98530000  1
  H  H35  1  0.23430000  0.40010000  0.85460000  1
  H  H36  1  0.23700000  0.55900000  0.96680000  1
  H  H37  1  0.23960000  0.53230000  0.75490000  1
  H  H38  1  0.25570000  0.97330000  0.52070000  1
  H  H39  1  0.25840000  0.11820000  0.82370000  1
  H  H40  1  0.25990000  0.09720000  0.88520000  1
  H  H41  1  0.28050000  0.43010000  0.70330000  1
  H  H42  1  0.28430000  0.75810000  0.32350000  1
  H  H43  1  0.28620000  0.54810000  0.15940000  1
  H  H44  1  0.28840000  0.24080000  0.13210000  1
  H  H45  1  0.30560000  0.36440000  0.26840000  1
  H  H46  1  0.31230000  0.58240000  0.81240000  1
  H  H47  1  0.33150000  0.30320000  0.69650000  1
  H  H48  1  0.33660000  0.93710000  0.35180000  1
  H  H49  1  0.34560000  0.02590000  0.56840000  1
  H  H50  1  0.34850000  0.11480000  0.43880000  1
  H  H51  1  0.35180000  0.65580000  0.97830000  1
  H  H52  1  0.39680000  0.36340000  0.84070000  1
  H  H53  1  0.39870000  0.51770000  0.95800000  1
  H  H54  1  0.40100000  0.90080000  0.69950000  1
  H  H55  1  0.40510000  0.64700000  0.84550000  1
  H  H56  1  0.41400000  0.83930000  0.73930000  1
  H  H57  1  0.43780000  0.67260000  0.95140000  1
  H  H58  1  0.56220000  0.32740000  0.04860000  1
  H  H59  1  0.58600000  0.16070000  0.26070000  1
  H  H60  1  0.59490000  0.35300000  0.15450000  1
  H  H61  1  0.59900000  0.09920000  0.30050000  1
  H  H62  1  0.60130000  0.48230000  0.04200000  1
  H  H63  1  0.60320000  0.63660000  0.15930000  1
  H  H64  1  0.64820000  0.34420000  0.02170000  1
  H  H65  1  0.65150000  0.88520000  0.56120000  1
  H  H66  1  0.65440000  0.97410000  0.43160000  1
  H  H67  1  0.66340000  0.06290000  0.64820000  1
  H  H68  1  0.66850000  0.69680000  0.30350000  1
  H  H69  1  0.68770000  0.41760000  0.18760000  1
  H  H70  1  0.69440000  0.63560000  0.73160000  1
  H  H71  1  0.71160000  0.75920000  0.86790000  1
  H  H72  1  0.71380000  0.45190000  0.84060000  1
  H  H73  1  0.71570000  0.24190000  0.67650000  1
  H  H74  1  0.71950000  0.56990000  0.29670000  1
  H  H75  1  0.74010000  0.90280000  0.11480000  1
  H  H76  1  0.74160000  0.88180000  0.17630000  1
  H  H77  1  0.74430000  0.02670000  0.47930000  1
  H  H78  1  0.76040000  0.46770000  0.24510000  1
  H  H79  1  0.76300000  0.44100000  0.03320000  1
  H  H80  1  0.76570000  0.59990000  0.14540000  1
  H  H81  1  0.76570000  0.81150000  0.01470000  1
  H  H82  1  0.76630000  0.20510000  0.57650000  1
  H  H83  1  0.76840000  0.16550000  0.18540000  1
  H  H84  1  0.78140000  0.13800000  0.87070000  1
  H  H85  1  0.79020000  0.07580000  0.90980000  1
  H  H86  1  0.80490000  0.11960000  0.50580000  1
  H  H87  1  0.80720000  0.99600000  0.27270000  1
  H  H88  1  0.80730000  0.52620000  0.86230000  1
  H  H89  1  0.81360000  0.85800000  0.53180000  1
  H  H90  1  0.81920000  0.68560000  0.99980000  1
  H  H91  1  0.82480000  0.03290000  0.62250000  1
  H  H92  1  0.85470000  0.58690000  0.71860000  1
  H  H93  1  0.85830000  0.58630000  0.93540000  1
  H  H94  1  0.86500000  0.28040000  0.91430000  1
  H  H95  1  0.86820000  0.22530000  0.21710000  1
  H  H96  1  0.87200000  0.71710000  0.85030000  1
  H  H97  1  0.90450000  0.04910000  0.31620000  1
  H  H98  1  0.91730000  0.58610000  0.09960000  1
  H  H99  1  0.93000000  0.28430000  0.08610000  1
  H  H100  1  0.93010000  0.71700000  0.23550000  1
  H  H101  1  0.96420000  0.34760000  0.93690000  1
  H  H102  1  0.97340000  0.88430000  0.38750000  1
  H  H103  1  0.97480000  0.15300000  0.71300000  1
  H  H104  1  0.97730000  0.96850000  0.62410000  1
  H  H105  1  0.97740000  0.29320000  0.20320000  1
  H  H106  1  0.98210000  0.59040000  0.22870000  1
  H  H107  1  0.98800000  0.15640000  0.07620000  1
  C  C108  1  0.00170000  0.94457000  0.58709000  1
  C  C109  1  0.00790000  0.73508000  0.93277000  1
  C  C110  1  0.01360000  0.38393000  0.22607000  1
  C  C111  1  0.01550000  0.39255000  0.05911000  1
  C  C112  1  0.02630000  0.18838000  0.06058000  1
  C  C113  1  0.03600000  0.85910000  0.37478000  1
  C  C114  1  0.04050000  0.50808000  0.08534000  1
  C  C115  1  0.04720000  0.65786000  0.78504000  1
  C  C116  1  0.05100000  0.31207000  0.04563000  1
  C  C117  1  0.05630000  0.46346000  0.90969000  1
  C  C118  1  0.05840000  0.07541000  0.44647000  1
  C  C119  1  0.06720000  0.87385000  0.47890000  1
  C  C120  1  0.06740000  0.83730000  0.31433000  1
  C  C121  1  0.07700000  0.43455000  0.06896000  1
  C  C122  1  0.08150000  0.38860000  0.75691000  1
  C  C123  1  0.08650000  0.62979000  0.08238000  1
  C  C124  1  0.09800000  0.92868000  0.56528000  1
  C  C125  1  0.09820000  0.84333000  0.41619000  1
  C  C126  1  0.10310000  0.55359000  0.09836000  1
  C  C127  1  0.11240000  0.51426000  0.75157000  1
  C  C128  1  0.11250000  0.31260000  0.75253000  1
  C  C129  1  0.11400000  0.50952000  0.91873000  1
  C  C130  1  0.11750000  0.35348000  0.21754000  1
  C  C131  1  0.11770000  0.16090000  0.03048000  1
  C  C132  1  0.13070000  0.89229000  0.51007000  1
  C  C133  1  0.14140000  0.28310000  0.01522000  1
  C  C134  1  0.14270000  0.43360000  0.74039000  1
  C  C135  1  0.14390000  0.62830000  0.77902000  1
  C  C136  1  0.14550000  0.96620000  0.65926000  1
  C  C137  1  0.14660000  0.66948000  0.09585000  1
  C  C138  1  0.15470000  0.07910000  0.02410000  1
  C  C139  1  0.16130000  0.80134000  0.29457000  1
  C  C140  1  0.16190000  0.95713000  0.59672000  1
  C  C141  1  0.16320000  0.05769000  0.42560000  1
  C  C142  1  0.16360000  0.30062000  0.17310000  1
  C  C143  1  0.17350000  0.37723000  0.25198000  1
  C  C144  1  0.17390000  0.20760000  0.00697000  1
  C  C145  1  0.17520000  0.55461000  0.76087000  1
  C  C146  1  0.17930000  0.52369000  0.12681000  1
  C  C147  1  0.18660000  0.74740000  0.79572000  1
  C  C148  1  0.19150000  0.80570000  0.39622000  1
  C  C149  1  0.19520000  0.77978000  0.22886000  1
  C  C150  1  0.20470000  0.99830000  0.68521000  1
  C  C151  1  0.20620000  0.28036000  0.73044000  1
  C  C152  1  0.20800000  0.66994000  0.79505000  1
  C  C153  1  0.20980000  0.99680000  0.39051000  1
  C  C154  1  0.21640000  0.10110000  0.44396000  1
  C  C155  1  0.21760000  0.48315000  0.91198000  1
  C  C156  1  0.22210000  0.78430000  0.33606000  1
  C  C157  1  0.23610000  0.56864000  0.13909000  1
  C  C158  1  0.23810000  0.40060000  0.71630000  1
  C  C159  1  0.24060000  0.19645000  0.72761000  1
  C  C160  1  0.24060000  0.97971000  0.56272000  1
  C  C161  1  0.24650000  0.78301000  0.81537000  1
  C  C162  1  0.25970000  0.27440000  0.16319000  1
  C  C163  1  0.26720000  0.42470000  0.87483000  1
  C  C164  1  0.26840000  0.32460000  0.71200000  1
  C  C165  1  0.26880000  0.51866000  0.94225000  1
  C  C166  1  0.27010000  0.34880000  0.24364000  1
  C  C167  1  0.29220000  0.84219000  0.05338000  1
  C  C168  1  0.29330000  0.63380000  0.81357000  1
  C  C169  1  0.29440000  0.01092000  0.59172000  1
  C  C170  1  0.30640000  0.97920000  0.37457000  1
  C  C171  1  0.31390000  0.08449000  0.42676000  1
  C  C172  1  0.31500000  0.29706000  0.19863000  1
  C  C173  1  0.32740000  0.02327000  0.83301000  1
  C  C174  1  0.34900000  0.67270000  0.83327000  1
  C  C175  1  0.35970000  0.02350000  0.39195000  1
  C  C176  1  0.36230000  0.74654000  0.00089000  1
  C  C177  1  0.36490000  0.40200000  0.86698000  1
  C  C178  1  0.36600000  0.49467000  0.93627000  1
  C  C179  1  0.39080000  0.92753000  0.77820000  1
  C  C180  1  0.41530000  0.43609000  0.89785000  1
  C  C181  1  0.42040000  0.26571000  0.19028000  1
  C  C182  1  0.46560000  0.00800000  0.37262000  1
  C  C183  1  0.48060000  0.59115000  0.10616000  1
  C  C184  1  0.51940000  0.40885000  0.89384000  1
  C  C185  1  0.53440000  0.99200000  0.62738000  1
  C  C186  1  0.57960000  0.73429000  0.80972000  1
  C  C187  1  0.58470000  0.56391000  0.10215000  1
  C  C188  1  0.60920000  0.07247000  0.22180000  1
  C  C189  1  0.63400000  0.50533000  0.06373000  1
  C  C190  1  0.63510000  0.59800000  0.13302000  1
  C  C191  1  0.63770000  0.25346000  0.99911000  1
  C  C192  1  0.64030000  0.97650000  0.60805000  1
  C  C193  1  0.65100000  0.32730000  0.16673000  1
  C  C194  1  0.67260000  0.97673000  0.16699000  1
  C  C195  1  0.68500000  0.70294000  0.80137000  1
  C  C196  1  0.68610000  0.91551000  0.57324000  1
  C  C197  1  0.69360000  0.02080000  0.62543000  1
  C  C198  1  0.70560000  0.98908000  0.40828000  1
  C  C199  1  0.70670000  0.36620000  0.18643000  1
  C  C200  1  0.70780000  0.15781000  0.94662000  1
  C  C201  1  0.72990000  0.65120000  0.75636000  1
  C  C202  1  0.73120000  0.48134000  0.05775000  1
  C  C203  1  0.73160000  0.67540000  0.28800000  1
  C  C204  1  0.73280000  0.57530000  0.12517000  1
  C  C205  1  0.74030000  0.72560000  0.83681000  1
  C  C206  1  0.75350000  0.21699000  0.18463000  1
  C  C207  1  0.75940000  0.02029000  0.43728000  1
  C  C208  1  0.75940000  0.80355000  0.27239000  1
  C  C209  1  0.76190000  0.59940000  0.28370000  1
  C  C210  1  0.76390000  0.43136000  0.86091000  1
  C  C211  1  0.77790000  0.21570000  0.66394000  1
  C  C212  1  0.78240000  0.51685000  0.08802000  1
  C  C213  1  0.78360000  0.89890000  0.55604000  1
  C  C214  1  0.79020000  0.00320000  0.60949000  1
  C  C215  1  0.79200000  0.33006000  0.20495000  1
  C  C216  1  0.79380000  0.71964000  0.26956000  1
  C  C217  1  0.79530000  0.00170000  0.31479000  1
  C  C218  1  0.80480000  0.22022000  0.77114000  1
  C  C219  1  0.80850000  0.19430000  0.60378000  1
  C  C220  1  0.81340000  0.25260000  0.20428000  1
  C  C221  1  0.82070000  0.47631000  0.87319000  1
  C  C222  1  0.82480000  0.44539000  0.23913000  1
  C  C223  1  0.82610000  0.79240000  0.99303000  1
  C  C224  1  0.82650000  0.62277000  0.74802000  1
  C  C225  1  0.83640000  0.69938000  0.82690000  1
  C  C226  1  0.83680000  0.94231000  0.57440000  1
  C  C227  1  0.83810000  0.04287000  0.40328000  1
  C  C228  1  0.83870000  0.19866000  0.70543000  1
  C  C229  1  0.84530000  0.92090000  0.97590000  1
  C  C230  1  0.85340000  0.33052000  0.90415000  1
  C  C231  1  0.85450000  0.03380000  0.34074000  1
  C  C232  1  0.85610000  0.37170000  0.22098000  1
  C  C233  1  0.85730000  0.56640000  0.25961000  1
  C  C234  1  0.85860000  0.71690000  0.98478000  1
  C  C235  1  0.86930000  0.10771000  0.48993000  1
  C  C236  1  0.88230000  0.83910000  0.96952000  1
  C  C237  1  0.88250000  0.64652000  0.78246000  1
  C  C238  1  0.88600000  0.49048000  0.08127000  1
  C  C239  1  0.88750000  0.68740000  0.24747000  1
  C  C240  1  0.88760000  0.48574000  0.24843000  1
  C  C241  1  0.89690000  0.44641000  0.90164000  1
  C  C242  1  0.90180000  0.15667000  0.58381000  1
  C  C243  1  0.90200000  0.07132000  0.43472000  1
  C  C244  1  0.91350000  0.37021000  0.91762000  1
  C  C245  1  0.91850000  0.61140000  0.24309000  1
  C  C246  1  0.92300000  0.56545000  0.93104000  1
  C  C247  1  0.93260000  0.16270000  0.68567000  1
  C  C248  1  0.93280000  0.12615000  0.52110000  1
  C  C249  1  0.94160000  0.92459000  0.55353000  1
  C  C250  1  0.94370000  0.53654000  0.09031000  1
  C  C251  1  0.94900000  0.68793000  0.95437000  1
  C  C252  1  0.95280000  0.34214000  0.21496000  1
  C  C253  1  0.95950000  0.49192000  0.91466000  1
  C  C254  1  0.96400000  0.14090000  0.62522000  1
  C  C255  1  0.97370000  0.81162000  0.93942000  1
  C  C256  1  0.98450000  0.60745000  0.94089000  1
  C  C257  1  0.98640000  0.61607000  0.77393000  1
  C  C258  1  0.99210000  0.26492000  0.06723000  1
  C  C259  1  0.99830000  0.05543000  0.41291000  1
  N  N260  1  0.01790000  0.54518000  0.75757000  1
  N  N261  1  0.02670000  0.11059000  0.50025000  1
  N  N262  1  0.07810000  0.58068000  0.93423000  1
  N  N263  1  0.22150000  0.63967000  0.12296000  1
  N  N264  1  0.24890000  0.88628000  0.10224000  1
  N  N265  1  0.27740000  0.02136000  0.65273000  1
  N  N266  1  0.29350000  0.09505000  0.84910000  1
  N  N267  1  0.31560000  0.86634000  0.99787000  1
  N  N268  1  0.31950000  0.76660000  0.05856000  1
  N  N269  1  0.32540000  0.74719000  0.83561000  1
  N  N270  1  0.33740000  0.96717000  0.87122000  1
  N  N271  1  0.36100000  0.00201000  0.77339000  1
  N  N272  1  0.36190000  0.80223000  0.96281000  1
  N  N273  1  0.37900000  0.90307000  0.83542000  1
  N  N274  1  0.39700000  0.67450000  0.98475000  1
  N  N275  1  0.42680000  0.88164000  0.73021000  1
  N  N276  1  0.57320000  0.11836000  0.26979000  1
  N  N277  1  0.60300000  0.32550000  0.01525000  1
  N  N278  1  0.62100000  0.09693000  0.16458000  1
  N  N279  1  0.63810000  0.19777000  0.03719000  1
  N  N280  1  0.63900000  0.99799000  0.22661000  1
  N  N281  1  0.66260000  0.03283000  0.12878000  1
  N  N282  1  0.67460000  0.25281000  0.16439000  1
  N  N283  1  0.68050000  0.23340000  0.94144000  1
  N  N284  1  0.68440000  0.13366000  0.00213000  1
  N  N285  1  0.70650000  0.90495000  0.15090000  1
  N  N286  1  0.72260000  0.97864000  0.34727000  1
  N  N287  1  0.75110000  0.11372000  0.89776000  1
  N  N288  1  0.77850000  0.36033000  0.87704000  1
  N  N289  1  0.92190000  0.41932000  0.06577000  1
  N  N290  1  0.97330000  0.88941000  0.49975000  1
  N  N291  1  0.98210000  0.45482000  0.24243000  1
  O  O292  1  0.12940000  0.03402000  0.06348000  1
  O  O293  1  0.14149000  0.79778000  0.19063000  1
  O  O294  1  0.18534000  0.15774000  0.74954000  1
  O  O295  1  0.21560000  0.05878000  0.97539000  1
  O  O296  1  0.28150000  0.74301000  0.21496000  1
  O  O297  1  0.32493000  0.17115000  0.70336000  1
  O  O298  1  0.43757000  0.56097000  0.07512000  1
  O  O299  1  0.44089000  0.64721000  0.13907000  1
  O  O300  1  0.46028000  0.24133000  0.13739000  1
  O  O301  1  0.46222000  0.26368000  0.23364000  1
  O  O302  1  0.49199000  0.94638000  0.61586000  1
  O  O303  1  0.49512000  0.05081000  0.65765000  1
  O  O304  1  0.50488000  0.94919000  0.34235000  1
  O  O305  1  0.50801000  0.05362000  0.38414000  1
  O  O306  1  0.53778000  0.73632000  0.76636000  1
  O  O307  1  0.53972000  0.75867000  0.86261000  1
  O  O308  1  0.55911000  0.35279000  0.86093000  1
  O  O309  1  0.56243000  0.43903000  0.92488000  1
  O  O310  1  0.67507000  0.82885000  0.29664000  1
  O  O311  1  0.71850000  0.25699000  0.78504000  1
  O  O312  1  0.78440000  0.94122000  0.02461000  1
  O  O313  1  0.81466000  0.84226000  0.25046000  1
  O  O314  1  0.85851000  0.20222000  0.80937000  1
  O  O315  1  0.87060000  0.96598000  0.93652000  1
