# generated using pymatgen
data_Zn2H13C25O12
_symmetry_space_group_name_H-M   'P 1'
_cell_length_a   15.09200000
_cell_length_b   17.49300000
_cell_length_c   23.74500000
_cell_angle_alpha   97.06000000
_cell_angle_beta   90.00000000
_cell_angle_gamma   90.00000000
_symmetry_Int_Tables_number   1
_chemical_formula_structural   Zn2H13C25O12
_chemical_formula_sum   'Zn8 H52 C100 O48'
_cell_volume   6221.25343048
_cell_formula_units_Z   4
loop_
 _symmetry_equiv_pos_site_id
 _symmetry_equiv_pos_as_xyz
  1  'x, y, z'
loop_
 _atom_site_type_symbol
 _atom_site_label
 _atom_site_symmetry_multiplicity
 _atom_site_fract_x
 _atom_site_fract_y
 _atom_site_fract_z
 _atom_site_occupancy
  Zn  Zn0  1  0.36669000  0.83375000  0.01781000  1
  Zn  Zn1  1  0.13331000  0.83375000  0.51781000  1
  Zn  Zn2  1  0.43353000  0.68981000  0.08970000  1
  Zn  Zn3  1  0.06647000  0.68981000  0.58970000  1
  Zn  Zn4  1  0.93353000  0.31019000  0.41030000  1
  Zn  Zn5  1  0.56647000  0.31019000  0.91030000  1
  Zn  Zn6  1  0.86669000  0.16625000  0.48219000  1
  Zn  Zn7  1  0.63331000  0.16625000  0.98219000  1
  H  H8  1  0.91840000  0.95520000  0.54200000  1
  H  H9  1  0.58160000  0.95520000  0.04200000  1
  H  H10  1  0.84500000  0.95500000  0.06100000  1
  H  H11  1  0.65500000  0.95500000  0.56100000  1
  H  H12  1  0.94730000  0.89820000  0.11530000  1
  H  H13  1  0.55270000  0.89820000  0.61530000  1
  H  H14  1  0.95090000  0.85730000  0.05240000  1
  H  H15  1  0.54910000  0.85730000  0.55240000  1
  H  H16  1  0.39110000  0.83070000  0.56650000  1
  H  H17  1  0.10890000  0.83070000  0.06650000  1
  H  H18  1  0.79800000  0.77750000  0.60040000  1
  H  H19  1  0.70200000  0.77750000  0.10040000  1
  H  H20  1  0.92690000  0.73400000  0.15720000  1
  H  H21  1  0.57310000  0.73400000  0.65720000  1
  H  H22  1  0.42130000  0.72490000  0.85470000  1
  H  H23  1  0.07870000  0.72490000  0.35470000  1
  H  H24  1  0.32330000  0.65590000  0.65220000  1
  H  H25  1  0.17670000  0.65590000  0.15220000  1
  H  H26  1  0.96250000  0.61890000  0.20180000  1
  H  H27  1  0.53750000  0.61890000  0.70180000  1
  H  H28  1  0.44170000  0.58290000  0.69520000  1
  H  H29  1  0.05830000  0.58290000  0.19520000  1
  H  H30  1  0.47780000  0.54060000  0.93500000  1
  H  H31  1  0.02220000  0.54060000  0.43500000  1
  H  H32  1  0.99700000  0.52570000  0.26600000  1
  H  H33  1  0.50300000  0.52570000  0.76600000  1
  H  H34  1  0.49700000  0.47430000  0.23400000  1
  H  H35  1  0.00300000  0.47430000  0.73400000  1
  H  H36  1  0.97780000  0.45940000  0.56500000  1
  H  H37  1  0.52220000  0.45940000  0.06500000  1
  H  H38  1  0.94170000  0.41710000  0.80480000  1
  H  H39  1  0.55830000  0.41710000  0.30480000  1
  H  H40  1  0.46250000  0.38110000  0.29820000  1
  H  H41  1  0.03750000  0.38110000  0.79820000  1
  H  H42  1  0.82330000  0.34410000  0.84780000  1
  H  H43  1  0.67670000  0.34410000  0.34780000  1
  H  H44  1  0.92130000  0.27510000  0.64530000  1
  H  H45  1  0.57870000  0.27510000  0.14530000  1
  H  H46  1  0.42690000  0.26600000  0.34280000  1
  H  H47  1  0.07310000  0.26600000  0.84280000  1
  H  H48  1  0.29800000  0.22250000  0.89960000  1
  H  H49  1  0.20200000  0.22250000  0.39960000  1
  H  H50  1  0.89110000  0.16930000  0.93350000  1
  H  H51  1  0.60890000  0.16930000  0.43350000  1
  H  H52  1  0.45090000  0.14270000  0.44760000  1
  H  H53  1  0.04910000  0.14270000  0.94760000  1
  H  H54  1  0.44730000  0.10180000  0.38470000  1
  H  H55  1  0.05270000  0.10180000  0.88470000  1
  H  H56  1  0.34500000  0.04500000  0.43900000  1
  H  H57  1  0.15500000  0.04500000  0.93900000  1
  H  H58  1  0.41840000  0.04480000  0.95800000  1
  H  H59  1  0.08160000  0.04480000  0.45800000  1
  C  C60  1  0.78660000  0.96530000  0.54670000  1
  C  C61  1  0.71340000  0.96530000  0.04670000  1
  C  C62  1  0.28020000  0.95480000  0.97220000  1
  C  C63  1  0.21980000  0.95480000  0.47220000  1
  C  C64  1  0.86680000  0.93060000  0.55140000  1
  C  C65  1  0.63320000  0.93060000  0.05140000  1
  C  C66  1  0.79070000  0.93030000  0.06290000  1
  C  C67  1  0.70930000  0.93030000  0.56290000  1
  C  C68  1  0.87120000  0.85950000  0.57010000  1
  C  C69  1  0.62880000  0.85950000  0.07010000  1
  C  C70  1  0.78650000  0.85900000  0.08170000  1
  C  C71  1  0.71350000  0.85900000  0.58170000  1
  C  C72  1  0.94120000  0.84920000  0.09160000  1
  C  C73  1  0.55880000  0.84920000  0.59160000  1
  C  C74  1  0.79450000  0.82470000  0.58630000  1
  C  C75  1  0.70550000  0.82470000  0.08630000  1
  C  C76  1  0.95880000  0.81660000  0.57060000  1
  C  C77  1  0.54120000  0.81660000  0.07060000  1
  C  C78  1  0.40620000  0.79480000  0.59070000  1
  C  C79  1  0.09380000  0.79480000  0.09070000  1
  C  C80  1  0.49170000  0.79090000  0.60940000  1
  C  C81  1  0.00830000  0.79090000  0.10940000  1
  C  C82  1  0.25140000  0.75180000  0.08780000  1
  C  C83  1  0.24860000  0.75180000  0.58780000  1
  C  C84  1  0.34240000  0.74590000  0.60750000  1
  C  C85  1  0.15760000  0.74590000  0.10750000  1
  C  C86  1  0.98500000  0.73660000  0.14440000  1
  C  C87  1  0.51500000  0.73660000  0.64440000  1
  C  C88  1  0.36580000  0.69010000  0.64190000  1
  C  C89  1  0.13420000  0.69010000  0.14190000  1
  C  C90  1  0.42200000  0.68660000  0.95950000  1
  C  C91  1  0.07800000  0.68660000  0.45950000  1
  C  C92  1  0.45160000  0.68550000  0.66060000  1
  C  C93  1  0.04840000  0.68550000  0.16060000  1
  C  C94  1  0.43860000  0.67380000  0.85400000  1
  C  C95  1  0.06140000  0.67380000  0.35400000  1
  C  C96  1  0.44370000  0.63920000  0.90470000  1
  C  C97  1  0.05630000  0.63920000  0.40470000  1
  C  C98  1  0.47470000  0.63060000  0.70320000  1
  C  C99  1  0.02530000  0.63060000  0.20320000  1
  C  C100  1  0.46030000  0.62900000  0.80210000  1
  C  C101  1  0.03970000  0.62900000  0.30210000  1
  C  C102  1  0.47300000  0.56330000  0.90170000  1
  C  C103  1  0.02700000  0.56330000  0.40170000  1
  C  C104  1  0.47520000  0.56200000  0.15150000  1
  C  C105  1  0.02480000  0.56200000  0.65150000  1
  C  C106  1  0.48840000  0.55440000  0.80040000  1
  C  C107  1  0.01160000  0.55440000  0.30040000  1
  C  C108  1  0.49480000  0.52180000  0.85180000  1
  C  C109  1  0.00520000  0.52180000  0.35180000  1
  C  C110  1  0.99480000  0.47820000  0.64820000  1
  C  C111  1  0.50520000  0.47820000  0.14820000  1
  C  C112  1  0.98840000  0.44560000  0.69960000  1
  C  C113  1  0.51160000  0.44560000  0.19960000  1
  C  C114  1  0.97520000  0.43800000  0.34850000  1
  C  C115  1  0.52480000  0.43800000  0.84850000  1
  C  C116  1  0.97300000  0.43670000  0.59830000  1
  C  C117  1  0.52700000  0.43670000  0.09830000  1
  C  C118  1  0.96030000  0.37100000  0.69790000  1
  C  C119  1  0.53970000  0.37100000  0.19790000  1
  C  C120  1  0.97470000  0.36940000  0.79680000  1
  C  C121  1  0.52530000  0.36940000  0.29680000  1
  C  C122  1  0.94370000  0.36080000  0.59530000  1
  C  C123  1  0.55630000  0.36080000  0.09530000  1
  C  C124  1  0.93860000  0.32620000  0.64600000  1
  C  C125  1  0.56140000  0.32620000  0.14600000  1
  C  C126  1  0.95160000  0.31450000  0.83940000  1
  C  C127  1  0.54840000  0.31450000  0.33940000  1
  C  C128  1  0.92200000  0.31340000  0.54050000  1
  C  C129  1  0.57800000  0.31340000  0.04050000  1
  C  C130  1  0.86580000  0.30990000  0.85810000  1
  C  C131  1  0.63420000  0.30990000  0.35810000  1
  C  C132  1  0.48500000  0.26340000  0.35560000  1
  C  C133  1  0.01500000  0.26340000  0.85560000  1
  C  C134  1  0.84240000  0.25410000  0.89250000  1
  C  C135  1  0.65760000  0.25410000  0.39250000  1
  C  C136  1  0.75140000  0.24820000  0.41220000  1
  C  C137  1  0.74860000  0.24820000  0.91220000  1
  C  C138  1  0.99170000  0.20910000  0.89060000  1
  C  C139  1  0.50830000  0.20910000  0.39060000  1
  C  C140  1  0.90620000  0.20520000  0.90930000  1
  C  C141  1  0.59380000  0.20520000  0.40930000  1
  C  C142  1  0.45880000  0.18340000  0.92940000  1
  C  C143  1  0.04120000  0.18340000  0.42940000  1
  C  C144  1  0.29450000  0.17530000  0.91370000  1
  C  C145  1  0.20550000  0.17530000  0.41370000  1
  C  C146  1  0.44120000  0.15080000  0.40840000  1
  C  C147  1  0.05880000  0.15080000  0.90840000  1
  C  C148  1  0.28650000  0.14100000  0.41830000  1
  C  C149  1  0.21350000  0.14100000  0.91830000  1
  C  C150  1  0.37120000  0.14050000  0.92990000  1
  C  C151  1  0.12880000  0.14050000  0.42990000  1
  C  C152  1  0.29070000  0.06970000  0.43710000  1
  C  C153  1  0.20930000  0.06970000  0.93710000  1
  C  C154  1  0.36680000  0.06940000  0.94860000  1
  C  C155  1  0.13320000  0.06940000  0.44860000  1
  C  C156  1  0.78020000  0.04520000  0.52780000  1
  C  C157  1  0.71980000  0.04520000  0.02780000  1
  C  C158  1  0.28660000  0.03470000  0.95330000  1
  C  C159  1  0.21340000  0.03470000  0.45330000  1
  O  O160  1  0.35590000  0.92980000  0.98730000  1
  O  O161  1  0.14410000  0.92980000  0.48730000  1
  O  O162  1  0.28900000  0.92270000  0.47430000  1
  O  O163  1  0.21100000  0.92270000  0.97430000  1
  O  O164  1  0.47360000  0.85520000  0.06300000  1
  O  O165  1  0.02640000  0.85520000  0.56300000  1
  O  O166  1  0.85660000  0.81830000  0.09810000  1
  O  O167  1  0.64340000  0.81830000  0.59810000  1
  O  O168  1  0.26970000  0.80830000  0.06300000  1
  O  O169  1  0.23030000  0.80830000  0.56300000  1
  O  O170  1  0.40060000  0.75680000  0.95745000  1
  O  O171  1  0.09940000  0.75680000  0.45745000  1
  O  O172  1  0.95810000  0.75030000  0.58120000  1
  O  O173  1  0.54190000  0.75030000  0.08120000  1
  O  O174  1  0.30520000  0.69950000  0.09690000  1
  O  O175  1  0.19480000  0.69950000  0.59690000  1
  O  O176  1  0.45150000  0.66850000  0.75643000  1
  O  O177  1  0.04850000  0.66850000  0.25643000  1
  O  O178  1  0.42850000  0.65520000  0.00283000  1
  O  O179  1  0.07150000  0.65520000  0.50283000  1
  O  O180  1  0.45890000  0.59920000  0.19850000  1
  O  O181  1  0.04110000  0.59920000  0.69850000  1
  O  O182  1  0.46980000  0.58620000  0.10404000  1
  O  O183  1  0.03020000  0.58620000  0.60404000  1
  O  O184  1  0.96980000  0.41380000  0.39596000  1
  O  O185  1  0.53020000  0.41380000  0.89596000  1
  O  O186  1  0.95890000  0.40080000  0.30150000  1
  O  O187  1  0.54110000  0.40080000  0.80150000  1
  O  O188  1  0.92850000  0.34480000  0.49717000  1
  O  O189  1  0.57150000  0.34480000  0.99717000  1
  O  O190  1  0.95150000  0.33150000  0.74357000  1
  O  O191  1  0.54850000  0.33150000  0.24357000  1
  O  O192  1  0.80520000  0.30050000  0.40310000  1
  O  O193  1  0.69480000  0.30050000  0.90310000  1
  O  O194  1  0.45810000  0.24970000  0.91880000  1
  O  O195  1  0.04190000  0.24970000  0.41880000  1
  O  O196  1  0.90060000  0.24320000  0.54255000  1
  O  O197  1  0.59940000  0.24320000  0.04255000  1
  O  O198  1  0.76970000  0.19170000  0.43700000  1
  O  O199  1  0.73030000  0.19170000  0.93700000  1
  O  O200  1  0.35660000  0.18170000  0.40190000  1
  O  O201  1  0.14340000  0.18170000  0.90190000  1
  O  O202  1  0.97360000  0.14480000  0.43700000  1
  O  O203  1  0.52640000  0.14480000  0.93700000  1
  O  O204  1  0.78900000  0.07730000  0.02570000  1
  O  O205  1  0.71100000  0.07730000  0.52570000  1
  O  O206  1  0.85590000  0.07020000  0.51270000  1
  O  O207  1  0.64410000  0.07020000  0.01270000  1
