# generated using pymatgen
data_Eu3S7O29
_symmetry_space_group_name_H-M   'P 1'
_cell_length_a   10.09660000
_cell_length_b   14.32800000
_cell_length_c   14.32800000
_cell_angle_alpha   120.00000000
_cell_angle_beta   90.00000000
_cell_angle_gamma   90.00000000
_symmetry_Int_Tables_number   1
_chemical_formula_structural   Eu3S7O29
_chemical_formula_sum   'Eu6 S14 O58'
_cell_volume   1795.05156369
_cell_formula_units_Z   2
loop_
 _symmetry_equiv_pos_site_id
 _symmetry_equiv_pos_as_xyz
  1  'x, y, z'
loop_
 _atom_site_type_symbol
 _atom_site_label
 _atom_site_symmetry_multiplicity
 _atom_site_fract_x
 _atom_site_fract_y
 _atom_site_fract_z
 _atom_site_occupancy
  Eu  Eu0  1  0.88692000  0.85653000  0.44060000  1
  Eu  Eu1  1  0.88692000  0.58407000  0.14347000  1
  Eu  Eu2  1  0.88692000  0.55940000  0.41593000  1
  Eu  Eu3  1  0.38692000  0.44060000  0.85653000  1
  Eu  Eu4  1  0.38692000  0.41593000  0.55940000  1
  Eu  Eu5  1  0.38692000  0.14347000  0.58407000  1
  S  S6  1  0.13672000  0.99511000  0.51951000  1
  S  S7  1  0.92502000  0.85643000  0.19360000  1
  S  S8  1  0.92502000  0.80640000  0.66283000  1
  S  S9  1  0.67592000  0.66666667  0.33333333  1
  S  S10  1  0.42502000  0.66283000  0.80640000  1
  S  S11  1  0.13672000  0.52440000  0.00489000  1
  S  S12  1  0.63672000  0.51951000  0.99511000  1
  S  S13  1  0.13672000  0.48049000  0.47560000  1
  S  S14  1  0.63672000  0.47560000  0.48049000  1
  S  S15  1  0.92502000  0.33717000  0.14357000  1
  S  S16  1  0.17592000  0.33333333  0.66666667  1
  S  S17  1  0.42502000  0.19360000  0.85643000  1
  S  S18  1  0.42502000  0.14357000  0.33717000  1
  S  S19  1  0.63672000  0.00489000  0.52440000  1
  O  O20  1  0.71880000  0.97063000  0.58764000  1
  O  O21  1  0.49850000  0.96889000  0.51624000  1
  O  O22  1  0.69970000  0.95305000  0.41705000  1
  O  O23  1  0.94350000  0.90770000  0.31133000  1
  O  O24  1  0.02080000  0.90531000  0.15272000  1
  O  O25  1  0.13290000  0.87740000  0.45152000  1
  O  O26  1  0.79040000  0.87510000  0.17007000  1
  O  O27  1  0.95470000  0.85545000  0.59640000  1
  O  O28  1  0.02080000  0.84728000  0.75259000  1
  O  O29  1  0.79040000  0.82993000  0.70503000  1
  O  O30  1  0.52080000  0.75259000  0.84728000  1
  O  O31  1  0.95470000  0.74095000  0.14455000  1
  O  O32  1  0.73360000  0.72241000  0.44457000  1
  O  O33  1  0.73360000  0.72216000  0.27759000  1
  O  O34  1  0.29040000  0.70503000  0.82993000  1
  O  O35  1  0.94350000  0.68867000  0.59637000  1
  O  O36  1  0.97160000  0.66666667  0.33333333  1
  O  O37  1  0.53430000  0.66666667  0.33333333  1
  O  O38  1  0.71880000  0.61701000  0.02937000  1
  O  O39  1  0.45470000  0.59640000  0.85545000  1
  O  O40  1  0.44350000  0.59637000  0.68867000  1
  O  O41  1  0.21880000  0.58764000  0.97063000  1
  O  O42  1  0.69970000  0.58295000  0.53600000  1
  O  O43  1  0.13290000  0.57412000  0.12260000  1
  O  O44  1  0.73360000  0.55543000  0.27784000  1
  O  O45  1  0.13290000  0.54848000  0.42588000  1
  O  O46  1  0.49850000  0.54735000  0.03111000  1
  O  O47  1  0.19970000  0.53600000  0.58295000  1
  O  O48  1  0.99850000  0.51624000  0.96889000  1
  O  O49  1  0.49850000  0.48376000  0.45265000  1
  O  O50  1  0.69970000  0.46400000  0.04695000  1
  O  O51  1  0.99850000  0.45265000  0.48376000  1
  O  O52  1  0.63290000  0.45152000  0.87740000  1
  O  O53  1  0.23360000  0.44457000  0.72241000  1
  O  O54  1  0.63290000  0.42588000  0.54848000  1
  O  O55  1  0.19970000  0.41705000  0.95305000  1
  O  O56  1  0.71880000  0.41236000  0.38299000  1
  O  O57  1  0.94350000  0.40363000  0.09230000  1
  O  O58  1  0.95470000  0.40360000  0.25905000  1
  O  O59  1  0.21880000  0.38299000  0.41236000  1
  O  O60  1  0.47160000  0.33333333  0.66666667  1
  O  O61  1  0.03430000  0.33333333  0.66666667  1
  O  O62  1  0.44350000  0.31133000  0.90770000  1
  O  O63  1  0.79040000  0.29497000  0.12490000  1
  O  O64  1  0.23360000  0.27784000  0.55543000  1
  O  O65  1  0.23360000  0.27759000  0.72216000  1
  O  O66  1  0.45470000  0.25905000  0.40360000  1
  O  O67  1  0.02080000  0.24741000  0.09469000  1
  O  O68  1  0.29040000  0.17007000  0.87510000  1
  O  O69  1  0.52080000  0.15272000  0.90531000  1
  O  O70  1  0.45470000  0.14455000  0.74095000  1
  O  O71  1  0.29040000  0.12490000  0.29497000  1
  O  O72  1  0.63290000  0.12260000  0.57412000  1
  O  O73  1  0.52080000  0.09469000  0.24741000  1
  O  O74  1  0.44350000  0.09230000  0.40363000  1
  O  O75  1  0.19970000  0.04695000  0.46400000  1
  O  O76  1  0.99850000  0.03111000  0.54735000  1
  O  O77  1  0.21880000  0.02937000  0.61701000  1
