# generated using pymatgen
data_In2CoH6C18(BrO7)2
_symmetry_space_group_name_H-M   'P 1'
_cell_length_a   10.27300000
_cell_length_b   11.31800000
_cell_length_c   16.46100000
_cell_angle_alpha   90.00000000
_cell_angle_beta   100.06400000
_cell_angle_gamma   90.00000000
_symmetry_Int_Tables_number   1
_chemical_formula_structural   In2CoH6C18(BrO7)2
_chemical_formula_sum   'In4 Co2 H12 C36 Br4 O28'
_cell_volume   1884.46828990
_cell_formula_units_Z   2
loop_
 _symmetry_equiv_pos_site_id
 _symmetry_equiv_pos_as_xyz
  1  'x, y, z'
loop_
 _atom_site_type_symbol
 _atom_site_label
 _atom_site_symmetry_multiplicity
 _atom_site_fract_x
 _atom_site_fract_y
 _atom_site_fract_z
 _atom_site_occupancy
  In  In0  1  0.26203000  0.69724000  0.42331000  1
  In  In1  1  0.26203000  0.80276000  0.92331000  1
  In  In2  1  0.73797000  0.19724000  0.07669000  1
  In  In3  1  0.73797000  0.30276000  0.57669000  1
  Co  Co4  1  0.50000000  0.00000000  0.00000000  1
  Co  Co5  1  0.50000000  0.50000000  0.50000000  1
  H  H6  1  0.08890000  0.09130000  0.74040000  1
  H  H7  1  0.08890000  0.40870000  0.24040000  1
  H  H8  1  0.20350000  0.18400000  0.07900000  1
  H  H9  1  0.20350000  0.31600000  0.57900000  1
  H  H10  1  0.47590000  0.13150000  0.73390000  1
  H  H11  1  0.47590000  0.36850000  0.23390000  1
  H  H12  1  0.52410000  0.63150000  0.76610000  1
  H  H13  1  0.52410000  0.86850000  0.26610000  1
  H  H14  1  0.79650000  0.68400000  0.42100000  1
  H  H15  1  0.79650000  0.81600000  0.92100000  1
  H  H16  1  0.91110000  0.59130000  0.75960000  1
  H  H17  1  0.91110000  0.90870000  0.25960000  1
  C  C18  1  0.01500000  0.74780000  0.87010000  1
  C  C19  1  0.01500000  0.75220000  0.37010000  1
  C  C20  1  0.12610000  0.21070000  0.65680000  1
  C  C21  1  0.12610000  0.28930000  0.15680000  1
  C  C22  1  0.15640000  0.12830000  0.71900000  1
  C  C23  1  0.15640000  0.37170000  0.21900000  1
  C  C24  1  0.22440000  0.23970000  0.12080000  1
  C  C25  1  0.22440000  0.26030000  0.62080000  1
  C  C26  1  0.28730000  0.10050000  0.74970000  1
  C  C27  1  0.28730000  0.39950000  0.24970000  1
  C  C28  1  0.32000000  0.02100000  0.82450000  1
  C  C29  1  0.32000000  0.47900000  0.32450000  1
  C  C30  1  0.35600000  0.22630000  0.64740000  1
  C  C31  1  0.35600000  0.27370000  0.14740000  1
  C  C32  1  0.38800000  0.14980000  0.71360000  1
  C  C33  1  0.38800000  0.35020000  0.21360000  1
  C  C34  1  0.46220000  0.22430000  0.10500000  1
  C  C35  1  0.46220000  0.27570000  0.60500000  1
  C  C36  1  0.53780000  0.72430000  0.39500000  1
  C  C37  1  0.53780000  0.77570000  0.89500000  1
  C  C38  1  0.61200000  0.64980000  0.78640000  1
  C  C39  1  0.61200000  0.85020000  0.28640000  1
  C  C40  1  0.64400000  0.72630000  0.85260000  1
  C  C41  1  0.64400000  0.77370000  0.35260000  1
  C  C42  1  0.68000000  0.52100000  0.67550000  1
  C  C43  1  0.68000000  0.97900000  0.17550000  1
  C  C44  1  0.71270000  0.60050000  0.75030000  1
  C  C45  1  0.71270000  0.89950000  0.25030000  1
  C  C46  1  0.77560000  0.73970000  0.37920000  1
  C  C47  1  0.77560000  0.76030000  0.87920000  1
  C  C48  1  0.84360000  0.62830000  0.78100000  1
  C  C49  1  0.84360000  0.87170000  0.28100000  1
  C  C50  1  0.87390000  0.71070000  0.84320000  1
  C  C51  1  0.87390000  0.78930000  0.34320000  1
  C  C52  1  0.98500000  0.24780000  0.62990000  1
  C  C53  1  0.98500000  0.25220000  0.12990000  1
  Br  Br54  1  0.28829000  0.63282000  0.03166000  1
  Br  Br55  1  0.28829000  0.86718000  0.53166000  1
  Br  Br56  1  0.71171000  0.13282000  0.46834000  1
  Br  Br57  1  0.71171000  0.36718000  0.96834000  1
  O  O58  1  0.04310000  0.67380000  0.42550000  1
  O  O59  1  0.04310000  0.82620000  0.92550000  1
  O  O60  1  0.10560000  0.70020000  0.83910000  1
  O  O61  1  0.10560000  0.79980000  0.33910000  1
  O  O62  1  0.23330000  0.55520000  0.33290000  1
  O  O63  1  0.23330000  0.94480000  0.83290000  1
  O  O64  1  0.32850000  0.57410000  0.51400000  1
  O  O65  1  0.32850000  0.92590000  0.01400000  1
  O  O66  1  0.41980000  0.74790000  0.86470000  1
  O  O67  1  0.41980000  0.75210000  0.36470000  1
  O  O68  1  0.42520000  0.03970000  0.87250000  1
  O  O69  1  0.42520000  0.46030000  0.37250000  1
  O  O70  1  0.42780000  0.16220000  0.04200000  1
  O  O71  1  0.42780000  0.33780000  0.54200000  1
  O  O72  1  0.57220000  0.66220000  0.45800000  1
  O  O73  1  0.57220000  0.83780000  0.95800000  1
  O  O74  1  0.57480000  0.53970000  0.62750000  1
  O  O75  1  0.57480000  0.96030000  0.12750000  1
  O  O76  1  0.58020000  0.24790000  0.63530000  1
  O  O77  1  0.58020000  0.25210000  0.13530000  1
  O  O78  1  0.67150000  0.07410000  0.98600000  1
  O  O79  1  0.67150000  0.42590000  0.48600000  1
  O  O80  1  0.76670000  0.05520000  0.16710000  1
  O  O81  1  0.76670000  0.44480000  0.66710000  1
  O  O82  1  0.89440000  0.20020000  0.66090000  1
  O  O83  1  0.89440000  0.29980000  0.16090000  1
  O  O84  1  0.95690000  0.17380000  0.07450000  1
  O  O85  1  0.95690000  0.32620000  0.57450000  1
