# generated using pymatgen
data_YbH32C40(NO)8
_symmetry_space_group_name_H-M   'P 1'
_cell_length_a   24.26000000
_cell_length_b   24.41500000
_cell_length_c   24.53100000
_cell_angle_alpha   83.56600000
_cell_angle_beta   62.29200000
_cell_angle_gamma   61.71700000
_symmetry_Int_Tables_number   1
_chemical_formula_structural   YbH32C40(NO)8
_chemical_formula_sum   'Yb6 H192 C240 N48 O48'
_cell_volume   11218.30837275
_cell_formula_units_Z   6
loop_
 _symmetry_equiv_pos_site_id
 _symmetry_equiv_pos_as_xyz
  1  'x, y, z'
loop_
 _atom_site_type_symbol
 _atom_site_label
 _atom_site_symmetry_multiplicity
 _atom_site_fract_x
 _atom_site_fract_y
 _atom_site_fract_z
 _atom_site_occupancy
  Yb  Yb0  1  0.15864000  0.27999000  0.13753000  1
  Yb  Yb1  1  0.25688000  0.71933000  0.26960000  1
  Yb  Yb2  1  0.34818000  0.85676000  0.71125000  1
  Yb  Yb3  1  0.65182000  0.14324000  0.28875000  1
  Yb  Yb4  1  0.74312000  0.28067000  0.73040000  1
  Yb  Yb5  1  0.84136000  0.72001000  0.86247000  1
  H  H6  1  0.00460000  0.46130000  0.15520000  1
  H  H7  1  0.00550000  0.16840000  0.11330000  1
  H  H8  1  0.01230000  0.81740000  0.52680000  1
  H  H9  1  0.03220000  0.83270000  0.19130000  1
  H  H10  1  0.03360000  0.63210000  0.69310000  1
  H  H11  1  0.04590000  0.45630000  0.24460000  1
  H  H12  1  0.04760000  0.05410000  0.65370000  1
  H  H13  1  0.05080000  0.06800000  0.82350000  1
  H  H14  1  0.05600000  0.64220000  0.79450000  1
  H  H15  1  0.05990000  0.48270000  0.89560000  1
  H  H16  1  0.06050000  0.86530000  0.85570000  1
  H  H17  1  0.06420000  0.54120000  0.24100000  1
  H  H18  1  0.06520000  0.82290000  0.42200000  1
  H  H19  1  0.06800000  0.89900000  0.33600000  1
  H  H20  1  0.07040000  0.19100000  0.38780000  1
  H  H21  1  0.07840000  0.62990000  0.58780000  1
  H  H22  1  0.08190000  0.21010000  0.07360000  1
  H  H23  1  0.08790000  0.60810000  0.27400000  1
  H  H24  1  0.09020000  0.15710000  0.19640000  1
  H  H25  1  0.09180000  0.63080000  0.48840000  1
  H  H26  1  0.11340000  0.42940000  0.94160000  1
  H  H27  1  0.11360000  0.68830000  0.26800000  1
  H  H28  1  0.11540000  0.06670000  0.24440000  1
  H  H29  1  0.11770000  0.19170000  0.28160000  1
  H  H30  1  0.13310000  0.91210000  0.81340000  1
  H  H31  1  0.13640000  0.68180000  0.75260000  1
  H  H32  1  0.14290000  0.63890000  0.38330000  1
  H  H33  1  0.14310000  0.25710000  0.98730000  1
  H  H34  1  0.14320000  0.78300000  0.18780000  1
  H  H35  1  0.15050000  0.06630000  0.63720000  1
  H  H36  1  0.15100000  0.99820000  0.30300000  1
  H  H37  1  0.16130000  0.00850000  0.82020000  1
  H  H38  1  0.16630000  0.17240000  0.93120000  1
  H  H39  1  0.17530000  0.37140000  0.99580000  1
  H  H40  1  0.17610000  0.81670000  0.43350000  1
  H  H41  1  0.17650000  0.90400000  0.34230000  1
  H  H42  1  0.18580000  0.05950000  0.94350000  1
  H  H43  1  0.18680000  0.26080000  0.28750000  1
  H  H44  1  0.19750000  0.72750000  0.70940000  1
  H  H45  1  0.20400000  0.85710000  0.89170000  1
  H  H46  1  0.20640000  0.85850000  0.48750000  1
  H  H47  1  0.20720000  0.84070000  0.98530000  1
  H  H48  1  0.21370000  0.96510000  0.89660000  1
  H  H49  1  0.22470000  0.87940000  0.55260000  1
  H  H50  1  0.23750000  0.84410000  0.05550000  1
  H  H51  1  0.24800000  0.82730000  0.14500000  1
  H  H52  1  0.24900000  0.33780000  0.19300000  1
  H  H53  1  0.24970000  0.38020000  0.06450000  1
  H  H54  1  0.25020000  0.91700000  0.61390000  1
  H  H55  1  0.25920000  0.01110000  0.63810000  1
  H  H56  1  0.26690000  0.26230000  0.31160000  1
  H  H57  1  0.26720000  0.77630000  0.66900000  1
  H  H58  1  0.27080000  0.59240000  0.39070000  1
  H  H59  1  0.27150000  0.42080000  0.18740000  1
  H  H60  1  0.28900000  0.49850000  0.14480000  1
  H  H61  1  0.29500000  0.09120000  0.07920000  1
  H  H62  1  0.31290000  0.57950000  0.14210000  1
  H  H63  1  0.32330000  0.00030000  0.12440000  1
  H  H64  1  0.32910000  0.39650000  0.97460000  1
  H  H65  1  0.33070000  0.16330000  0.98100000  1
  H  H66  1  0.33120000  0.90770000  0.14240000  1
  H  H67  1  0.34500000  0.14200000  0.13300000  1
  H  H68  1  0.34960000  0.23360000  0.34190000  1
  H  H69  1  0.35260000  0.50780000  0.41090000  1
  H  H70  1  0.35370000  0.81560000  0.18300000  1
  H  H71  1  0.35650000  0.68950000  0.72300000  1
  H  H72  1  0.35930000  0.07590000  0.92130000  1
  H  H73  1  0.36420000  0.66480000  0.36560000  1
  H  H74  1  0.37450000  0.00470000  0.67210000  1
  H  H75  1  0.37870000  0.03650000  0.82200000  1
  H  H76  1  0.38530000  0.66390000  0.98490000  1
  H  H77  1  0.38780000  0.19490000  0.02600000  1
  H  H78  1  0.39170000  0.64970000  0.07660000  1
  H  H79  1  0.39430000  0.53600000  0.20920000  1
  H  H80  1  0.39840000  0.71380000  0.80360000  1
  H  H81  1  0.39970000  0.70690000  0.41670000  1
  H  H82  1  0.40170000  0.39320000  0.40740000  1
  H  H83  1  0.40340000  0.69380000  0.89470000  1
  H  H84  1  0.40400000  0.94460000  0.77320000  1
  H  H85  1  0.40530000  0.05890000  0.58920000  1
  H  H86  1  0.41650000  0.73900000  0.25340000  1
  H  H87  1  0.42710000  0.14110000  0.15630000  1
  H  H88  1  0.43060000  0.81200000  0.82130000  1
  H  H89  1  0.43100000  0.24400000  0.35730000  1
  H  H90  1  0.43150000  0.75160000  0.45800000  1
  H  H91  1  0.43350000  0.59430000  0.73630000  1
  H  H92  1  0.43690000  0.10570000  0.51670000  1
  H  H93  1  0.44390000  0.39530000  0.93210000  1
  H  H94  1  0.45330000  0.79500000  0.52110000  1
  H  H95  1  0.46370000  0.59380000  0.14930000  1
  H  H96  1  0.46610000  0.21040000  0.93570000  1
  H  H97  1  0.47070000  0.15530000  0.43270000  1
  H  H98  1  0.47820000  0.45030000  0.22680000  1
  H  H99  1  0.48100000  0.29510000  0.41470000  1
  H  H100  1  0.48940000  0.17540000  0.16120000  1
  H  H101  1  0.49560000  0.24470000  0.82800000  1
  H  H102  1  0.50440000  0.75530000  0.17200000  1
  H  H103  1  0.51060000  0.82460000  0.83880000  1
  H  H104  1  0.51900000  0.70490000  0.58530000  1
  H  H105  1  0.52180000  0.54970000  0.77320000  1
  H  H106  1  0.52930000  0.84470000  0.56730000  1
  H  H107  1  0.53390000  0.78960000  0.06430000  1
  H  H108  1  0.53630000  0.40620000  0.85070000  1
  H  H109  1  0.54670000  0.20500000  0.47890000  1
  H  H110  1  0.55610000  0.60470000  0.06790000  1
  H  H111  1  0.56310000  0.89430000  0.48330000  1
  H  H112  1  0.56650000  0.40570000  0.26370000  1
  H  H113  1  0.56850000  0.24840000  0.54200000  1
  H  H114  1  0.56900000  0.75600000  0.64270000  1
  H  H115  1  0.56940000  0.18800000  0.17870000  1
  H  H116  1  0.57290000  0.85890000  0.84370000  1
  H  H117  1  0.58350000  0.26100000  0.74660000  1
  H  H118  1  0.59470000  0.94110000  0.41080000  1
  H  H119  1  0.59600000  0.05540000  0.22680000  1
  H  H120  1  0.59660000  0.30620000  0.10530000  1
  H  H121  1  0.59830000  0.60680000  0.59260000  1
  H  H122  1  0.60030000  0.29310000  0.58330000  1
  H  H123  1  0.60160000  0.28620000  0.19640000  1
  H  H124  1  0.60570000  0.46400000  0.79080000  1
  H  H125  1  0.60830000  0.35030000  0.92340000  1
  H  H126  1  0.61220000  0.80510000  0.97400000  1
  H  H127  1  0.61470000  0.33610000  0.01510000  1
  H  H128  1  0.62130000  0.96350000  0.17800000  1
  H  H129  1  0.62550000  0.99530000  0.32790000  1
  H  H130  1  0.63580000  0.33520000  0.63440000  1
  H  H131  1  0.64070000  0.92410000  0.07870000  1
  H  H132  1  0.64350000  0.31050000  0.27700000  1
  H  H133  1  0.64630000  0.18440000  0.81700000  1
  H  H134  1  0.64740000  0.49220000  0.58910000  1
  H  H135  1  0.65040000  0.76640000  0.65810000  1
  H  H136  1  0.65500000  0.85800000  0.86700000  1
  H  H137  1  0.66880000  0.09230000  0.85760000  1
  H  H138  1  0.66930000  0.83670000  0.01900000  1
  H  H139  1  0.67090000  0.60350000  0.02540000  1
  H  H140  1  0.67670000  0.99970000  0.87560000  1
  H  H141  1  0.68710000  0.42050000  0.85790000  1
  H  H142  1  0.70500000  0.90880000  0.92080000  1
  H  H143  1  0.71100000  0.50150000  0.85520000  1
  H  H144  1  0.72850000  0.57920000  0.81260000  1
  H  H145  1  0.72920000  0.40760000  0.60930000  1
  H  H146  1  0.73280000  0.22370000  0.33100000  1
  H  H147  1  0.73310000  0.73770000  0.68840000  1
  H  H148  1  0.74080000  0.98890000  0.36190000  1
  H  H149  1  0.74980000  0.08300000  0.38610000  1
  H  H150  1  0.75030000  0.61980000  0.93550000  1
  H  H151  1  0.75100000  0.66220000  0.80700000  1
  H  H152  1  0.75200000  0.17270000  0.85500000  1
  H  H153  1  0.76250000  0.15590000  0.94450000  1
  H  H154  1  0.77530000  0.12060000  0.44740000  1
  H  H155  1  0.78630000  0.03490000  0.10340000  1
  H  H156  1  0.79280000  0.15930000  0.01470000  1
  H  H157  1  0.79360000  0.14150000  0.51250000  1
  H  H158  1  0.79600000  0.14290000  0.10830000  1
  H  H159  1  0.80250000  0.27250000  0.29060000  1
  H  H160  1  0.81320000  0.73920000  0.71250000  1
  H  H161  1  0.81420000  0.94050000  0.05650000  1
  H  H162  1  0.82350000  0.09600000  0.65770000  1
  H  H163  1  0.82390000  0.18330000  0.56650000  1
  H  H164  1  0.82470000  0.62860000  0.00420000  1
  H  H165  1  0.83370000  0.82760000  0.06880000  1
  H  H166  1  0.83870000  0.99150000  0.17980000  1
  H  H167  1  0.84900000  0.00180000  0.69700000  1
  H  H168  1  0.84950000  0.93370000  0.36280000  1
  H  H169  1  0.85680000  0.21700000  0.81220000  1
  H  H170  1  0.85690000  0.74290000  0.01270000  1
  H  H171  1  0.85710000  0.36110000  0.61670000  1
  H  H172  1  0.86360000  0.31820000  0.24740000  1
  H  H173  1  0.86690000  0.08790000  0.18660000  1
  H  H174  1  0.88230000  0.80830000  0.71840000  1
  H  H175  1  0.88460000  0.93330000  0.75560000  1
  H  H176  1  0.88640000  0.31170000  0.73200000  1
  H  H177  1  0.88660000  0.57060000  0.05840000  1
  H  H178  1  0.90820000  0.36920000  0.51160000  1
  H  H179  1  0.90980000  0.84290000  0.80360000  1
  H  H180  1  0.91210000  0.39190000  0.72600000  1
  H  H181  1  0.91810000  0.78990000  0.92640000  1
  H  H182  1  0.92160000  0.37010000  0.41220000  1
  H  H183  1  0.92960000  0.80900000  0.61220000  1
  H  H184  1  0.93200000  0.10100000  0.66400000  1
  H  H185  1  0.93480000  0.17710000  0.57800000  1
  H  H186  1  0.93580000  0.45880000  0.75900000  1
  H  H187  1  0.93950000  0.13470000  0.14430000  1
  H  H188  1  0.94010000  0.51730000  0.10440000  1
  H  H189  1  0.94400000  0.35780000  0.20550000  1
  H  H190  1  0.94920000  0.93200000  0.17650000  1
  H  H191  1  0.95240000  0.94590000  0.34630000  1
  H  H192  1  0.95410000  0.54370000  0.75540000  1
  H  H193  1  0.96640000  0.36790000  0.30690000  1
  H  H194  1  0.96780000  0.16730000  0.80870000  1
  H  H195  1  0.98770000  0.18260000  0.47320000  1
  H  H196  1  0.99450000  0.83160000  0.88670000  1
  H  H197  1  0.99540000  0.53870000  0.84480000  1
  C  C198  1  0.00810000  0.79270000  0.86700000  1
  C  C199  1  0.00890000  0.08590000  0.68750000  1
  C  C200  1  0.01090000  0.51170000  0.91910000  1
  C  C201  1  0.01250000  0.72090000  0.58760000  1
  C  C202  1  0.01300000  0.66870000  0.67630000  1
  C  C203  1  0.01960000  0.10450000  0.73080000  1
  C  C204  1  0.02050000  0.48140000  0.01630000  1
  C  C205  1  0.02710000  0.45450000  0.11100000  1
  C  C206  1  0.03740000  0.23210000  0.10950000  1
  C  C207  1  0.03840000  0.84650000  0.22180000  1
  C  C208  1  0.03920000  0.78010000  0.49810000  1
  C  C209  1  0.03980000  0.66780000  0.61420000  1
  C  C210  1  0.04390000  0.68100000  0.81300000  1
  C  C211  1  0.04550000  0.72380000  0.52040000  1
  C  C212  1  0.04780000  0.22730000  0.37180000  1
  C  C213  1  0.06010000  0.88550000  0.30670000  1
  C  C214  1  0.07070000  0.78360000  0.43600000  1
  C  C215  1  0.07320000  0.76200000  0.81520000  1
  C  C216  1  0.07560000  0.22740000  0.30890000  1
  C  C217  1  0.08580000  0.67050000  0.47550000  1
  C  C218  1  0.08880000  0.07150000  0.72980000  1
  C  C219  1  0.08980000  0.43700000  0.98580000  1
  C  C220  1  0.09160000  0.70460000  0.78800000  1
  C  C221  1  0.09230000  0.44940000  0.23250000  1
  C  C222  1  0.09300000  0.05520000  0.78490000  1
  C  C223  1  0.10290000  0.49990000  0.23060000  1
  C  C224  1  0.10290000  0.84640000  0.81740000  1
  C  C225  1  0.10470000  0.81780000  0.21870000  1
  C  C226  1  0.11670000  0.67520000  0.41320000  1
  C  C227  1  0.12110000  0.79100000  0.78760000  1
  C  C228  1  0.12690000  0.40240000  0.01800000  1
  C  C229  1  0.13460000  0.60140000  0.24650000  1
  C  C230  1  0.13790000  0.12480000  0.18200000  1
  C  C231  1  0.14570000  0.87460000  0.79200000  1
  C  C232  1  0.14980000  0.64890000  0.24310000  1
  C  C233  1  0.15180000  0.05480000  0.67500000  1
  C  C234  1  0.15310000  0.07060000  0.21010000  1
  C  C235  1  0.15850000  0.02040000  0.78300000  1
  C  C236  1  0.17080000  0.49090000  0.21310000  1
  C  C237  1  0.18340000  0.76540000  0.73120000  1
  C  C238  1  0.18640000  0.54280000  0.21020000  1
  C  C239  1  0.18690000  0.21940000  0.97470000  1
  C  C240  1  0.19260000  0.96100000  0.27780000  1
  C  C241  1  0.20100000  0.16920000  0.94120000  1
  C  C242  1  0.20780000  0.90530000  0.30100000  1
  C  C243  1  0.21160000  0.37970000  0.20210000  1
  C  C244  1  0.21620000  0.02140000  0.67530000  1
  C  C245  1  0.22090000  0.02290000  0.18950000  1
  C  C246  1  0.22160000  0.79340000  0.43150000  1
  C  C247  1  0.22450000  0.79450000  0.70720000  1
  C  C248  1  0.22480000  0.42900000  0.19910000  1
  C  C249  1  0.23140000  0.03560000  0.90930000  1
  C  C250  1  0.23630000  0.23750000  0.26020000  1
  C  C251  1  0.23780000  0.96380000  0.21720000  1
  C  C252  1  0.23960000  0.81840000  0.46310000  1
  C  C253  1  0.24540000  0.82430000  0.89250000  1
  C  C254  1  0.24700000  0.81440000  0.94810000  1
  C  C255  1  0.24760000  0.97960000  0.88130000  1
  C  C256  1  0.25240000  0.53700000  0.17110000  1
  C  C257  1  0.25820000  0.08580000  0.11320000  1
  C  C258  1  0.26370000  0.11460000  0.92140000  1
  C  C259  1  0.26660000  0.58530000  0.16910000  1
  C  C260  1  0.26990000  0.80380000  0.05890000  1
  C  C261  1  0.27230000  0.86050000  0.54530000  1
  C  C262  1  0.27510000  0.03180000  0.13960000  1
  C  C263  1  0.27620000  0.79380000  0.11170000  1
  C  C264  1  0.27920000  0.05630000  0.88870000  1
  C  C265  1  0.28380000  0.23770000  0.27440000  1
  C  C266  1  0.28730000  0.88300000  0.58160000  1
  C  C267  1  0.29420000  0.34580000  0.03800000  1
  C  C268  1  0.29690000  0.16460000  0.97080000  1
  C  C269  1  0.29850000  0.90760000  0.18340000  1
  C  C270  1  0.30540000  0.78630000  0.46030000  1
  C  C271  1  0.30630000  0.76630000  0.95000000  1
  C  C272  1  0.30960000  0.75600000  0.01010000  1
  C  C273  1  0.31210000  0.85320000  0.20740000  1
  C  C274  1  0.31330000  0.56250000  0.35720000  1
  C  C275  1  0.31410000  0.11220000  0.93540000  1
  C  C276  1  0.32420000  0.81070000  0.49770000  1
  C  C277  1  0.32950000  0.16730000  0.16920000  1
  C  C278  1  0.33190000  0.70450000  0.39100000  1
  C  C279  1  0.34140000  0.35520000  0.98520000  1
  C  C280  1  0.34450000  0.02230000  0.83760000  1
  C  C281  1  0.35270000  0.72930000  0.42200000  1
  C  C282  1  0.35630000  0.69800000  0.01760000  1
  C  C283  1  0.35660000  0.20320000  0.23640000  1
  C  C284  1  0.35930000  0.74000000  0.84110000  1
  C  C285  1  0.35970000  0.96740000  0.80920000  1
  C  C286  1  0.36070000  0.68980000  0.07150000  1
  C  C287  1  0.36140000  0.51240000  0.36910000  1
  C  C288  1  0.36240000  0.72830000  0.89470000  1
  C  C289  1  0.37590000  0.23610000  0.01500000  1
  C  C290  1  0.37790000  0.16670000  0.18320000  1
  C  C291  1  0.38590000  0.52930000  0.25060000  1
  C  C292  1  0.39330000  0.78590000  0.48960000  1
  C  C293  1  0.39430000  0.22470000  0.30740000  1
  C  C294  1  0.40620000  0.67310000  0.69760000  1
  C  C295  1  0.40620000  0.81140000  0.52770000  1
  C  C296  1  0.40890000  0.20680000  0.24930000  1
  C  C297  1  0.40890000  0.30460000  0.94540000  1
  C  C298  1  0.41410000  0.98230000  0.63310000  1
  C  C299  1  0.42260000  0.24560000  0.96210000  1
  C  C300  1  0.42340000  0.46780000  0.32140000  1
  C  C301  1  0.43240000  0.01450000  0.58400000  1
  C  C302  1  0.43520000  0.47860000  0.26100000  1
  C  C303  1  0.44280000  0.23010000  0.31680000  1
  C  C304  1  0.44430000  0.71280000  0.21460000  1
  C  C305  1  0.45080000  0.37600000  0.37890000  1
  C  C306  1  0.45170000  0.61680000  0.70510000  1
  C  C307  1  0.46200000  0.31620000  0.89020000  1
  C  C308  1  0.47250000  0.62670000  0.15340000  1
  C  C309  1  0.47360000  0.36620000  0.89500000  1
  C  C310  1  0.47430000  0.40910000  0.33270000  1
  C  C311  1  0.47540000  0.08140000  0.47800000  1
  C  C312  1  0.47600000  0.19080000  0.20170000  1
  C  C313  1  0.47600000  0.80290000  0.78780000  1
  C  C314  1  0.49060000  0.98240000  0.52640000  1
  C  C315  1  0.49570000  0.11080000  0.42810000  1
  C  C316  1  0.49650000  0.72220000  0.16650000  1
  C  C317  1  0.49810000  0.31840000  0.38390000  1
  C  C318  1  0.50190000  0.68160000  0.61610000  1
  C  C319  1  0.50350000  0.27780000  0.83350000  1
  C  C320  1  0.50430000  0.88920000  0.57190000  1
  C  C321  1  0.50940000  0.01760000  0.47360000  1
  C  C322  1  0.52400000  0.19710000  0.21220000  1
  C  C323  1  0.52400000  0.80920000  0.79830000  1
  C  C324  1  0.52460000  0.91860000  0.52200000  1
  C  C325  1  0.52570000  0.59090000  0.66730000  1
  C  C326  1  0.52640000  0.63380000  0.10500000  1
  C  C327  1  0.52750000  0.37330000  0.84660000  1
  C  C328  1  0.53800000  0.68380000  0.10980000  1
  C  C329  1  0.54830000  0.38320000  0.29490000  1
  C  C330  1  0.54920000  0.62400000  0.62110000  1
  C  C331  1  0.55570000  0.28720000  0.78540000  1
  C  C332  1  0.55720000  0.76990000  0.68320000  1
  C  C333  1  0.56480000  0.52140000  0.73900000  1
  C  C334  1  0.56760000  0.98550000  0.41600000  1
  C  C335  1  0.57660000  0.53220000  0.67860000  1
  C  C336  1  0.57740000  0.75440000  0.03790000  1
  C  C337  1  0.58590000  0.01770000  0.36690000  1
  C  C338  1  0.59110000  0.69540000  0.05460000  1
  C  C339  1  0.59110000  0.79320000  0.75070000  1
  C  C340  1  0.59380000  0.18860000  0.47230000  1
  C  C341  1  0.59380000  0.32690000  0.30240000  1
  C  C342  1  0.60570000  0.77530000  0.69260000  1
  C  C343  1  0.60670000  0.21410000  0.51040000  1
  C  C344  1  0.61410000  0.47070000  0.74940000  1
  C  C345  1  0.62210000  0.83330000  0.81680000  1
  C  C346  1  0.62410000  0.76390000  0.98500000  1
  C  C347  1  0.63760000  0.27170000  0.10530000  1
  C  C348  1  0.63860000  0.48760000  0.63090000  1
  C  C349  1  0.63930000  0.31020000  0.92850000  1
  C  C350  1  0.64030000  0.03260000  0.19080000  1
  C  C351  1  0.64070000  0.26000000  0.15890000  1
  C  C352  1  0.64340000  0.79680000  0.76360000  1
  C  C353  1  0.64370000  0.30200000  0.98240000  1
  C  C354  1  0.64730000  0.27070000  0.57800000  1
  C  C355  1  0.65550000  0.97770000  0.16240000  1
  C  C356  1  0.65860000  0.64480000  0.01480000  1
  C  C357  1  0.66810000  0.29550000  0.60900000  1
  C  C358  1  0.67050000  0.83270000  0.83080000  1
  C  C359  1  0.67580000  0.18930000  0.50230000  1
  C  C360  1  0.68590000  0.88780000  0.06460000  1
  C  C361  1  0.68670000  0.43750000  0.64280000  1
  C  C362  1  0.68790000  0.14680000  0.79260000  1
  C  C363  1  0.69040000  0.24400000  0.98990000  1
  C  C364  1  0.69370000  0.23370000  0.05000000  1
  C  C365  1  0.69460000  0.21370000  0.53970000  1
  C  C366  1  0.70150000  0.09240000  0.81660000  1
  C  C367  1  0.70310000  0.83540000  0.02920000  1
  C  C368  1  0.70580000  0.65420000  0.96200000  1
  C  C369  1  0.71270000  0.11700000  0.41840000  1
  C  C370  1  0.71620000  0.76230000  0.72560000  1
  C  C371  1  0.72080000  0.94370000  0.11130000  1
  C  C372  1  0.72380000  0.20620000  0.88830000  1
  C  C373  1  0.72490000  0.96820000  0.86040000  1
  C  C374  1  0.72770000  0.13950000  0.45470000  1
  C  C375  1  0.73010000  0.19620000  0.94110000  1
  C  C376  1  0.73340000  0.41470000  0.83090000  1
  C  C377  1  0.73630000  0.88540000  0.07860000  1
  C  C378  1  0.74180000  0.91420000  0.88680000  1
  C  C379  1  0.74760000  0.46300000  0.82890000  1
  C  C380  1  0.75240000  0.02040000  0.11870000  1
  C  C381  1  0.75300000  0.18560000  0.05190000  1
  C  C382  1  0.75460000  0.17570000  0.10750000  1
  C  C383  1  0.76040000  0.18160000  0.53690000  1
  C  C384  1  0.76220000  0.03620000  0.78280000  1
  C  C385  1  0.76370000  0.76250000  0.73980000  1
  C  C386  1  0.76860000  0.96440000  0.09070000  1
  C  C387  1  0.77520000  0.57100000  0.80090000  1
  C  C388  1  0.77550000  0.20550000  0.29280000  1
  C  C389  1  0.77840000  0.20660000  0.56850000  1
  C  C390  1  0.77910000  0.97710000  0.81050000  1
  C  C391  1  0.78380000  0.97860000  0.32470000  1
  C  C392  1  0.78840000  0.62030000  0.79790000  1
  C  C393  1  0.79220000  0.09470000  0.69900000  1
  C  C394  1  0.79900000  0.83080000  0.05880000  1
  C  C395  1  0.80740000  0.03900000  0.72220000  1
  C  C396  1  0.81310000  0.78060000  0.02530000  1
  C  C397  1  0.81360000  0.45720000  0.78980000  1
  C  C398  1  0.81660000  0.23460000  0.26880000  1
  C  C399  1  0.82920000  0.50910000  0.78690000  1
  C  C400  1  0.84150000  0.97960000  0.21700000  1
  C  C401  1  0.84690000  0.92940000  0.78990000  1
  C  C402  1  0.84820000  0.94520000  0.32500000  1
  C  C403  1  0.85020000  0.35110000  0.75690000  1
  C  C404  1  0.85430000  0.12540000  0.20800000  1
  C  C405  1  0.86210000  0.87520000  0.81800000  1
  C  C406  1  0.86540000  0.39860000  0.75350000  1
  C  C407  1  0.87310000  0.59760000  0.98200000  1
  C  C408  1  0.87890000  0.20900000  0.21240000  1
  C  C409  1  0.88330000  0.32480000  0.58680000  1
  C  C410  1  0.89530000  0.18220000  0.78130000  1
  C  C411  1  0.89710000  0.15360000  0.18260000  1
  C  C412  1  0.89710000  0.50010000  0.76940000  1
  C  C413  1  0.90700000  0.94480000  0.21510000  1
  C  C414  1  0.90770000  0.55060000  0.76750000  1
  C  C415  1  0.90840000  0.29540000  0.21200000  1
  C  C416  1  0.91020000  0.56300000  0.01420000  1
  C  C417  1  0.91120000  0.92850000  0.27020000  1
  C  C418  1  0.91420000  0.32950000  0.52450000  1
  C  C419  1  0.92440000  0.77260000  0.69110000  1
  C  C420  1  0.92680000  0.23800000  0.18480000  1
  C  C421  1  0.92930000  0.21640000  0.56400000  1
  C  C422  1  0.93990000  0.11450000  0.69330000  1
  C  C423  1  0.95220000  0.77270000  0.62820000  1
  C  C424  1  0.95450000  0.27620000  0.47960000  1
  C  C425  1  0.95610000  0.31900000  0.18700000  1
  C  C426  1  0.96020000  0.33220000  0.38580000  1
  C  C427  1  0.96080000  0.21990000  0.50190000  1
  C  C428  1  0.96160000  0.15350000  0.77820000  1
  C  C429  1  0.96260000  0.76790000  0.89050000  1
  C  C430  1  0.97290000  0.54550000  0.88900000  1
  C  C431  1  0.97950000  0.51860000  0.98370000  1
  C  C432  1  0.98040000  0.89550000  0.26920000  1
  C  C433  1  0.98700000  0.33130000  0.32370000  1
  C  C434  1  0.98750000  0.27910000  0.41240000  1
  C  C435  1  0.98910000  0.48830000  0.08090000  1
  C  C436  1  0.99110000  0.91410000  0.31250000  1
  C  C437  1  0.99190000  0.20730000  0.13300000  1
  N  N438  1  0.02030000  0.28630000  0.13570000  1
  N  N439  1  0.04290000  0.27840000  0.28550000  1
  N  N440  1  0.09450000  0.41260000  0.08010000  1
  N  N441  1  0.11000000  0.73090000  0.39430000  1
  N  N442  1  0.11420000  0.83960000  0.26010000  1
  N  N443  1  0.14530000  0.39060000  0.21790000  1
  N  N444  1  0.19130000  0.13110000  0.13430000  1
  N  N445  1  0.20460000  0.84900000  0.73760000  1
  N  N446  1  0.21540000  0.64100000  0.20500000  1
  N  N447  1  0.21710000  0.00350000  0.72950000  1
  N  N448  1  0.23500000  0.21530000  0.98990000  1
  N  N449  1  0.26020000  0.20350000  0.20630000  1
  N  N450  1  0.26660000  0.73650000  0.39730000  1
  N  N451  1  0.26700000  0.85160000  0.26600000  1
  N  N452  1  0.30150000  0.78820000  0.83940000  1
  N  N453  1  0.31200000  0.28570000  0.05250000  1
  N  N454  1  0.31200000  0.94630000  0.83230000  1
  N  N455  1  0.32170000  0.73770000  0.11750000  1
  N  N456  1  0.32510000  0.57020000  0.29860000  1
  N  N457  1  0.35370000  0.85780000  0.57260000  1
  N  N458  1  0.43160000  0.70590000  0.65390000  1
  N  N459  1  0.43190000  0.66640000  0.20710000  1
  N  N460  1  0.45110000  0.92050000  0.62670000  1
  N  N461  1  0.49320000  0.78390000  0.73040000  1
  N  N462  1  0.50680000  0.21610000  0.26960000  1
  N  N463  1  0.54890000  0.07950000  0.37330000  1
  N  N464  1  0.56810000  0.33360000  0.79290000  1
  N  N465  1  0.56840000  0.29410000  0.34610000  1
  N  N466  1  0.64630000  0.14220000  0.42740000  1
  N  N467  1  0.67490000  0.42980000  0.70140000  1
  N  N468  1  0.67830000  0.26230000  0.88250000  1
  N  N469  1  0.68800000  0.05370000  0.16770000  1
  N  N470  1  0.68800000  0.71430000  0.94750000  1
  N  N471  1  0.69850000  0.21180000  0.16060000  1
  N  N472  1  0.73300000  0.14840000  0.73400000  1
  N  N473  1  0.73340000  0.26350000  0.60270000  1
  N  N474  1  0.73980000  0.79650000  0.79370000  1
  N  N475  1  0.76500000  0.78470000  0.01010000  1
  N  N476  1  0.78290000  0.99650000  0.27050000  1
  N  N477  1  0.78460000  0.35900000  0.79500000  1
  N  N478  1  0.79540000  0.15100000  0.26240000  1
  N  N479  1  0.80870000  0.86890000  0.86570000  1
  N  N480  1  0.85470000  0.60940000  0.78210000  1
  N  N481  1  0.88580000  0.16040000  0.73990000  1
  N  N482  1  0.89000000  0.26910000  0.60570000  1
  N  N483  1  0.90550000  0.58740000  0.91990000  1
  N  N484  1  0.95710000  0.72160000  0.71450000  1
  N  N485  1  0.97970000  0.71370000  0.86430000  1
  O  O486  1  0.06360000  0.27610000  0.22470000  1
  O  O487  1  0.06480000  0.30900000  0.11380000  1
  O  O488  1  0.13100000  0.38050000  0.11060000  1
  O  O489  1  0.13310000  0.34270000  0.22160000  1
  O  O490  1  0.13960000  0.73590000  0.33410000  1
  O  O491  1  0.17730000  0.18260000  0.10720000  1
  O  O492  1  0.17900000  0.81630000  0.25390000  1
  O  O493  1  0.21350000  0.20430000  0.19120000  1
  O  O494  1  0.21930000  0.26290000  0.02510000  1
  O  O495  1  0.23120000  0.68670000  0.20080000  1
  O  O496  1  0.24300000  0.87820000  0.71300000  1
  O  O497  1  0.24510000  0.71280000  0.36990000  1
  O  O498  1  0.26740000  0.27630000  0.10550000  1
  O  O499  1  0.27550000  0.61730000  0.28640000  1
  O  O500  1  0.27950000  0.79770000  0.28910000  1
  O  O501  1  0.28070000  0.96870000  0.72870000  1
  O  O502  1  0.29950000  0.79960000  0.78600000  1
  O  O503  1  0.32840000  0.89200000  0.80770000  1
  O  O504  1  0.33010000  0.72890000  0.16820000  1
  O  O505  1  0.36770000  0.88040000  0.60930000  1
  O  O506  1  0.37730000  0.66050000  0.25210000  1
  O  O507  1  0.38690000  0.76350000  0.65050000  1
  O  O508  1  0.43400000  0.89000000  0.67500000  1
  O  O509  1  0.44750000  0.77710000  0.72010000  1
  O  O510  1  0.55250000  0.22290000  0.27990000  1
  O  O511  1  0.56600000  0.11000000  0.32500000  1
  O  O512  1  0.61310000  0.23650000  0.34950000  1
  O  O513  1  0.62270000  0.33950000  0.74790000  1
  O  O514  1  0.63230000  0.11960000  0.39070000  1
  O  O515  1  0.66990000  0.27110000  0.83180000  1
  O  O516  1  0.67160000  0.10800000  0.19230000  1
  O  O517  1  0.70050000  0.20040000  0.21400000  1
  O  O518  1  0.71930000  0.03130000  0.27130000  1
  O  O519  1  0.72050000  0.20230000  0.71090000  1
  O  O520  1  0.72450000  0.38270000  0.71360000  1
  O  O521  1  0.73260000  0.72370000  0.89450000  1
  O  O522  1  0.75490000  0.28720000  0.63010000  1
  O  O523  1  0.75700000  0.12180000  0.28700000  1
  O  O524  1  0.76880000  0.31330000  0.79920000  1
  O  O525  1  0.78070000  0.73710000  0.97490000  1
  O  O526  1  0.78650000  0.79570000  0.80880000  1
  O  O527  1  0.82100000  0.18370000  0.74610000  1
  O  O528  1  0.82270000  0.81740000  0.89280000  1
  O  O529  1  0.86040000  0.26410000  0.66590000  1
  O  O530  1  0.86690000  0.65730000  0.77840000  1
  O  O531  1  0.86900000  0.61950000  0.88940000  1
  O  O532  1  0.93520000  0.69100000  0.88620000  1
  O  O533  1  0.93640000  0.72390000  0.77530000  1
