# generated using pymatgen
data_MgH8C13NO5
_symmetry_space_group_name_H-M   'P 1'
_cell_length_a   12.52417365
_cell_length_b   12.52417365
_cell_length_c   13.49210000
_cell_angle_alpha   62.59288188
_cell_angle_beta   62.59288188
_cell_angle_gamma   87.02810350
_symmetry_Int_Tables_number   1
_chemical_formula_structural   MgH8C13NO5
_chemical_formula_sum   'Mg4 H32 C52 N4 O20'
_cell_volume   1633.13848173
_cell_formula_units_Z   4
loop_
 _symmetry_equiv_pos_site_id
 _symmetry_equiv_pos_as_xyz
  1  'x, y, z'
loop_
 _atom_site_type_symbol
 _atom_site_label
 _atom_site_symmetry_multiplicity
 _atom_site_fract_x
 _atom_site_fract_y
 _atom_site_fract_z
 _atom_site_occupancy
  C  C0  1  0.39265000  0.61155000  0.99450000  1
  C  C1  1  0.61155000  0.39265000  0.49450000  1
  C  C2  1  0.48128000  0.54906000  0.01690000  1
  C  C3  1  0.54906000  0.48128000  0.51690000  1
  C  C4  1  0.35984000  0.70316000  0.02490000  1
  C  C5  1  0.70316000  0.35984000  0.52490000  1
  C  C6  1  0.53421000  0.58439000  0.07110000  1
  C  C7  1  0.58439000  0.53421000  0.57110000  1
  C  C8  1  0.17265000  0.99855000  0.45210000  1
  C  C9  1  0.99855000  0.17265000  0.95210000  1
  C  C10  1  0.11028000  0.06512000  0.51090000  1
  C  C11  1  0.06512000  0.11028000  0.01090000  1
  C  C12  1  0.49946000  0.67714000  0.09980000  1
  C  C13  1  0.67714000  0.49946000  0.59980000  1
  C  C14  1  0.32639000  0.98679000  0.25650000  1
  C  C15  1  0.98679000  0.32639000  0.75650000  1
  C  C16  1  0.26294000  0.06146000  0.00740000  1
  C  C17  1  0.06146000  0.26294000  0.50740000  1
  C  C18  1  0.26737000  0.05805000  0.32590000  1
  C  C19  1  0.05805000  0.26737000  0.82590000  1
  C  C20  1  0.19253000  0.13971000  0.94500000  1
  C  C21  1  0.13971000  0.19253000  0.44500000  1
  C  C22  1  0.30031000  0.18469000  0.26240000  1
  C  C23  1  0.18469000  0.30031000  0.76240000  1
  C  C24  1  0.25112000  0.23628000  0.82110000  1
  C  C25  1  0.23628000  0.25112000  0.32110000  1
  C  C26  1  0.74888000  0.76372000  0.17890000  1
  C  C27  1  0.76372000  0.74888000  0.67890000  1
  C  C28  1  0.69969000  0.81531000  0.73760000  1
  C  C29  1  0.81531000  0.69969000  0.23760000  1
  C  C30  1  0.80747000  0.86029000  0.05500000  1
  C  C31  1  0.86029000  0.80747000  0.55500000  1
  C  C32  1  0.73263000  0.94195000  0.67410000  1
  C  C33  1  0.94195000  0.73263000  0.17410000  1
  C  C34  1  0.73706000  0.93854000  0.99260000  1
  C  C35  1  0.93854000  0.73706000  0.49260000  1
  C  C36  1  0.67361000  0.01321000  0.74350000  1
  C  C37  1  0.01321000  0.67361000  0.24350000  1
  C  C38  1  0.50054000  0.32286000  0.90020000  1
  C  C39  1  0.32286000  0.50054000  0.40020000  1
  C  C40  1  0.88972000  0.93488000  0.48910000  1
  C  C41  1  0.93488000  0.88972000  0.98910000  1
  C  C42  1  0.82735000  0.00145000  0.54790000  1
  C  C43  1  0.00145000  0.82735000  0.04790000  1
  C  C44  1  0.46579000  0.41561000  0.92890000  1
  C  C45  1  0.41561000  0.46579000  0.42890000  1
  C  C46  1  0.64016000  0.29684000  0.97510000  1
  C  C47  1  0.29684000  0.64016000  0.47510000  1
  C  C48  1  0.51872000  0.45094000  0.98310000  1
  C  C49  1  0.45094000  0.51872000  0.48310000  1
  C  C50  1  0.60735000  0.38845000  0.00550000  1
  C  C51  1  0.38845000  0.60735000  0.50550000  1
  H  H52  1  0.29800000  0.74600000  0.01400000  1
  H  H53  1  0.74600000  0.29800000  0.51400000  1
  H  H54  1  0.40700000  0.64500000  0.54600000  1
  H  H55  1  0.64500000  0.40700000  0.04600000  1
  H  H56  1  0.15200000  0.90600000  0.49200000  1
  H  H57  1  0.90600000  0.15200000  0.99200000  1
  H  H58  1  0.04200000  0.02600000  0.59700000  1
  H  H59  1  0.02600000  0.04200000  0.09700000  1
  H  H60  1  0.55200000  0.59800000  0.58300000  1
  H  H61  1  0.59800000  0.55200000  0.08300000  1
  H  H62  1  0.53580000  0.70220000  0.13100000  1
  H  H63  1  0.70220000  0.53580000  0.63100000  1
  H  H64  1  0.62800000  0.77000000  0.82800000  1
  H  H65  1  0.77000000  0.62800000  0.32800000  1
  H  H66  1  0.66100000  0.74300000  0.22400000  1
  H  H67  1  0.74300000  0.66100000  0.72400000  1
  H  H68  1  0.33900000  0.25700000  0.77600000  1
  H  H69  1  0.25700000  0.33900000  0.27600000  1
  H  H70  1  0.37200000  0.23000000  0.17200000  1
  H  H71  1  0.23000000  0.37200000  0.67200000  1
  H  H72  1  0.46420000  0.29780000  0.86900000  1
  H  H73  1  0.29780000  0.46420000  0.36900000  1
  H  H74  1  0.44800000  0.40200000  0.41700000  1
  H  H75  1  0.40200000  0.44800000  0.91700000  1
  H  H76  1  0.95800000  0.97400000  0.40300000  1
  H  H77  1  0.97400000  0.95800000  0.90300000  1
  H  H78  1  0.84800000  0.09400000  0.50800000  1
  H  H79  1  0.09400000  0.84800000  0.00800000  1
  H  H80  1  0.59300000  0.35500000  0.45400000  1
  H  H81  1  0.35500000  0.59300000  0.95400000  1
  H  H82  1  0.70200000  0.25400000  0.98600000  1
  H  H83  1  0.25400000  0.70200000  0.48600000  1
  Mg  Mg84  1  0.19347000  0.80653000  0.25000000  1
  Mg  Mg85  1  0.80653000  0.19347000  0.75000000  1
  Mg  Mg86  1  0.50000000  1.00000000  0.00000000  1
  Mg  Mg87  1  0.00000000  0.50000000  0.50000000  1
  N  N88  1  0.41247000  0.73349000  0.07830000  1
  N  N89  1  0.73349000  0.41247000  0.57830000  1
  N  N90  1  0.58753000  0.26651000  0.92170000  1
  N  N91  1  0.26651000  0.58753000  0.42170000  1
  O  O92  1  0.27458000  0.87636000  0.31315000  1
  O  O93  1  0.87636000  0.27458000  0.81315000  1
  O  O94  1  0.19980000  0.97776000  0.12100000  1
  O  O95  1  0.97776000  0.19980000  0.62100000  1
  O  O96  1  0.37779000  0.82085000  0.11062000  1
  O  O97  1  0.82085000  0.37779000  0.61062000  1
  O  O98  1  0.41983000  0.04165000  0.14779000  1
  O  O99  1  0.04165000  0.41983000  0.64779000  1
  O  O100  1  0.37813000  0.08439000  0.94074000  1
  O  O101  1  0.08439000  0.37813000  0.44074000  1
  O  O102  1  0.62187000  0.91561000  0.05926000  1
  O  O103  1  0.91561000  0.62187000  0.55926000  1
  O  O104  1  0.58017000  0.95835000  0.85221000  1
  O  O105  1  0.95835000  0.58017000  0.35221000  1
  O  O106  1  0.62221000  0.17915000  0.88938000  1
  O  O107  1  0.17915000  0.62221000  0.38938000  1
  O  O108  1  0.80020000  0.02224000  0.87900000  1
  O  O109  1  0.02224000  0.80020000  0.37900000  1
  O  O110  1  0.72542000  0.12364000  0.68685000  1
  O  O111  1  0.12364000  0.72542000  0.18685000  1
