# generated using pymatgen
data_V5(PO6)2
_symmetry_space_group_name_H-M   'P 1'
_cell_length_a   22.95556217
_cell_length_b   22.95556217
_cell_length_c   22.95556217
_cell_angle_alpha   109.47122063
_cell_angle_beta   109.47122063
_cell_angle_gamma   109.47122063
_symmetry_Int_Tables_number   1
_chemical_formula_structural   V5(PO6)2
_chemical_formula_sum   'V60 P24 O144'
_cell_volume   9311.97728820
_cell_formula_units_Z   12
loop_
 _symmetry_equiv_pos_site_id
 _symmetry_equiv_pos_as_xyz
  1  'x, y, z'
loop_
 _atom_site_type_symbol
 _atom_site_label
 _atom_site_symmetry_multiplicity
 _atom_site_fract_x
 _atom_site_fract_y
 _atom_site_fract_z
 _atom_site_occupancy
  O  O0  1  0.27708000  0.75129000  0.93373000  1
  O  O1  1  0.27708000  0.34335000  0.52579000  1
  O  O2  1  0.34335000  0.81756000  0.06627000  1
  O  O3  1  0.34335000  0.27708000  0.52579000  1
  O  O4  1  0.75129000  0.81756000  0.47421000  1
  O  O5  1  0.75129000  0.27708000  0.93373000  1
  O  O6  1  0.81756000  0.75129000  0.47421000  1
  O  O7  1  0.81756000  0.34335000  0.06627000  1
  O  O8  1  0.27280000  0.65100000  0.82640000  1
  O  O9  1  0.27280000  0.44640000  0.62180000  1
  O  O10  1  0.44640000  0.82460000  0.17360000  1
  O  O11  1  0.44640000  0.27280000  0.62180000  1
  O  O12  1  0.65100000  0.82460000  0.37820000  1
  O  O13  1  0.65100000  0.27280000  0.82640000  1
  O  O14  1  0.82460000  0.65100000  0.37820000  1
  O  O15  1  0.82460000  0.44640000  0.17360000  1
  O  O16  1  0.37820000  0.65100000  0.82460000  1
  O  O17  1  0.37820000  0.55360000  0.72720000  1
  O  O18  1  0.55360000  0.82640000  0.17540000  1
  O  O19  1  0.55360000  0.37820000  0.72720000  1
  O  O20  1  0.65100000  0.82640000  0.27280000  1
  O  O21  1  0.65100000  0.37820000  0.82460000  1
  O  O22  1  0.82640000  0.65100000  0.27280000  1
  O  O23  1  0.82640000  0.55360000  0.17540000  1
  O  O24  1  0.39450000  0.74650000  0.93100000  1
  O  O25  1  0.39450000  0.46350000  0.64800000  1
  O  O26  1  0.46350000  0.81550000  0.06900000  1
  O  O27  1  0.46350000  0.39450000  0.64800000  1
  O  O28  1  0.74650000  0.81550000  0.35200000  1
  O  O29  1  0.74650000  0.39450000  0.93100000  1
  O  O30  1  0.81550000  0.74650000  0.35200000  1
  O  O31  1  0.81550000  0.46350000  0.06900000  1
  O  O32  1  0.35200000  0.74650000  0.81550000  1
  O  O33  1  0.35200000  0.53650000  0.60550000  1
  O  O34  1  0.53650000  0.93100000  0.18450000  1
  O  O35  1  0.53650000  0.35200000  0.60550000  1
  O  O36  1  0.74650000  0.93100000  0.39450000  1
  O  O37  1  0.74650000  0.35200000  0.81550000  1
  O  O38  1  0.93100000  0.74650000  0.39450000  1
  O  O39  1  0.93100000  0.53650000  0.18450000  1
  O  O40  1  0.47421000  0.75129000  0.81756000  1
  O  O41  1  0.47421000  0.65665000  0.72292000  1
  O  O42  1  0.65665000  0.93373000  0.18244000  1
  O  O43  1  0.65665000  0.47421000  0.72292000  1
  O  O44  1  0.75129000  0.93373000  0.27708000  1
  O  O45  1  0.75129000  0.47421000  0.81756000  1
  O  O46  1  0.93373000  0.75129000  0.27708000  1
  O  O47  1  0.93373000  0.65665000  0.18244000  1
  O  O48  1  0.35200000  0.81550000  0.74650000  1
  O  O49  1  0.35200000  0.60550000  0.53650000  1
  O  O50  1  0.60550000  0.06900000  0.25350000  1
  O  O51  1  0.60550000  0.35200000  0.53650000  1
  O  O52  1  0.81550000  0.06900000  0.46350000  1
  O  O53  1  0.81550000  0.35200000  0.74650000  1
  O  O54  1  0.06900000  0.81550000  0.46350000  1
  O  O55  1  0.06900000  0.60550000  0.25350000  1
  O  O56  1  0.27280000  0.82640000  0.65100000  1
  O  O57  1  0.27280000  0.62180000  0.44640000  1
  O  O58  1  0.62180000  0.17540000  0.34900000  1
  O  O59  1  0.62180000  0.27280000  0.44640000  1
  O  O60  1  0.82640000  0.17540000  0.55360000  1
  O  O61  1  0.82640000  0.27280000  0.65100000  1
  O  O62  1  0.17540000  0.82640000  0.55360000  1
  O  O63  1  0.17540000  0.62180000  0.34900000  1
  O  O64  1  0.27708000  0.93373000  0.75129000  1
  O  O65  1  0.27708000  0.52579000  0.34335000  1
  O  O66  1  0.52579000  0.18244000  0.24871000  1
  O  O67  1  0.52579000  0.27708000  0.34335000  1
  O  O68  1  0.93373000  0.18244000  0.65665000  1
  O  O69  1  0.93373000  0.27708000  0.75129000  1
  O  O70  1  0.18244000  0.93373000  0.65665000  1
  O  O71  1  0.18244000  0.52579000  0.24871000  1
  O  O72  1  0.47421000  0.81756000  0.75129000  1
  O  O73  1  0.47421000  0.72292000  0.65665000  1
  O  O74  1  0.72292000  0.06627000  0.24871000  1
  O  O75  1  0.72292000  0.47421000  0.65665000  1
  O  O76  1  0.81756000  0.06627000  0.34335000  1
  O  O77  1  0.81756000  0.47421000  0.75129000  1
  O  O78  1  0.06627000  0.81756000  0.34335000  1
  O  O79  1  0.06627000  0.72292000  0.24871000  1
  O  O80  1  0.37820000  0.82460000  0.65100000  1
  O  O81  1  0.37820000  0.72720000  0.55360000  1
  O  O82  1  0.72720000  0.17360000  0.34900000  1
  O  O83  1  0.72720000  0.37820000  0.55360000  1
  O  O84  1  0.82460000  0.17360000  0.44640000  1
  O  O85  1  0.82460000  0.37820000  0.65100000  1
  O  O86  1  0.17360000  0.82460000  0.44640000  1
  O  O87  1  0.17360000  0.72720000  0.34900000  1
  O  O88  1  0.39450000  0.93100000  0.74650000  1
  O  O89  1  0.39450000  0.64800000  0.46350000  1
  O  O90  1  0.64800000  0.18450000  0.25350000  1
  O  O91  1  0.64800000  0.39450000  0.46350000  1
  O  O92  1  0.93100000  0.18450000  0.53650000  1
  O  O93  1  0.93100000  0.39450000  0.74650000  1
  O  O94  1  0.18450000  0.93100000  0.53650000  1
  O  O95  1  0.18450000  0.64800000  0.25350000  1
  O  O96  1  0.34335000  0.06627000  0.81756000  1
  O  O97  1  0.34335000  0.52579000  0.27708000  1
  O  O98  1  0.52579000  0.24871000  0.18244000  1
  O  O99  1  0.52579000  0.34335000  0.27708000  1
  O  O100  1  0.06627000  0.24871000  0.72292000  1
  O  O101  1  0.06627000  0.34335000  0.81756000  1
  O  O102  1  0.24871000  0.06627000  0.72292000  1
  O  O103  1  0.24871000  0.52579000  0.18244000  1
  O  O104  1  0.46350000  0.06900000  0.81550000  1
  O  O105  1  0.46350000  0.64800000  0.39450000  1
  O  O106  1  0.64800000  0.25350000  0.18450000  1
  O  O107  1  0.64800000  0.46350000  0.39450000  1
  O  O108  1  0.06900000  0.25350000  0.60550000  1
  O  O109  1  0.06900000  0.46350000  0.81550000  1
  O  O110  1  0.25350000  0.06900000  0.60550000  1
  O  O111  1  0.25350000  0.64800000  0.18450000  1
  O  O112  1  0.53650000  0.18450000  0.93100000  1
  O  O113  1  0.53650000  0.60550000  0.35200000  1
  O  O114  1  0.60550000  0.25350000  0.06900000  1
  O  O115  1  0.60550000  0.53650000  0.35200000  1
  O  O116  1  0.18450000  0.25350000  0.64800000  1
  O  O117  1  0.18450000  0.53650000  0.93100000  1
  O  O118  1  0.25350000  0.18450000  0.64800000  1
  O  O119  1  0.25350000  0.60550000  0.06900000  1
  O  O120  1  0.44640000  0.17360000  0.82460000  1
  O  O121  1  0.44640000  0.62180000  0.27280000  1
  O  O122  1  0.62180000  0.34900000  0.17540000  1
  O  O123  1  0.62180000  0.44640000  0.27280000  1
  O  O124  1  0.17360000  0.34900000  0.72720000  1
  O  O125  1  0.17360000  0.44640000  0.82460000  1
  O  O126  1  0.34900000  0.17360000  0.72720000  1
  O  O127  1  0.34900000  0.62180000  0.17540000  1
  O  O128  1  0.55360000  0.17540000  0.82640000  1
  O  O129  1  0.55360000  0.72720000  0.37820000  1
  O  O130  1  0.72720000  0.34900000  0.17360000  1
  O  O131  1  0.72720000  0.55360000  0.37820000  1
  O  O132  1  0.17540000  0.34900000  0.62180000  1
  O  O133  1  0.17540000  0.55360000  0.82640000  1
  O  O134  1  0.34900000  0.17540000  0.62180000  1
  O  O135  1  0.34900000  0.72720000  0.17360000  1
  O  O136  1  0.65665000  0.18244000  0.93373000  1
  O  O137  1  0.65665000  0.72292000  0.47421000  1
  O  O138  1  0.72292000  0.24871000  0.06627000  1
  O  O139  1  0.72292000  0.65665000  0.47421000  1
  O  O140  1  0.18244000  0.24871000  0.52579000  1
  O  O141  1  0.18244000  0.65665000  0.93373000  1
  O  O142  1  0.24871000  0.18244000  0.52579000  1
  O  O143  1  0.24871000  0.72292000  0.06627000  1
  P  P144  1  0.34981000  0.69962000  0.84981000  1
  P  P145  1  0.34981000  0.50000000  0.65019000  1
  P  P146  1  0.50000000  0.84981000  0.15019000  1
  P  P147  1  0.50000000  0.34981000  0.65019000  1
  P  P148  1  0.69962000  0.84981000  0.34981000  1
  P  P149  1  0.69962000  0.34981000  0.84981000  1
  P  P150  1  0.84981000  0.69962000  0.34981000  1
  P  P151  1  0.84981000  0.50000000  0.15019000  1
  P  P152  1  0.34981000  0.84981000  0.69962000  1
  P  P153  1  0.34981000  0.65019000  0.50000000  1
  P  P154  1  0.65019000  0.15019000  0.30038000  1
  P  P155  1  0.65019000  0.34981000  0.50000000  1
  P  P156  1  0.84981000  0.15019000  0.50000000  1
  P  P157  1  0.84981000  0.34981000  0.69962000  1
  P  P158  1  0.15019000  0.84981000  0.50000000  1
  P  P159  1  0.15019000  0.65019000  0.30038000  1
  P  P160  1  0.50000000  0.15019000  0.84981000  1
  P  P161  1  0.50000000  0.65019000  0.34981000  1
  P  P162  1  0.65019000  0.30038000  0.15019000  1
  P  P163  1  0.65019000  0.50000000  0.34981000  1
  P  P164  1  0.15019000  0.30038000  0.65019000  1
  P  P165  1  0.15019000  0.50000000  0.84981000  1
  P  P166  1  0.30038000  0.15019000  0.65019000  1
  P  P167  1  0.30038000  0.65019000  0.15019000  1
  V  V168  1  0.20591000  0.65339000  0.85930000  1
  V  V169  1  0.20591000  0.34661000  0.55252000  1
  V  V170  1  0.24572000  0.75428000  1.00000000  1
  V  V171  1  0.24572000  0.24572000  0.49144000  1
  V  V172  1  0.34661000  0.79409000  0.14070000  1
  V  V173  1  0.34661000  0.20591000  0.55252000  1
  V  V174  1  0.65339000  0.79409000  0.44748000  1
  V  V175  1  0.65339000  0.20591000  0.85930000  1
  V  V176  1  0.75428000  0.75428000  0.50856000  1
  V  V177  1  0.75428000  0.24572000  1.00000000  1
  V  V178  1  0.79409000  0.65339000  0.44748000  1
  V  V179  1  0.79409000  0.34661000  0.14070000  1
  V  V180  1  0.38019000  0.80861000  1.00000000  1
  V  V181  1  0.38019000  0.38019000  0.57158000  1
  V  V182  1  0.80861000  0.80861000  0.42842000  1
  V  V183  1  0.80861000  0.38019000  1.00000000  1
  V  V184  1  0.44748000  0.65339000  0.79409000  1
  V  V185  1  0.65339000  0.85930000  0.20591000  1
  V  V186  1  0.65339000  0.44748000  0.79409000  1
  V  V187  1  0.85930000  0.65339000  0.20591000  1
  V  V188  1  0.20591000  0.85930000  0.65339000  1
  V  V189  1  0.20591000  0.55252000  0.34661000  1
  V  V190  1  0.55252000  0.20591000  0.34661000  1
  V  V191  1  0.85930000  0.20591000  0.65339000  1
  V  V192  1  0.42842000  0.80861000  0.80861000  1
  V  V193  1  0.42842000  0.61981000  0.61981000  1
  V  V194  1  0.61981000  0.00000000  0.19139000  1
  V  V195  1  0.61981000  0.42842000  0.61981000  1
  V  V196  1  0.80861000  0.00000000  0.38019000  1
  V  V197  1  0.80861000  0.42842000  0.80861000  1
  V  V198  1  0.00000000  0.80861000  0.38019000  1
  V  V199  1  0.00000000  0.61981000  0.19139000  1
  V  V200  1  0.24572000  0.00000000  0.75428000  1
  V  V201  1  0.24572000  0.49144000  0.24572000  1
  V  V202  1  0.49144000  0.24572000  0.24572000  1
  V  V203  1  0.00000000  0.24572000  0.75428000  1
  V  V204  1  0.50856000  0.75428000  0.75428000  1
  V  V205  1  0.75428000  0.00000000  0.24572000  1
  V  V206  1  0.75428000  0.50856000  0.75428000  1
  V  V207  1  0.00000000  0.75428000  0.24572000  1
  V  V208  1  0.38019000  1.00000000  0.80861000  1
  V  V209  1  0.38019000  0.57158000  0.38019000  1
  V  V210  1  0.57158000  0.19139000  0.19139000  1
  V  V211  1  0.57158000  0.38019000  0.38019000  1
  V  V212  1  0.00000000  0.19139000  0.61981000  1
  V  V213  1  0.00000000  0.38019000  0.80861000  1
  V  V214  1  0.19139000  0.00000000  0.61981000  1
  V  V215  1  0.19139000  0.57158000  0.19139000  1
  V  V216  1  0.44748000  0.79409000  0.65339000  1
  V  V217  1  0.79409000  0.14070000  0.34661000  1
  V  V218  1  0.79409000  0.44748000  0.65339000  1
  V  V219  1  0.14070000  0.79409000  0.34661000  1
  V  V220  1  0.34661000  0.14070000  0.79409000  1
  V  V221  1  0.34661000  0.55252000  0.20591000  1
  V  V222  1  0.55252000  0.34661000  0.20591000  1
  V  V223  1  0.14070000  0.34661000  0.79409000  1
  V  V224  1  0.61981000  0.19139000  1.00000000  1
  V  V225  1  0.61981000  0.61981000  0.42842000  1
  V  V226  1  0.19139000  0.19139000  0.57158000  1
  V  V227  1  0.19139000  0.61981000  0.00000000  1
