# generated using pymatgen
data_LiH4C6NO2
_symmetry_space_group_name_H-M   'P 1'
_cell_length_a   5.38810000
_cell_length_b   11.40980000
_cell_length_c   14.11750000
_cell_angle_alpha   90.00000000
_cell_angle_beta   90.00000000
_cell_angle_gamma   101.18700000
_symmetry_Int_Tables_number   1
_chemical_formula_structural   LiH4C6NO2
_chemical_formula_sum   'Li4 H16 C24 N4 O8'
_cell_volume   851.41270990
_cell_formula_units_Z   4
loop_
 _symmetry_equiv_pos_site_id
 _symmetry_equiv_pos_as_xyz
  1  'x, y, z'
loop_
 _atom_site_type_symbol
 _atom_site_label
 _atom_site_symmetry_multiplicity
 _atom_site_fract_x
 _atom_site_fract_y
 _atom_site_fract_z
 _atom_site_occupancy
  Li  Li0  1  0.79480000  0.99650000  0.56340000  1
  Li  Li1  1  0.70520000  0.50350000  0.06340000  1
  Li  Li2  1  0.29480000  0.49650000  0.93660000  1
  Li  Li3  1  0.20520000  0.00350000  0.43660000  1
  H  H4  1  0.99950000  0.74940000  0.35720000  1
  H  H5  1  0.99210000  0.39310000  0.75940000  1
  H  H6  1  0.93780000  0.20030000  0.39160000  1
  H  H7  1  0.90080000  0.33890000  0.27570000  1
  H  H8  1  0.59920000  0.16110000  0.77570000  1
  H  H9  1  0.56220000  0.29970000  0.89160000  1
  H  H10  1  0.50790000  0.10690000  0.25940000  1
  H  H11  1  0.50050000  0.75060000  0.85720000  1
  H  H12  1  0.49950000  0.24940000  0.14280000  1
  H  H13  1  0.49210000  0.89310000  0.74060000  1
  H  H14  1  0.43780000  0.70030000  0.10840000  1
  H  H15  1  0.40080000  0.83890000  0.22430000  1
  H  H16  1  0.09920000  0.66110000  0.72430000  1
  H  H17  1  0.06220000  0.79970000  0.60840000  1
  H  H18  1  0.00790000  0.60690000  0.24060000  1
  H  H19  1  0.00050000  0.25060000  0.64280000  1
  C  C20  1  0.97280000  0.70820000  0.72970000  1
  C  C21  1  0.94980000  0.79170000  0.66090000  1
  C  C22  1  0.88250000  0.65500000  0.23710000  1
  C  C23  1  0.87650000  0.73870000  0.30820000  1
  C  C24  1  0.84640000  0.60980000  0.88670000  1
  C  C25  1  0.81030000  0.69390000  0.80660000  1
  C  C26  1  0.68970000  0.80610000  0.30660000  1
  C  C27  1  0.65360000  0.89020000  0.38670000  1
  C  C28  1  0.62350000  0.76130000  0.80820000  1
  C  C29  1  0.61750000  0.84500000  0.73710000  1
  C  C30  1  0.55020000  0.70830000  0.16090000  1
  C  C31  1  0.52720000  0.79180000  0.22970000  1
  C  C32  1  0.47280000  0.20820000  0.77030000  1
  C  C33  1  0.44980000  0.29170000  0.83910000  1
  C  C34  1  0.38250000  0.15500000  0.26290000  1
  C  C35  1  0.37650000  0.23870000  0.19180000  1
  C  C36  1  0.34640000  0.10980000  0.61330000  1
  C  C37  1  0.31030000  0.19390000  0.69340000  1
  C  C38  1  0.18970000  0.30610000  0.19340000  1
  C  C39  1  0.15360000  0.39020000  0.11330000  1
  C  C40  1  0.12350000  0.26130000  0.69180000  1
  C  C41  1  0.11750000  0.34500000  0.76290000  1
  C  C42  1  0.05020000  0.20830000  0.33910000  1
  C  C43  1  0.02720000  0.29180000  0.27030000  1
  N  N44  1  0.77790000  0.86170000  0.66420000  1
  N  N45  1  0.72210000  0.63830000  0.16420000  1
  N  N46  1  0.27790000  0.36170000  0.83580000  1
  N  N47  1  0.22210000  0.13830000  0.33580000  1
  O  O48  1  0.94040000  0.41360000  0.10470000  1
  O  O49  1  0.84160000  0.92720000  0.43920000  1
  O  O50  1  0.65840000  0.57280000  0.93920000  1
  O  O51  1  0.55960000  0.08640000  0.60470000  1
  O  O52  1  0.44040000  0.91360000  0.39530000  1
  O  O53  1  0.34160000  0.42720000  0.06080000  1
  O  O54  1  0.15840000  0.07280000  0.56080000  1
  O  O55  1  0.05960000  0.58640000  0.89530000  1
