# generated using pymatgen
data_CdH13C19(NO2)2
_symmetry_space_group_name_H-M   'P 1'
_cell_length_a   7.28000000
_cell_length_b   16.26730000
_cell_length_c   16.28730000
_cell_angle_alpha   106.00100000
_cell_angle_beta   90.00000000
_cell_angle_gamma   90.00000000
_symmetry_Int_Tables_number   1
_chemical_formula_structural   CdH13C19(NO2)2
_chemical_formula_sum   'Cd4 H52 C76 N8 O16'
_cell_volume   1854.10965128
_cell_formula_units_Z   4
loop_
 _symmetry_equiv_pos_site_id
 _symmetry_equiv_pos_as_xyz
  1  'x, y, z'
loop_
 _atom_site_type_symbol
 _atom_site_label
 _atom_site_symmetry_multiplicity
 _atom_site_fract_x
 _atom_site_fract_y
 _atom_site_fract_z
 _atom_site_occupancy
  Cd  Cd0  1  0.22590000  0.78123000  0.07706000  1
  Cd  Cd1  1  0.27410000  0.78123000  0.57706000  1
  Cd  Cd2  1  0.72590000  0.21877000  0.42294000  1
  Cd  Cd3  1  0.77410000  0.21877000  0.92294000  1
  H  H4  1  0.05830000  0.63090000  0.14720000  1
  H  H5  1  0.07420000  0.32680000  0.68310000  1
  H  H6  1  0.07520000  0.30400000  0.05700000  1
  H  H7  1  0.10410000  0.55240000  0.56800000  1
  H  H8  1  0.11250000  0.55910000  0.47370000  1
  H  H9  1  0.12740000  0.02970000  0.36910000  1
  H  H10  1  0.16190000  0.47300000  0.88000000  1
  H  H11  1  0.17360000  0.08090000  0.56590000  1
  H  H12  1  0.17580000  0.32940000  0.27080000  1
  H  H13  1  0.20280000  0.40600000  0.58940000  1
  H  H14  1  0.20770000  0.15400000  0.89420000  1
  H  H15  1  0.22030000  0.90050000  0.84720000  1
  H  H16  1  0.24760000  0.97280000  0.63310000  1
  H  H17  1  0.25240000  0.97280000  0.13310000  1
  H  H18  1  0.27970000  0.90050000  0.34720000  1
  H  H19  1  0.29230000  0.15400000  0.39420000  1
  H  H20  1  0.29720000  0.40600000  0.08940000  1
  H  H21  1  0.32420000  0.32940000  0.77080000  1
  H  H22  1  0.32640000  0.08090000  0.06590000  1
  H  H23  1  0.33810000  0.47300000  0.38000000  1
  H  H24  1  0.37260000  0.02970000  0.86910000  1
  H  H25  1  0.38750000  0.55910000  0.97370000  1
  H  H26  1  0.39590000  0.55240000  0.06800000  1
  H  H27  1  0.42480000  0.30400000  0.55700000  1
  H  H28  1  0.42580000  0.32680000  0.18310000  1
  H  H29  1  0.44170000  0.63090000  0.64720000  1
  H  H30  1  0.55830000  0.36910000  0.35280000  1
  H  H31  1  0.57420000  0.67320000  0.81690000  1
  H  H32  1  0.57520000  0.69600000  0.44300000  1
  H  H33  1  0.60410000  0.44760000  0.93200000  1
  H  H34  1  0.61250000  0.44090000  0.02630000  1
  H  H35  1  0.62740000  0.97030000  0.13090000  1
  H  H36  1  0.66190000  0.52700000  0.62000000  1
  H  H37  1  0.67360000  0.91910000  0.93410000  1
  H  H38  1  0.67580000  0.67060000  0.22920000  1
  H  H39  1  0.70280000  0.59400000  0.91060000  1
  H  H40  1  0.70770000  0.84600000  0.60580000  1
  H  H41  1  0.72030000  0.09950000  0.65280000  1
  H  H42  1  0.74760000  0.02720000  0.86690000  1
  H  H43  1  0.75240000  0.02720000  0.36690000  1
  H  H44  1  0.77970000  0.09950000  0.15280000  1
  H  H45  1  0.79230000  0.84600000  0.10580000  1
  H  H46  1  0.79720000  0.59400000  0.41060000  1
  H  H47  1  0.82420000  0.67060000  0.72920000  1
  H  H48  1  0.82640000  0.91910000  0.43410000  1
  H  H49  1  0.83810000  0.52700000  0.12000000  1
  H  H50  1  0.87260000  0.97030000  0.63090000  1
  H  H51  1  0.88750000  0.44090000  0.52630000  1
  H  H52  1  0.89590000  0.44760000  0.43200000  1
  H  H53  1  0.92480000  0.69600000  0.94300000  1
  H  H54  1  0.92580000  0.67320000  0.31690000  1
  H  H55  1  0.94170000  0.36910000  0.85280000  1
  C  C56  1  0.01520000  0.37620000  0.90090000  1
  C  C57  1  0.03650000  0.05080000  0.14710000  1
  C  C58  1  0.04460000  0.78880000  0.71000000  1
  C  C59  1  0.05360000  0.79790000  0.44800000  1
  C  C60  1  0.09320000  0.33820000  0.02040000  1
  C  C61  1  0.09480000  0.52000000  0.50840000  1
  C  C62  1  0.09920000  0.20300000  0.61480000  1
  C  C63  1  0.10290000  0.20600000  0.22330000  1
  C  C64  1  0.12470000  0.97300000  0.13220000  1
  C  C65  1  0.14430000  0.27760000  0.67710000  1
  C  C66  1  0.14510000  0.13000000  0.16080000  1
  C  C67  1  0.14560000  0.10220000  0.88380000  1
  C  C68  1  0.14730000  0.43930000  0.91720000  1
  C  C69  1  0.15420000  0.95100000  0.85520000  1
  C  C70  1  0.20400000  0.13090000  0.60760000  1
  C  C71  1  0.20670000  0.27890000  0.23000000  1
  C  C72  1  0.22670000  0.39970000  0.04040000  1
  C  C73  1  0.24240000  0.45270000  0.48810000  1
  C  C74  1  0.24490000  0.02800000  0.86940000  1
  C  C75  1  0.25510000  0.02800000  0.36940000  1
  C  C76  1  0.25760000  0.45270000  0.98810000  1
  C  C77  1  0.27330000  0.39970000  0.54040000  1
  C  C78  1  0.29330000  0.27890000  0.73000000  1
  C  C79  1  0.29600000  0.13090000  0.10760000  1
  C  C80  1  0.34580000  0.95100000  0.35520000  1
  C  C81  1  0.35270000  0.43930000  0.41720000  1
  C  C82  1  0.35440000  0.10220000  0.38380000  1
  C  C83  1  0.35490000  0.13000000  0.66080000  1
  C  C84  1  0.35570000  0.27760000  0.17710000  1
  C  C85  1  0.37530000  0.97300000  0.63220000  1
  C  C86  1  0.39710000  0.20600000  0.72330000  1
  C  C87  1  0.40080000  0.20300000  0.11480000  1
  C  C88  1  0.40520000  0.52000000  0.00840000  1
  C  C89  1  0.40680000  0.33820000  0.52040000  1
  C  C90  1  0.44640000  0.79790000  0.94800000  1
  C  C91  1  0.45540000  0.78880000  0.21000000  1
  C  C92  1  0.46350000  0.05080000  0.64710000  1
  C  C93  1  0.48480000  0.37620000  0.40090000  1
  C  C94  1  0.51520000  0.62380000  0.59910000  1
  C  C95  1  0.53650000  0.94920000  0.35290000  1
  C  C96  1  0.54460000  0.21120000  0.79000000  1
  C  C97  1  0.55360000  0.20210000  0.05200000  1
  C  C98  1  0.59320000  0.66180000  0.47960000  1
  C  C99  1  0.59480000  0.48000000  0.99160000  1
  C  C100  1  0.59920000  0.79700000  0.88520000  1
  C  C101  1  0.60290000  0.79400000  0.27670000  1
  C  C102  1  0.62470000  0.02700000  0.36780000  1
  C  C103  1  0.64430000  0.72240000  0.82290000  1
  C  C104  1  0.64510000  0.87000000  0.33920000  1
  C  C105  1  0.64560000  0.89780000  0.61620000  1
  C  C106  1  0.64730000  0.56070000  0.58280000  1
  C  C107  1  0.65420000  0.04900000  0.64480000  1
  C  C108  1  0.70400000  0.86910000  0.89240000  1
  C  C109  1  0.70670000  0.72110000  0.27000000  1
  C  C110  1  0.72670000  0.60030000  0.45960000  1
  C  C111  1  0.74240000  0.54730000  0.01190000  1
  C  C112  1  0.74490000  0.97200000  0.63060000  1
  C  C113  1  0.75510000  0.97200000  0.13060000  1
  C  C114  1  0.75760000  0.54730000  0.51190000  1
  C  C115  1  0.77330000  0.60030000  0.95960000  1
  C  C116  1  0.79330000  0.72110000  0.77000000  1
  C  C117  1  0.79600000  0.86910000  0.39240000  1
  C  C118  1  0.84580000  0.04900000  0.14480000  1
  C  C119  1  0.85270000  0.56070000  0.08280000  1
  C  C120  1  0.85440000  0.89780000  0.11620000  1
  C  C121  1  0.85490000  0.87000000  0.83920000  1
  C  C122  1  0.85570000  0.72240000  0.32290000  1
  C  C123  1  0.87530000  0.02700000  0.86780000  1
  C  C124  1  0.89710000  0.79400000  0.77670000  1
  C  C125  1  0.90080000  0.79700000  0.38520000  1
  C  C126  1  0.90520000  0.48000000  0.49160000  1
  C  C127  1  0.90680000  0.66180000  0.97960000  1
  C  C128  1  0.94640000  0.20210000  0.55200000  1
  C  C129  1  0.95540000  0.21120000  0.29000000  1
  C  C130  1  0.96350000  0.94920000  0.85290000  1
  C  C131  1  0.98480000  0.62380000  0.09910000  1
  N  N132  1  0.01230000  0.67520000  0.04910000  1
  N  N133  1  0.03800000  0.89770000  0.11650000  1
  N  N134  1  0.46200000  0.89770000  0.61650000  1
  N  N135  1  0.48770000  0.67520000  0.54910000  1
  N  N136  1  0.51230000  0.32480000  0.45090000  1
  N  N137  1  0.53800000  0.10230000  0.38350000  1
  N  N138  1  0.96200000  0.10230000  0.88350000  1
  N  N139  1  0.98770000  0.32480000  0.95090000  1
  O  O140  1  0.05510000  0.84640000  0.67443000  1
  O  O141  1  0.10070000  0.86650000  0.49720000  1
  O  O142  1  0.12570000  0.72792000  0.44943000  1
  O  O143  1  0.14630000  0.72491000  0.68950000  1
  O  O144  1  0.35370000  0.72491000  0.18950000  1
  O  O145  1  0.37430000  0.72792000  0.94943000  1
  O  O146  1  0.39930000  0.86650000  0.99720000  1
  O  O147  1  0.44490000  0.84640000  0.17443000  1
  O  O148  1  0.55510000  0.15360000  0.82557000  1
  O  O149  1  0.60070000  0.13350000  0.00280000  1
  O  O150  1  0.62570000  0.27208000  0.05057000  1
  O  O151  1  0.64630000  0.27509000  0.81050000  1
  O  O152  1  0.85370000  0.27509000  0.31050000  1
  O  O153  1  0.87430000  0.27208000  0.55057000  1
  O  O154  1  0.89930000  0.13350000  0.50280000  1
  O  O155  1  0.94490000  0.15360000  0.32557000  1
