# generated using pymatgen
data_KFe(CN)6
_symmetry_space_group_name_H-M   'P 1'
_cell_length_a   8.42900000
_cell_length_b   8.42900000
_cell_length_c   14.08786095
_cell_angle_alpha   72.59294657
_cell_angle_beta   72.59294657
_cell_angle_gamma   60.00000000
_symmetry_Int_Tables_number   1
_chemical_formula_structural   KFe(CN)6
_chemical_formula_sum   'K2 Fe2 C12 N12'
_cell_volume   813.45774761
_cell_formula_units_Z   2
loop_
 _symmetry_equiv_pos_site_id
 _symmetry_equiv_pos_as_xyz
  1  'x, y, z'
loop_
 _atom_site_type_symbol
 _atom_site_label
 _atom_site_symmetry_multiplicity
 _atom_site_fract_x
 _atom_site_fract_y
 _atom_site_fract_z
 _atom_site_occupancy
  C  C0  1  0.25582000  0.61133000  0.58289000  1
  C  C1  1  0.11133000  0.75582000  0.08289000  1
  C  C2  1  0.61133000  0.54996000  0.58289000  1
  C  C3  1  0.04996000  0.11133000  0.08289000  1
  C  C4  1  0.75582000  0.04996000  0.08289000  1
  C  C5  1  0.54996000  0.25582000  0.58289000  1
  C  C6  1  0.24418000  0.95004000  0.91711000  1
  C  C7  1  0.45004000  0.74418000  0.41711000  1
  C  C8  1  0.95004000  0.88867000  0.91711000  1
  C  C9  1  0.38867000  0.45004000  0.41711000  1
  C  C10  1  0.74418000  0.38867000  0.41711000  1
  C  C11  1  0.88867000  0.24418000  0.91711000  1
  Fe  Fe12  1  0.00000000  0.00000000  0.00000000  1
  Fe  Fe13  1  0.50000000  0.50000000  0.50000000  1
  K  K14  1  0.25000000  0.25000000  0.25000000  1
  K  K15  1  0.75000000  0.75000000  0.75000000  1
  N  N16  1  0.92011000  0.82058000  0.86986000  1
  N  N17  1  0.32058000  0.42011000  0.36986000  1
  N  N18  1  0.38945000  0.92011000  0.86986000  1
  N  N19  1  0.42011000  0.88945000  0.36986000  1
  N  N20  1  0.11055000  0.67942000  0.63014000  1
  N  N21  1  0.17942000  0.61055000  0.13014000  1
  N  N22  1  0.88945000  0.32058000  0.36986000  1
  N  N23  1  0.82058000  0.38945000  0.86986000  1
  N  N24  1  0.61055000  0.07989000  0.13014000  1
  N  N25  1  0.57989000  0.11055000  0.63014000  1
  N  N26  1  0.67942000  0.57989000  0.63014000  1
  N  N27  1  0.07989000  0.17942000  0.13014000  1
