# generated using pymatgen
data_LaH12C21NO6
_symmetry_space_group_name_H-M   'P 1'
_cell_length_a   13.01100000
_cell_length_b   14.61402815
_cell_length_c   14.61402815
_cell_angle_alpha   111.58564934
_cell_angle_beta   107.26368363
_cell_angle_gamma   107.26368363
_symmetry_Int_Tables_number   1
_chemical_formula_structural   LaH12C21NO6
_chemical_formula_sum   'La3 H36 C63 N3 O18'
_cell_volume   2194.53055302
_cell_formula_units_Z   3
loop_
 _symmetry_equiv_pos_site_id
 _symmetry_equiv_pos_as_xyz
  1  'x, y, z'
loop_
 _atom_site_type_symbol
 _atom_site_label
 _atom_site_symmetry_multiplicity
 _atom_site_fract_x
 _atom_site_fract_y
 _atom_site_fract_z
 _atom_site_occupancy
  C  C0  1  0.50000000  0.63245000  0.36755000  1
  C  C1  1  0.50000000  0.51525000  0.48475000  1
  C  C2  1  0.50000000  0.45365000  0.54635000  1
  C  C3  1  0.15510000  0.51690000  0.55210000  1
  C  C4  1  0.17700000  0.63160000  0.43800000  1
  C  C5  1  0.14530000  0.45840000  0.61750000  1
  C  C6  1  0.83590000  0.60730000  0.47550000  1
  C  C7  1  0.84690000  0.55030000  0.53280000  1
  C  C8  1  0.45400000  0.59150000  0.50200000  1
  C  C9  1  0.45670000  0.65070000  0.44730000  1
  C  C10  1  0.86755000  0.73510000  0.36755000  1
  C  C11  1  0.80600000  0.79660000  0.34930000  1
  C  C12  1  0.54540000  0.80640000  0.36840000  1
  C  C13  1  0.49763000  0.85896000  0.31863000  1
  C  C14  1  0.16800000  0.62400000  0.59740000  1
  C  C15  1  0.17900000  0.68137000  0.54033000  1
  C  C16  1  0.52780000  0.38250000  0.84090000  1
  C  C17  1  0.99060000  0.79660000  0.44730000  1
  C  C18  1  0.26100000  0.80640000  0.43800000  1
  C  C19  1  0.22860000  0.86820000  0.39270000  1
  C  C20  1  0.31310000  0.45840000  0.84090000  1
  C  C21  1  0.86250000  0.91050000  0.40850000  1
  C  C22  1  0.63960000  0.86820000  0.47550000  1
  C  C23  1  0.54400000  0.97340000  0.37600000  1
  C  C24  1  0.95365000  0.45365000  0.90730000  1
  C  C25  1  0.36133000  0.85896000  0.54033000  1
  C  C26  1  0.04800000  0.91050000  0.50200000  1
  C  C27  1  0.60300000  0.44790000  0.96480000  1
  C  C28  1  0.57060000  0.40260000  0.02660000  1
  C  C29  1  0.29660000  0.98250000  0.44970000  1
  C  C30  1  0.98475000  0.96950000  0.48475000  1
  C  C31  1  0.36180000  0.51690000  0.96480000  1
  C  C32  1  0.31410000  0.46720000  0.01750000  1
  C  C33  1  0.68590000  0.98250000  0.53280000  1
  C  C34  1  0.63820000  0.03520000  0.48310000  1
  C  C35  1  0.01525000  0.51525000  0.03050000  1
  C  C36  1  0.70340000  0.55030000  0.01750000  1
  C  C37  1  0.42940000  0.97340000  0.59740000  1
  C  C38  1  0.39700000  0.03520000  0.55210000  1
  C  C39  1  0.95200000  0.49800000  0.08950000  1
  C  C40  1  0.63867000  0.45967000  0.14104000  1
  C  C41  1  0.04635000  0.09270000  0.54635000  1
  C  C42  1  0.45600000  0.62400000  0.02660000  1
  C  C43  1  0.36040000  0.52450000  0.13180000  1
  C  C44  1  0.13750000  0.59150000  0.08950000  1
  C  C45  1  0.68690000  0.15910000  0.54160000  1
  C  C46  1  0.77140000  0.60730000  0.13180000  1
  C  C47  1  0.73900000  0.56200000  0.19360000  1
  C  C48  1  0.00940000  0.55270000  0.20340000  1
  C  C49  1  0.47220000  0.15910000  0.61750000  1
  C  C50  1  0.82100000  0.45967000  0.31863000  1
  C  C51  1  0.83200000  0.40260000  0.37600000  1
  C  C52  1  0.50237000  0.68137000  0.14104000  1
  C  C53  1  0.45460000  0.63160000  0.19360000  1
  C  C54  1  0.19400000  0.65070000  0.20340000  1
  C  C55  1  0.13245000  0.63245000  0.26490000  1
  C  C56  1  0.54330000  0.55270000  0.34930000  1
  C  C57  1  0.54600000  0.49800000  0.40850000  1
  C  C58  1  0.15310000  0.46720000  0.44970000  1
  C  C59  1  0.16410000  0.52450000  0.39270000  1
  C  C60  1  0.85470000  0.38250000  0.54160000  1
  C  C61  1  0.82300000  0.56200000  0.36840000  1
  C  C62  1  0.84490000  0.44790000  0.48310000  1
  H  H63  1  0.72550000  0.75940000  0.29620000  1
  H  H64  1  0.43460000  0.81770000  0.24700000  1
  H  H65  1  0.42110000  0.60270000  0.55110000  1
  H  H66  1  0.16150000  0.83310000  0.32430000  1
  H  H67  1  0.42930000  0.70380000  0.46320000  1
  H  H68  1  0.83720000  0.67570000  0.50880000  1
  H  H69  1  0.85550000  0.58060000  0.60450000  1
  H  H70  1  0.03390000  0.75940000  0.46320000  1
  H  H71  1  0.16930000  0.65730000  0.66580000  1
  H  H72  1  0.18760000  0.75300000  0.57070000  1
  H  H73  1  0.50350000  0.33420000  0.99150000  1
  H  H74  1  0.67160000  0.83310000  0.50880000  1
  H  H75  1  0.81840000  0.94840000  0.39730000  1
  H  H76  1  0.51200000  0.00850000  0.34270000  1
  H  H77  1  0.25100000  0.39550000  0.97610000  1
  H  H78  1  0.38310000  0.81770000  0.57070000  1
  H  H79  1  0.27490000  0.02390000  0.41940000  1
  H  H80  1  0.13000000  0.94840000  0.55110000  1
  H  H81  1  0.87000000  0.44890000  0.05160000  1
  H  H82  1  0.72510000  0.58060000  0.97610000  1
  H  H83  1  0.61690000  0.42930000  0.18230000  1
  H  H84  1  0.74900000  0.02390000  0.60450000  1
  H  H85  1  0.48800000  0.65730000  0.99150000  1
  H  H86  1  0.18160000  0.60270000  0.05160000  1
  H  H87  1  0.32840000  0.49120000  0.16690000  1
  H  H88  1  0.49650000  0.00850000  0.66580000  1
  H  H89  1  0.81240000  0.42930000  0.24700000  1
  H  H90  1  0.83070000  0.33420000  0.34270000  1
  H  H91  1  0.96610000  0.53680000  0.24060000  1
  H  H92  1  0.14450000  0.39550000  0.41940000  1
  H  H93  1  0.16280000  0.49120000  0.32430000  1
  H  H94  1  0.57070000  0.53680000  0.29620000  1
  H  H95  1  0.83850000  0.67570000  0.16690000  1
  H  H96  1  0.57890000  0.44890000  0.39730000  1
  H  H97  1  0.56540000  0.75300000  0.18230000  1
  H  H98  1  0.27450000  0.70380000  0.24060000  1
  La  La99  1  1.00000000  0.31528000  0.68472000  1
  La  La100  1  0.68472000  0.36944000  0.68472000  1
  La  La101  1  0.31528000  0.31528000  0.63056000  1
  N  N102  1  0.50000000  0.69115000  0.30885000  1
  N  N103  1  0.19115000  0.69115000  0.38230000  1
  N  N104  1  0.80885000  0.61770000  0.30885000  1
  O  O105  1  0.42910000  0.44610000  0.58820000  1
  O  O106  1  0.85600000  0.42140000  0.63740000  1
  O  O107  1  0.42680000  0.30710000  0.79990000  1
  O  O108  1  0.21860000  0.36260000  0.78400000  1
  O  O109  1  0.11970000  0.49280000  0.69290000  1
  O  O110  1  0.56540000  0.42140000  0.78400000  1
  O  O111  1  0.84090000  0.41180000  0.85790000  1
  O  O112  1  0.37310000  0.49280000  0.79990000  1
  O  O113  1  0.01700000  0.44610000  0.85790000  1
  O  O114  1  0.98300000  0.14210000  0.55390000  1
  O  O115  1  0.62690000  0.20010000  0.50720000  1
  O  O116  1  0.15910000  0.14210000  0.58820000  1
  O  O117  1  0.43460000  0.21600000  0.57860000  1
  O  O118  1  0.88030000  0.30710000  0.50720000  1
  O  O119  1  0.78140000  0.21600000  0.63740000  1
  O  O120  1  0.57320000  0.20010000  0.69290000  1
  O  O121  1  0.14400000  0.36260000  0.57860000  1
  O  O122  1  0.57090000  0.41180000  0.55390000  1
