# generated using pymatgen
data_Mn4P3H6(C2O7)4
_symmetry_space_group_name_H-M   'P 1'
_cell_length_a   9.57096825
_cell_length_b   9.57096825
_cell_length_c   22.28120000
_cell_angle_alpha   80.51303885
_cell_angle_beta   80.51303885
_cell_angle_gamma   73.19479010
_symmetry_Int_Tables_number   1
_chemical_formula_structural   Mn4P3H6(C2O7)4
_chemical_formula_sum   'Mn8 P6 H12 C16 O56'
_cell_volume   1912.24964754
_cell_formula_units_Z   2
loop_
 _symmetry_equiv_pos_site_id
 _symmetry_equiv_pos_as_xyz
  1  'x, y, z'
loop_
 _atom_site_type_symbol
 _atom_site_label
 _atom_site_symmetry_multiplicity
 _atom_site_fract_x
 _atom_site_fract_y
 _atom_site_fract_z
 _atom_site_occupancy
  C  C0  1  0.33950000  0.76730000  0.07397000  1
  C  C1  1  0.76730000  0.33950000  0.57397000  1
  C  C2  1  0.34740000  0.89340000  0.10819000  1
  C  C3  1  0.89340000  0.34740000  0.60819000  1
  C  C4  1  0.16660000  0.16360000  0.94062000  1
  C  C5  1  0.16360000  0.16660000  0.44062000  1
  C  C6  1  0.18330000  0.15130000  0.37087000  1
  C  C7  1  0.15130000  0.18330000  0.87087000  1
  C  C8  1  0.81670000  0.84870000  0.62913000  1
  C  C9  1  0.84870000  0.81670000  0.12913000  1
  C  C10  1  0.83340000  0.83640000  0.05938000  1
  C  C11  1  0.83640000  0.83340000  0.55938000  1
  C  C12  1  0.65260000  0.10660000  0.89181000  1
  C  C13  1  0.10660000  0.65260000  0.39181000  1
  C  C14  1  0.66050000  0.23270000  0.92603000  1
  C  C15  1  0.23270000  0.66050000  0.42603000  1
  H  H16  1  0.32660000  0.79460000  0.27160000  1
  H  H17  1  0.79460000  0.32660000  0.77160000  1
  H  H18  1  0.35800000  0.79800000  0.49750000  1
  H  H19  1  0.79800000  0.35800000  0.99750000  1
  H  H20  1  0.46460000  0.03460000  0.54510000  1
  H  H21  1  0.03460000  0.46460000  0.04510000  1
  H  H22  1  0.53540000  0.96540000  0.45490000  1
  H  H23  1  0.96540000  0.53540000  0.95490000  1
  H  H24  1  0.64200000  0.20200000  0.50250000  1
  H  H25  1  0.20200000  0.64200000  0.00250000  1
  H  H26  1  0.67340000  0.20540000  0.72840000  1
  H  H27  1  0.20540000  0.67340000  0.22840000  1
  Mn  Mn28  1  0.05103000  0.99889000  0.07122000  1
  Mn  Mn29  1  0.99889000  0.05103000  0.57122000  1
  Mn  Mn30  1  0.62907000  0.66131000  0.12036000  1
  Mn  Mn31  1  0.66131000  0.62907000  0.62036000  1
  Mn  Mn32  1  0.37093000  0.33869000  0.87964000  1
  Mn  Mn33  1  0.33869000  0.37093000  0.37964000  1
  Mn  Mn34  1  0.94897000  0.00111000  0.92878000  1
  Mn  Mn35  1  0.00111000  0.94897000  0.42878000  1
  O  O36  1  0.22172000  0.78712000  0.05143000  1
  O  O37  1  0.78712000  0.22172000  0.55143000  1
  O  O38  1  0.37270000  0.71850000  0.29027000  1
  O  O39  1  0.71850000  0.37270000  0.79027000  1
  O  O40  1  0.19724000  0.91264000  0.59466000  1
  O  O41  1  0.91264000  0.19724000  0.09466000  1
  O  O42  1  0.44970000  0.66050000  0.07025000  1
  O  O43  1  0.66050000  0.44970000  0.57025000  1
  O  O44  1  0.54620000  0.58020000  0.20717000  1
  O  O45  1  0.58020000  0.54620000  0.70717000  1
  O  O46  1  0.09628000  0.08048000  0.97448000  1
  O  O47  1  0.08048000  0.09628000  0.47448000  1
  O  O48  1  0.12042000  0.06642000  0.35526000  1
  O  O49  1  0.06642000  0.12042000  0.85526000  1
  O  O50  1  0.44442000  0.75602000  0.61390000  1
  O  O51  1  0.75602000  0.44442000  0.11390000  1
  O  O52  1  0.23263000  0.99783000  0.11542000  1
  O  O53  1  0.99783000  0.23263000  0.61542000  1
  O  O54  1  0.39643000  0.85883000  0.50458000  1
  O  O55  1  0.85883000  0.39643000  0.00458000  1
  O  O56  1  0.46667000  0.88487000  0.12599000  1
  O  O57  1  0.88487000  0.46667000  0.62599000  1
  O  O58  1  0.40880000  0.02080000  0.57626000  1
  O  O59  1  0.02080000  0.40880000  0.07626000  1
  O  O60  1  0.24518000  0.22858000  0.95713000  1
  O  O61  1  0.22858000  0.24518000  0.45713000  1
  O  O62  1  0.25771000  0.22491000  0.33606000  1
  O  O63  1  0.22491000  0.25771000  0.83606000  1
  O  O64  1  0.74229000  0.77509000  0.66394000  1
  O  O65  1  0.77509000  0.74229000  0.16394000  1
  O  O66  1  0.75482000  0.77142000  0.04287000  1
  O  O67  1  0.77142000  0.75482000  0.54287000  1
  O  O68  1  0.59120000  0.97920000  0.42374000  1
  O  O69  1  0.97920000  0.59120000  0.92374000  1
  O  O70  1  0.53333000  0.11513000  0.87401000  1
  O  O71  1  0.11513000  0.53333000  0.37401000  1
  O  O72  1  0.60357000  0.14117000  0.49542000  1
  O  O73  1  0.14117000  0.60357000  0.99542000  1
  O  O74  1  0.76737000  0.00217000  0.88458000  1
  O  O75  1  0.00217000  0.76737000  0.38458000  1
  O  O76  1  0.55558000  0.24398000  0.38610000  1
  O  O77  1  0.24398000  0.55558000  0.88610000  1
  O  O78  1  0.87958000  0.93358000  0.64474000  1
  O  O79  1  0.93358000  0.87958000  0.14474000  1
  O  O80  1  0.90372000  0.91952000  0.02552000  1
  O  O81  1  0.91952000  0.90372000  0.52552000  1
  O  O82  1  0.45380000  0.41980000  0.79283000  1
  O  O83  1  0.41980000  0.45380000  0.29283000  1
  O  O84  1  0.55030000  0.33950000  0.92975000  1
  O  O85  1  0.33950000  0.55030000  0.42975000  1
  O  O86  1  0.80276000  0.08736000  0.40534000  1
  O  O87  1  0.08736000  0.80276000  0.90534000  1
  O  O88  1  0.62730000  0.28150000  0.70973000  1
  O  O89  1  0.28150000  0.62730000  0.20973000  1
  O  O90  1  0.77828000  0.21288000  0.94857000  1
  O  O91  1  0.21288000  0.77828000  0.44857000  1
  P  P92  1  0.40959000  0.59041000  0.25000000  1
  P  P93  1  0.59041000  0.40959000  0.75000000  1
  P  P94  1  0.35825000  0.88041000  0.57431000  1
  P  P95  1  0.88041000  0.35825000  0.07431000  1
  P  P96  1  0.64175000  0.11959000  0.42569000  1
  P  P97  1  0.11959000  0.64175000  0.92569000  1
