# generated using pymatgen
data_GaC24N2O5
_symmetry_space_group_name_H-M   'P 1'
_cell_length_a   6.69900000
_cell_length_b   16.55550000
_cell_length_c   16.81248355
_cell_angle_alpha   90.00000000
_cell_angle_beta   101.49175745
_cell_angle_gamma   90.00000000
_symmetry_Int_Tables_number   1
_chemical_formula_structural   GaC24N2O5
_chemical_formula_sum   'Ga2 C48 N4 O10'
_cell_volume   1827.21463427
_cell_formula_units_Z   2
loop_
 _symmetry_equiv_pos_site_id
 _symmetry_equiv_pos_as_xyz
  1  'x, y, z'
loop_
 _atom_site_type_symbol
 _atom_site_label
 _atom_site_symmetry_multiplicity
 _atom_site_fract_x
 _atom_site_fract_y
 _atom_site_fract_z
 _atom_site_occupancy
  C  C0  1  0.02046000  0.24670000  0.04092000  1
  C  C1  1  0.02046000  0.75330000  0.04092000  1
  C  C2  1  0.03153000  0.33020000  0.06306000  1
  C  C3  1  0.03153000  0.66980000  0.06306000  1
  C  C4  1  0.07053000  0.35530000  0.14106000  1
  C  C5  1  0.07053000  0.64470000  0.14106000  1
  C  C6  1  0.08525000  0.43300000  0.17050000  1
  C  C7  1  0.08525000  0.56700000  0.17050000  1
  C  C8  1  0.09960000  0.28450000  0.19920000  1
  C  C9  1  0.09960000  0.71550000  0.19920000  1
  C  C10  1  0.29222000  0.24900000  0.23384000  1
  C  C11  1  0.29222000  0.75100000  0.23384000  1
  C  C12  1  0.94162000  0.24900000  0.23384000  1
  C  C13  1  0.94162000  0.75100000  0.23384000  1
  C  C14  1  0.12320000  0.46020000  0.24640000  1
  C  C15  1  0.12320000  0.53980000  0.24640000  1
  C  C16  1  0.31938000  0.19230000  0.29736000  1
  C  C17  1  0.31938000  0.80770000  0.29736000  1
  C  C18  1  0.97798000  0.19230000  0.29736000  1
  C  C19  1  0.97798000  0.80770000  0.29736000  1
  C  C20  1  0.16651000  0.15890000  0.33302000  1
  C  C21  1  0.16651000  0.84110000  0.33302000  1
  C  C22  1  0.20090000  0.09310000  0.40180000  1
  C  C23  1  0.20090000  0.90690000  0.40180000  1
  C  C24  1  0.79910000  0.09310000  0.59820000  1
  C  C25  1  0.79910000  0.90690000  0.59820000  1
  C  C26  1  0.83349000  0.15890000  0.66698000  1
  C  C27  1  0.83349000  0.84110000  0.66698000  1
  C  C28  1  0.68062000  0.19230000  0.70264000  1
  C  C29  1  0.68062000  0.80770000  0.70264000  1
  C  C30  1  0.02202000  0.19230000  0.70264000  1
  C  C31  1  0.02202000  0.80770000  0.70264000  1
  C  C32  1  0.87680000  0.46020000  0.75360000  1
  C  C33  1  0.87680000  0.53980000  0.75360000  1
  C  C34  1  0.70778000  0.24900000  0.76616000  1
  C  C35  1  0.70778000  0.75100000  0.76616000  1
  C  C36  1  0.05838000  0.24900000  0.76616000  1
  C  C37  1  0.05838000  0.75100000  0.76616000  1
  C  C38  1  0.90040000  0.28450000  0.80080000  1
  C  C39  1  0.90040000  0.71550000  0.80080000  1
  C  C40  1  0.91475000  0.43300000  0.82950000  1
  C  C41  1  0.91475000  0.56700000  0.82950000  1
  C  C42  1  0.92947000  0.35530000  0.85894000  1
  C  C43  1  0.92947000  0.64470000  0.85894000  1
  C  C44  1  0.96847000  0.33020000  0.93694000  1
  C  C45  1  0.96847000  0.66980000  0.93694000  1
  C  C46  1  0.97954000  0.24670000  0.95908000  1
  C  C47  1  0.97954000  0.75330000  0.95908000  1
  Ga  Ga48  1  0.50000000  1.00000000  0.50000000  1
  Ga  Ga49  1  1.00000000  1.00000000  0.50000000  1
  N  N50  1  0.00000000  0.38280000  0.00000000  1
  N  N51  1  0.00000000  0.61720000  0.00000000  1
  N  N52  1  0.06150000  0.50000000  0.12300000  1
  N  N53  1  0.93850000  0.50000000  0.87700000  1
  O  O54  1  0.39746000  0.08650000  0.41872000  1
  O  O55  1  0.39746000  0.91350000  0.41872000  1
  O  O56  1  0.02126000  0.08650000  0.41872000  1
  O  O57  1  0.02126000  0.91350000  0.41872000  1
  O  O58  1  0.72650000  1.00000000  0.45300000  1
  O  O59  1  0.27350000  1.00000000  0.54700000  1
  O  O60  1  0.60254000  0.08650000  0.58128000  1
  O  O61  1  0.60254000  0.91350000  0.58128000  1
  O  O62  1  0.97874000  0.08650000  0.58128000  1
  O  O63  1  0.97874000  0.91350000  0.58128000  1
