# generated using pymatgen
data_CeH7(C5O2)3
_symmetry_space_group_name_H-M   'P 1'
_cell_length_a   12.88360000
_cell_length_b   13.99309108
_cell_length_c   15.05380000
_cell_angle_alpha   95.95291446
_cell_angle_beta   90.00000000
_cell_angle_gamma   117.41006607
_symmetry_Int_Tables_number   1
_chemical_formula_structural   CeH7(C5O2)3
_chemical_formula_sum   'Ce4 H28 C60 O24'
_cell_volume   2392.74270635
_cell_formula_units_Z   4
loop_
 _symmetry_equiv_pos_site_id
 _symmetry_equiv_pos_as_xyz
  1  'x, y, z'
loop_
 _atom_site_type_symbol
 _atom_site_label
 _atom_site_symmetry_multiplicity
 _atom_site_fract_x
 _atom_site_fract_y
 _atom_site_fract_z
 _atom_site_occupancy
  C  C0  1  0.89485000  0.98410000  0.42220000  1
  C  C1  1  0.08925000  0.98410000  0.92220000  1
  C  C2  1  0.72000000  0.97940000  0.11620000  1
  C  C3  1  0.25940000  0.97940000  0.61620000  1
  C  C4  1  0.77710000  0.95560000  0.42000000  1
  C  C5  1  0.17850000  0.95560000  0.92000000  1
  C  C6  1  0.89448000  0.91956000  0.10720000  1
  C  C7  1  0.02508000  0.91956000  0.60720000  1
  C  C8  1  0.70270000  0.88300000  0.14640000  1
  C  C9  1  0.18030000  0.88300000  0.64640000  1
  C  C10  1  0.69364000  0.85648000  0.46170000  1
  C  C11  1  0.16284000  0.85648000  0.96170000  1
  C  C12  1  0.78932000  0.85064000  0.14070000  1
  C  C13  1  0.06132000  0.85064000  0.64070000  1
  C  C14  1  0.76775000  0.74270000  0.16490000  1
  C  C15  1  0.97495000  0.74270000  0.66490000  1
  C  C16  1  0.69915000  0.69930000  0.23650000  1
  C  C17  1  0.00015000  0.69930000  0.73650000  1
  C  C18  1  0.80929000  0.67978000  0.11440000  1
  C  C19  1  0.87049000  0.67978000  0.61440000  1
  C  C20  1  0.66936000  0.59432000  0.25490000  1
  C  C21  1  0.92496000  0.59432000  0.75490000  1
  C  C22  1  0.77730000  0.57400000  0.13110000  1
  C  C23  1  0.79670000  0.57400000  0.63110000  1
  C  C24  1  0.59700000  0.55100000  0.33410000  1
  C  C25  1  0.95400000  0.55100000  0.83410000  1
  C  C26  1  0.70587000  0.53194000  0.20040000  1
  C  C27  1  0.82607000  0.53194000  0.70040000  1
  C  C28  1  0.68826000  0.50432000  0.57300000  1
  C  C29  1  0.81606000  0.50432000  0.07300000  1
  C  C30  1  0.31174000  0.49568000  0.42700000  1
  C  C31  1  0.18394000  0.49568000  0.92700000  1
  C  C32  1  0.29413000  0.46806000  0.79960000  1
  C  C33  1  0.17393000  0.46806000  0.29960000  1
  C  C34  1  0.40300000  0.44900000  0.66590000  1
  C  C35  1  0.04600000  0.44900000  0.16590000  1
  C  C36  1  0.22270000  0.42600000  0.86890000  1
  C  C37  1  0.20330000  0.42600000  0.36890000  1
  C  C38  1  0.33064000  0.40568000  0.74510000  1
  C  C39  1  0.07504000  0.40568000  0.24510000  1
  C  C40  1  0.19071000  0.32022000  0.88560000  1
  C  C41  1  0.12951000  0.32022000  0.38560000  1
  C  C42  1  0.30085000  0.30070000  0.76350000  1
  C  C43  1  0.99985000  0.30070000  0.26350000  1
  C  C44  1  0.23225000  0.25730000  0.83510000  1
  C  C45  1  0.02505000  0.25730000  0.33510000  1
  C  C46  1  0.21068000  0.14936000  0.85930000  1
  C  C47  1  0.93868000  0.14936000  0.35930000  1
  C  C48  1  0.30636000  0.14352000  0.53830000  1
  C  C49  1  0.83716000  0.14352000  0.03830000  1
  C  C50  1  0.29730000  0.11700000  0.85360000  1
  C  C51  1  0.81970000  0.11700000  0.35360000  1
  C  C52  1  0.10552000  0.08044000  0.89280000  1
  C  C53  1  0.97492000  0.08044000  0.39280000  1
  C  C54  1  0.22290000  0.04440000  0.58000000  1
  C  C55  1  0.82150000  0.04440000  0.08000000  1
  C  C56  1  0.28000000  0.02060000  0.88380000  1
  C  C57  1  0.74060000  0.02060000  0.38380000  1
  C  C58  1  0.10515000  0.01590000  0.57780000  1
  C  C59  1  0.91075000  0.01590000  0.07780000  1
  Ce  Ce60  1  0.53185000  0.65762000  0.53383000  1
  Ce  Ce61  1  0.12577000  0.65762000  0.03383000  1
  Ce  Ce62  1  0.46815000  0.34238000  0.46617000  1
  Ce  Ce63  1  0.87423000  0.34238000  0.96617000  1
  H  H64  1  0.66080000  0.99980000  0.12080000  1
  H  H65  1  0.33900000  0.99980000  0.62080000  1
  H  H66  1  0.92070000  0.93840000  0.44370000  1
  H  H67  1  0.01770000  0.93840000  0.94370000  1
  H  H68  1  0.94580000  0.90100000  0.60440000  1
  H  H69  1  0.95520000  0.90100000  0.10440000  1
  H  H70  1  0.63220000  0.83960000  0.17080000  1
  H  H71  1  0.20740000  0.83960000  0.67080000  1
  H  H72  1  0.67290000  0.74100000  0.27250000  1
  H  H73  1  0.06810000  0.74100000  0.77250000  1
  H  H74  1  0.84970000  0.70880000  0.56880000  1
  H  H75  1  0.85910000  0.70880000  0.06880000  1
  H  H76  1  0.31780000  0.53960000  0.78970000  1
  H  H77  1  0.22180000  0.53960000  0.28970000  1
  H  H78  1  0.68220000  0.46040000  0.21030000  1
  H  H79  1  0.77820000  0.46040000  0.71030000  1
  H  H80  1  0.15030000  0.29120000  0.43120000  1
  H  H81  1  0.14090000  0.29120000  0.93120000  1
  H  H82  1  0.32710000  0.25900000  0.72750000  1
  H  H83  1  0.93190000  0.25900000  0.22750000  1
  H  H84  1  0.36780000  0.16040000  0.82920000  1
  H  H85  1  0.79260000  0.16040000  0.32920000  1
  H  H86  1  0.05420000  0.09900000  0.39560000  1
  H  H87  1  0.04480000  0.09900000  0.89560000  1
  H  H88  1  0.07930000  0.06160000  0.55630000  1
  H  H89  1  0.98230000  0.06160000  0.05630000  1
  H  H90  1  0.33920000  0.00020000  0.87920000  1
  H  H91  1  0.66100000  0.00020000  0.37920000  1
  O  O92  1  0.58589000  0.83038000  0.45970000  1
  O  O93  1  0.24449000  0.83038000  0.95970000  1
  O  O94  1  0.73360000  0.80300000  0.49840000  1
  O  O95  1  0.06940000  0.80300000  0.99840000  1
  O  O96  1  0.56519000  0.61258000  0.37850000  1
  O  O97  1  0.04739000  0.61258000  0.87850000  1
  O  O98  1  0.34527000  0.59594000  0.43940000  1
  O  O99  1  0.25067000  0.59594000  0.93940000  1
  O  O100  1  0.63405000  0.54690000  0.53670000  1
  O  O101  1  0.91285000  0.54690000  0.03670000  1
  O  O102  1  0.42753000  0.54366000  0.65160000  1
  O  O103  1  0.11613000  0.54366000  0.15160000  1
  O  O104  1  0.57247000  0.45634000  0.34840000  1
  O  O105  1  0.88387000  0.45634000  0.84840000  1
  O  O106  1  0.36595000  0.45310000  0.46330000  1
  O  O107  1  0.08715000  0.45310000  0.96330000  1
  O  O108  1  0.65473000  0.40406000  0.56060000  1
  O  O109  1  0.74933000  0.40406000  0.06060000  1
  O  O110  1  0.43481000  0.38742000  0.62150000  1
  O  O111  1  0.95261000  0.38742000  0.12150000  1
  O  O112  1  0.26640000  0.19700000  0.50160000  1
  O  O113  1  0.93060000  0.19700000  0.00160000  1
  O  O114  1  0.41411000  0.16962000  0.54030000  1
  O  O115  1  0.75551000  0.16962000  0.04030000  1
