# generated using pymatgen
data_ZnH18C22(N2O3)2
_symmetry_space_group_name_H-M   'P 1'
_cell_length_a   6.08100000
_cell_length_b   14.70800308
_cell_length_c   15.38433655
_cell_angle_alpha   83.07522893
_cell_angle_beta   78.60124252
_cell_angle_gamma   78.06954995
_symmetry_Int_Tables_number   1
_chemical_formula_structural   ZnH18C22(N2O3)2
_chemical_formula_sum   'Zn2 H36 C44 N8 O12'
_cell_volume   1315.12390505
_cell_formula_units_Z   2
loop_
 _symmetry_equiv_pos_site_id
 _symmetry_equiv_pos_as_xyz
  1  'x, y, z'
loop_
 _atom_site_type_symbol
 _atom_site_label
 _atom_site_symmetry_multiplicity
 _atom_site_fract_x
 _atom_site_fract_y
 _atom_site_fract_z
 _atom_site_occupancy
  C  C0  1  0.84310000  0.96440000  0.96580000  1
  C  C1  1  0.22670000  0.46440000  0.46580000  1
  C  C2  1  0.90410000  0.46899000  0.58421000  1
  C  C3  1  0.04270000  0.96899000  0.08421000  1
  C  C4  1  0.88535000  0.93317000  0.05113000  1
  C  C5  1  0.13035000  0.43317000  0.55113000  1
  C  C6  1  0.26680000  0.36285000  0.60675000  1
  C  C7  1  0.76360000  0.86285000  0.10675000  1
  C  C8  1  0.71660000  0.11930000  0.42010000  1
  C  C9  1  0.74400000  0.61930000  0.92010000  1
  C  C10  1  0.13810000  0.99100000  0.33960000  1
  C  C11  1  0.53130000  0.49100000  0.83960000  1
  C  C12  1  0.32720000  0.93060000  0.30040000  1
  C  C13  1  0.44180000  0.43060000  0.80040000  1
  C  C14  1  0.74170000  0.01650000  0.42970000  1
  C  C15  1  0.81210000  0.51650000  0.92970000  1
  C  C16  1  0.70919000  0.45631000  0.88471000  1
  C  C17  1  0.94979000  0.95631000  0.38471000  1
  C  C18  1  0.84235000  0.19515000  0.65055000  1
  C  C19  1  0.31195000  0.69515000  0.15055000  1
  C  C20  1  0.03770000  0.14020000  0.61060000  1
  C  C21  1  0.21150000  0.64020000  0.11060000  1
  C  C22  1  0.78850000  0.35980000  0.88940000  1
  C  C23  1  0.96230000  0.85980000  0.38940000  1
  C  C24  1  0.68805000  0.30485000  0.84945000  1
  C  C25  1  0.15765000  0.80485000  0.34945000  1
  C  C26  1  0.05021000  0.04369000  0.61529000  1
  C  C27  1  0.29081000  0.54369000  0.11529000  1
  C  C28  1  0.18790000  0.48350000  0.07030000  1
  C  C29  1  0.25830000  0.98350000  0.57030000  1
  C  C30  1  0.55820000  0.56940000  0.19960000  1
  C  C31  1  0.67280000  0.06940000  0.69960000  1
  C  C32  1  0.46870000  0.50900000  0.16040000  1
  C  C33  1  0.86190000  0.00900000  0.66040000  1
  C  C34  1  0.25600000  0.38070000  0.07990000  1
  C  C35  1  0.28340000  0.88070000  0.57990000  1
  C  C36  1  0.23640000  0.13715000  0.89325000  1
  C  C37  1  0.73320000  0.63715000  0.39325000  1
  C  C38  1  0.86965000  0.56683000  0.44887000  1
  C  C39  1  0.11465000  0.06683000  0.94887000  1
  C  C40  1  0.95730000  0.03101000  0.91579000  1
  C  C41  1  0.09590000  0.53101000  0.41579000  1
  C  C42  1  0.77330000  0.53560000  0.53420000  1
  C  C43  1  0.15690000  0.03560000  0.03420000  1
  H  H44  1  0.50630000  0.39210000  0.46510000  1
  H  H45  1  0.63650000  0.89210000  0.96510000  1
  H  H46  1  0.83870000  0.44790000  0.64090000  1
  H  H47  1  0.07250000  0.94790000  0.14090000  1
  H  H48  1  0.63760000  0.63670000  0.87970000  1
  H  H49  1  0.84600000  0.13670000  0.37970000  1
  H  H50  1  0.57970000  0.14640000  0.39720000  1
  H  H51  1  0.87670000  0.64640000  0.89720000  1
  H  H52  1  0.13800000  0.05460000  0.33540000  1
  H  H53  1  0.47200000  0.55460000  0.83540000  1
  H  H54  1  0.32420000  0.45530000  0.76890000  1
  H  H55  1  0.45160000  0.95530000  0.26890000  1
  H  H56  1  0.67340000  0.64150000  0.97710000  1
  H  H57  1  0.70800000  0.14150000  0.47710000  1
  H  H58  1  0.83600000  0.25920000  0.64720000  1
  H  H59  1  0.25760000  0.75920000  0.14720000  1
  H  H60  1  0.09190000  0.66670000  0.08070000  1
  H  H61  1  0.16070000  0.16670000  0.58070000  1
  H  H62  1  0.83930000  0.83330000  0.41930000  1
  H  H63  1  0.90810000  0.33330000  0.91930000  1
  H  H64  1  0.74240000  0.24080000  0.85280000  1
  H  H65  1  0.16400000  0.74080000  0.35280000  1
  H  H66  1  0.29200000  0.85850000  0.52290000  1
  H  H67  1  0.32660000  0.35850000  0.02290000  1
  H  H68  1  0.54840000  0.04470000  0.73110000  1
  H  H69  1  0.67580000  0.54470000  0.23110000  1
  H  H70  1  0.52800000  0.44540000  0.16460000  1
  H  H71  1  0.86200000  0.94540000  0.66460000  1
  H  H72  1  0.12330000  0.35360000  0.10280000  1
  H  H73  1  0.42030000  0.85360000  0.60280000  1
  H  H74  1  0.15400000  0.86330000  0.62030000  1
  H  H75  1  0.36240000  0.36330000  0.12030000  1
  H  H76  1  0.92750000  0.05210000  0.85910000  1
  H  H77  1  0.16130000  0.55210000  0.35910000  1
  H  H78  1  0.36350000  0.10790000  0.03490000  1
  H  H79  1  0.49370000  0.60790000  0.53490000  1
  N  N80  1  0.33950000  0.83927000  0.30573000  1
  N  N81  1  0.51550000  0.33927000  0.80573000  1
  N  N82  1  0.04780000  0.52880000  0.02140000  1
  N  N83  1  0.40200000  0.02880000  0.52140000  1
  N  N84  1  0.59800000  0.97120000  0.47860000  1
  N  N85  1  0.95220000  0.47120000  0.97860000  1
  N  N86  1  0.48450000  0.66073000  0.19427000  1
  N  N87  1  0.66050000  0.16073000  0.69427000  1
  O  O88  1  0.30750000  0.06920000  0.07060000  1
  O  O89  1  0.55270000  0.56920000  0.57060000  1
  O  O90  1  0.47020000  0.33349000  0.57751000  1
  O  O91  1  0.61880000  0.83349000  0.07751000  1
  O  O92  1  0.80999000  0.83609000  0.18293000  1
  O  O93  1  0.17099000  0.33609000  0.68293000  1
  O  O94  1  0.82901000  0.66391000  0.31707000  1
  O  O95  1  0.19001000  0.16391000  0.81707000  1
  O  O96  1  0.38120000  0.16651000  0.92249000  1
  O  O97  1  0.52980000  0.66651000  0.42249000  1
  O  O98  1  0.44730000  0.43080000  0.42940000  1
  O  O99  1  0.69250000  0.93080000  0.92940000  1
  Zn  Zn100  1  0.37862000  0.25000000  0.75000000  1
  Zn  Zn101  1  0.62138000  0.75000000  0.25000000  1
