# generated using pymatgen
data_Zn3P4(HO2)8
_symmetry_space_group_name_H-M   'P 1'
_cell_length_a   9.13205050
_cell_length_b   9.13205050
_cell_length_c   16.45018068
_cell_angle_alpha   98.10272462
_cell_angle_beta   98.10272462
_cell_angle_gamma   119.48531918
_symmetry_Int_Tables_number   1
_chemical_formula_structural   Zn3P4(HO2)8
_chemical_formula_sum   'Zn6 P8 H16 O32'
_cell_volume   1146.50171498
_cell_formula_units_Z   2
loop_
 _symmetry_equiv_pos_site_id
 _symmetry_equiv_pos_as_xyz
  1  'x, y, z'
loop_
 _atom_site_type_symbol
 _atom_site_label
 _atom_site_symmetry_multiplicity
 _atom_site_fract_x
 _atom_site_fract_y
 _atom_site_fract_z
 _atom_site_occupancy
  H  H0  1  0.14300000  0.36100000  0.64200000  1
  H  H1  1  0.21900000  0.50100000  0.85800000  1
  H  H2  1  0.68170000  0.39170000  0.21140000  1
  H  H3  1  0.68030000  0.47030000  0.28860000  1
  H  H4  1  0.13900000  0.35700000  0.85800000  1
  H  H5  1  0.99900000  0.28100000  0.64200000  1
  H  H6  1  0.10830000  0.81830000  0.28860000  1
  H  H7  1  0.02970000  0.81970000  0.21140000  1
  H  H8  1  0.97030000  0.18030000  0.78860000  1
  H  H9  1  0.89170000  0.18170000  0.71140000  1
  H  H10  1  0.00100000  0.71900000  0.35800000  1
  H  H11  1  0.86100000  0.64300000  0.14200000  1
  H  H12  1  0.31970000  0.52970000  0.71140000  1
  H  H13  1  0.31830000  0.60830000  0.78860000  1
  H  H14  1  0.78100000  0.49900000  0.14200000  1
  H  H15  1  0.85700000  0.63900000  0.35800000  1
  O  O16  1  0.85057000  0.93927000  0.81544000  1
  O  O17  1  0.62383000  0.03513000  0.68456000  1
  O  O18  1  0.69968000  0.41828000  0.16216000  1
  O  O19  1  0.75612000  0.53752000  0.33784000  1
  O  O20  1  0.32008000  0.03268000  0.45776000  1
  O  O21  1  0.07492000  0.86232000  0.04224000  1
  O  O22  1  0.59667000  0.65295000  0.40702000  1
  O  O23  1  0.74593000  0.18965000  0.09298000  1
  O  O24  1  0.84705000  0.90333000  0.09298000  1
  O  O25  1  0.31035000  0.75407000  0.40702000  1
  O  O26  1  0.46732000  0.17992000  0.04224000  1
  O  O27  1  0.63768000  0.42508000  0.45776000  1
  O  O28  1  0.08172000  0.80032000  0.33784000  1
  O  O29  1  0.96248000  0.74388000  0.16216000  1
  O  O30  1  0.56073000  0.64943000  0.68456000  1
  O  O31  1  0.46487000  0.87617000  0.81544000  1
  O  O32  1  0.53513000  0.12383000  0.18456000  1
  O  O33  1  0.43927000  0.35057000  0.31544000  1
  O  O34  1  0.03752000  0.25612000  0.83784000  1
  O  O35  1  0.91828000  0.19968000  0.66216000  1
  O  O36  1  0.36232000  0.57492000  0.54224000  1
  O  O37  1  0.53268000  0.82008000  0.95776000  1
  O  O38  1  0.68965000  0.24593000  0.59298000  1
  O  O39  1  0.15295000  0.09667000  0.90702000  1
  O  O40  1  0.25407000  0.81035000  0.90702000  1
  O  O41  1  0.40333000  0.34705000  0.59298000  1
  O  O42  1  0.92508000  0.13768000  0.95776000  1
  O  O43  1  0.67992000  0.96732000  0.54224000  1
  O  O44  1  0.24388000  0.46248000  0.66216000  1
  O  O45  1  0.30032000  0.58172000  0.83784000  1
  O  O46  1  0.37617000  0.96487000  0.31544000  1
  O  O47  1  0.14943000  0.06073000  0.18456000  1
  P  P48  1  0.28479000  0.89419000  0.38268000  1
  P  P49  1  0.01151000  0.90211000  0.11732000  1
  P  P50  1  0.60581000  0.21521000  0.11732000  1
  P  P51  1  0.59789000  0.48849000  0.38268000  1
  P  P52  1  0.40211000  0.51151000  0.61732000  1
  P  P53  1  0.39419000  0.78479000  0.88268000  1
  P  P54  1  0.98849000  0.09789000  0.88268000  1
  P  P55  1  0.71521000  0.10581000  0.61732000  1
  Zn  Zn56  1  0.62500000  0.87500000  0.75000000  1
  Zn  Zn57  1  0.48928000  0.73928000  0.47856000  1
  Zn  Zn58  1  0.76072000  0.01072000  0.02144000  1
  Zn  Zn59  1  0.23928000  0.98928000  0.97856000  1
  Zn  Zn60  1  0.51072000  0.26072000  0.52144000  1
  Zn  Zn61  1  0.37500000  0.12500000  0.25000000  1
