# generated using pymatgen
data_CuH12C18NO4
_symmetry_space_group_name_H-M   'P 1'
_cell_length_a   11.78200000
_cell_length_b   13.00540000
_cell_length_c   13.00540000
_cell_angle_alpha   97.82830000
_cell_angle_beta   105.47300000
_cell_angle_gamma   105.47300000
_symmetry_Int_Tables_number   1
_chemical_formula_structural   CuH12C18NO4
_chemical_formula_sum   'Cu4 H48 C72 N4 O16'
_cell_volume   1804.25168635
_cell_formula_units_Z   4
loop_
 _symmetry_equiv_pos_site_id
 _symmetry_equiv_pos_as_xyz
  1  'x, y, z'
loop_
 _atom_site_type_symbol
 _atom_site_label
 _atom_site_symmetry_multiplicity
 _atom_site_fract_x
 _atom_site_fract_y
 _atom_site_fract_z
 _atom_site_occupancy
  Cu  Cu0  1  0.12588000  0.23121000  0.67759000  1
  Cu  Cu1  1  0.37412000  0.32241000  0.76879000  1
  Cu  Cu2  1  0.62588000  0.67759000  0.23121000  1
  Cu  Cu3  1  0.87412000  0.76879000  0.32241000  1
  H  H4  1  0.00330000  0.68170000  0.59530000  1
  H  H5  1  0.00720000  0.55110000  0.10790000  1
  H  H6  1  0.02530000  0.51710000  0.61650000  1
  H  H7  1  0.02960000  0.15270000  0.13690000  1
  H  H8  1  0.04030000  0.61770000  0.02110000  1
  H  H9  1  0.04780000  0.17620000  0.97140000  1
  H  H10  1  0.08120000  0.99040000  0.40980000  1
  H  H11  1  0.09410000  0.88660000  0.63980000  1
  H  H12  1  0.10730000  0.69900000  0.38540000  1
  H  H13  1  0.12100000  0.19410000  0.33990000  1
  H  H14  1  0.18020000  0.54710000  0.23330000  1
  H  H15  1  0.20650000  0.53130000  0.93330000  1
  H  H16  1  0.29350000  0.06670000  0.46870000  1
  H  H17  1  0.31980000  0.76670000  0.45290000  1
  H  H18  1  0.37900000  0.66010000  0.80590000  1
  H  H19  1  0.39270000  0.61460000  0.30100000  1
  H  H20  1  0.40590000  0.36020000  0.11340000  1
  H  H21  1  0.41880000  0.59020000  0.00960000  1
  H  H22  1  0.45220000  0.02860000  0.82380000  1
  H  H23  1  0.45970000  0.97890000  0.38230000  1
  H  H24  1  0.47040000  0.86310000  0.84730000  1
  H  H25  1  0.47470000  0.38350000  0.48290000  1
  H  H26  1  0.49280000  0.89210000  0.44890000  1
  H  H27  1  0.49670000  0.40470000  0.31830000  1
  H  H28  1  0.50330000  0.59530000  0.68170000  1
  H  H29  1  0.50720000  0.10790000  0.55110000  1
  H  H30  1  0.52530000  0.61650000  0.51710000  1
  H  H31  1  0.52960000  0.13690000  0.15270000  1
  H  H32  1  0.54030000  0.02110000  0.61770000  1
  H  H33  1  0.54780000  0.97140000  0.17620000  1
  H  H34  1  0.58120000  0.40980000  0.99040000  1
  H  H35  1  0.59410000  0.63980000  0.88660000  1
  H  H36  1  0.60730000  0.38540000  0.69900000  1
  H  H37  1  0.62100000  0.33990000  0.19410000  1
  H  H38  1  0.68020000  0.23330000  0.54710000  1
  H  H39  1  0.70650000  0.93330000  0.53130000  1
  H  H40  1  0.79350000  0.46870000  0.06670000  1
  H  H41  1  0.81980000  0.45290000  0.76670000  1
  H  H42  1  0.87900000  0.80590000  0.66010000  1
  H  H43  1  0.89270000  0.30100000  0.61460000  1
  H  H44  1  0.90590000  0.11340000  0.36020000  1
  H  H45  1  0.91880000  0.00960000  0.59020000  1
  H  H46  1  0.95220000  0.82380000  0.02860000  1
  H  H47  1  0.95970000  0.38230000  0.97890000  1
  H  H48  1  0.97040000  0.84730000  0.86310000  1
  H  H49  1  0.97470000  0.48290000  0.38350000  1
  H  H50  1  0.99280000  0.44890000  0.89210000  1
  H  H51  1  0.99670000  0.31830000  0.40470000  1
  C  C52  1  0.03910000  0.55066000  0.04646000  1
  C  C53  1  0.07870000  0.67850000  0.63830000  1
  C  C54  1  0.09240000  0.58040000  0.65000000  1
  C  C55  1  0.10480000  0.19540000  0.13300000  1
  C  C56  1  0.11600000  0.20820000  0.03420000  1
  C  C57  1  0.13010000  0.94460000  0.41440000  1
  C  C58  1  0.14520000  0.77430000  0.40130000  1
  C  C59  1  0.16830000  0.53800000  0.07760000  1
  C  C60  1  0.16920000  0.88110000  0.68070000  1
  C  C61  1  0.17900000  0.77700000  0.69100000  1
  C  C62  1  0.19570000  0.23630000  0.33450000  1
  C  C63  1  0.20610000  0.24630000  0.23110000  1
  C  C64  1  0.20620000  0.57210000  0.71210000  1
  C  C65  1  0.22130000  0.46247000  0.72133000  1
  C  C66  1  0.22620000  0.55900000  0.18540000  1
  C  C67  1  0.23100000  0.26990000  0.02550000  1
  C  C68  1  0.24150000  0.28130000  0.91550000  1
  C  C69  1  0.24260000  0.54880000  0.00900000  1
  C  C70  1  0.25740000  0.99100000  0.45120000  1
  C  C71  1  0.25850000  0.08450000  0.71870000  1
  C  C72  1  0.26900000  0.97450000  0.73010000  1
  C  C73  1  0.27380000  0.81460000  0.44100000  1
  C  C74  1  0.27870000  0.27867000  0.53753000  1
  C  C75  1  0.29380000  0.28790000  0.42790000  1
  C  C76  1  0.29390000  0.76890000  0.75370000  1
  C  C77  1  0.30430000  0.66550000  0.76370000  1
  C  C78  1  0.32100000  0.30900000  0.22300000  1
  C  C79  1  0.33080000  0.31930000  0.11890000  1
  C  C80  1  0.33170000  0.92240000  0.46200000  1
  C  C81  1  0.35480000  0.59870000  0.22570000  1
  C  C82  1  0.36990000  0.58560000  0.05540000  1
  C  C83  1  0.38400000  0.96580000  0.79180000  1
  C  C84  1  0.39520000  0.86700000  0.80460000  1
  C  C85  1  0.40760000  0.35000000  0.41960000  1
  C  C86  1  0.42130000  0.36170000  0.32150000  1
  C  C87  1  0.46090000  0.95354000  0.44934000  1
  C  C88  1  0.53910000  0.04646000  0.55066000  1
  C  C89  1  0.57870000  0.63830000  0.67850000  1
  C  C90  1  0.59240000  0.65000000  0.58040000  1
  C  C91  1  0.60480000  0.13300000  0.19540000  1
  C  C92  1  0.61600000  0.03420000  0.20820000  1
  C  C93  1  0.63010000  0.41440000  0.94460000  1
  C  C94  1  0.64520000  0.40130000  0.77430000  1
  C  C95  1  0.66830000  0.07760000  0.53800000  1
  C  C96  1  0.66920000  0.68070000  0.88110000  1
  C  C97  1  0.67900000  0.69100000  0.77700000  1
  C  C98  1  0.69570000  0.33450000  0.23630000  1
  C  C99  1  0.70610000  0.23110000  0.24630000  1
  C  C100  1  0.70620000  0.71210000  0.57210000  1
  C  C101  1  0.72130000  0.72133000  0.46247000  1
  C  C102  1  0.72620000  0.18540000  0.55900000  1
  C  C103  1  0.73100000  0.02550000  0.26990000  1
  C  C104  1  0.74150000  0.91550000  0.28130000  1
  C  C105  1  0.74260000  0.00900000  0.54880000  1
  C  C106  1  0.75740000  0.45120000  0.99100000  1
  C  C107  1  0.75850000  0.71870000  0.08450000  1
  C  C108  1  0.76900000  0.73010000  0.97450000  1
  C  C109  1  0.77380000  0.44100000  0.81460000  1
  C  C110  1  0.77870000  0.53753000  0.27867000  1
  C  C111  1  0.79380000  0.42790000  0.28790000  1
  C  C112  1  0.79390000  0.75370000  0.76890000  1
  C  C113  1  0.80430000  0.76370000  0.66550000  1
  C  C114  1  0.82100000  0.22300000  0.30900000  1
  C  C115  1  0.83080000  0.11890000  0.31930000  1
  C  C116  1  0.83170000  0.46200000  0.92240000  1
  C  C117  1  0.85480000  0.22570000  0.59870000  1
  C  C118  1  0.86990000  0.05540000  0.58560000  1
  C  C119  1  0.88400000  0.79180000  0.96580000  1
  C  C120  1  0.89520000  0.80460000  0.86700000  1
  C  C121  1  0.90760000  0.41960000  0.35000000  1
  C  C122  1  0.92130000  0.32150000  0.36170000  1
  C  C123  1  0.96090000  0.44934000  0.95354000  1
  N  N124  1  0.07410000  0.83655000  0.38505000  1
  N  N125  1  0.42590000  0.61495000  0.16345000  1
  N  N126  1  0.57410000  0.38505000  0.83655000  1
  N  N127  1  0.92590000  0.16345000  0.61495000  1
  O  O128  1  0.12360000  0.38061000  0.68301000  1
  O  O129  1  0.14220000  0.24923000  0.83657000  1
  O  O130  1  0.14990000  0.08963000  0.67855000  1
  O  O131  1  0.17090000  0.23465000  0.54033000  1
  O  O132  1  0.32910000  0.45967000  0.76535000  1
  O  O133  1  0.35010000  0.32145000  0.91037000  1
  O  O134  1  0.35780000  0.16343000  0.75077000  1
  O  O135  1  0.37640000  0.31699000  0.61939000  1
  O  O136  1  0.62360000  0.68301000  0.38061000  1
  O  O137  1  0.64220000  0.83657000  0.24923000  1
  O  O138  1  0.64990000  0.67855000  0.08963000  1
  O  O139  1  0.67090000  0.54033000  0.23465000  1
  O  O140  1  0.82910000  0.76535000  0.45967000  1
  O  O141  1  0.85010000  0.91037000  0.32145000  1
  O  O142  1  0.85780000  0.75077000  0.16343000  1
  O  O143  1  0.87640000  0.61939000  0.31699000  1
