# generated using pymatgen
data_Nd2H39C72(NO2)6
_symmetry_space_group_name_H-M   'P 1'
_cell_length_a   16.15300000
_cell_length_b   16.15120000
_cell_length_c   31.29910000
_cell_angle_alpha   99.84200000
_cell_angle_beta   99.87700000
_cell_angle_gamma   96.67240000
_symmetry_Int_Tables_number   1
_chemical_formula_structural   Nd2H39C72(NO2)6
_chemical_formula_sum   'Nd8 H156 C288 N24 O48'
_cell_volume   7836.64335165
_cell_formula_units_Z   4
loop_
 _symmetry_equiv_pos_site_id
 _symmetry_equiv_pos_as_xyz
  1  'x, y, z'
loop_
 _atom_site_type_symbol
 _atom_site_label
 _atom_site_symmetry_multiplicity
 _atom_site_fract_x
 _atom_site_fract_y
 _atom_site_fract_z
 _atom_site_occupancy
  Nd  Nd0  1  0.97965000  0.85885000  0.91363000  1
  Nd  Nd1  1  0.81431000  0.85714000  0.80029000  1
  Nd  Nd2  1  0.64315000  0.68577000  0.69973000  1
  Nd  Nd3  1  0.64122000  0.52034000  0.58638000  1
  Nd  Nd4  1  0.35878000  0.47966000  0.41362000  1
  Nd  Nd5  1  0.35685000  0.31423000  0.30027000  1
  Nd  Nd6  1  0.18569000  0.14286000  0.19971000  1
  Nd  Nd7  1  0.02035000  0.14115000  0.08637000  1
  H  H8  1  0.18390000  0.99690000  0.54380000  1
  H  H9  1  0.07670000  0.98530000  0.38580000  1
  H  H10  1  0.90880000  0.98210000  0.68350000  1
  H  H11  1  0.30310000  0.97690000  0.44190000  1
  H  H12  1  0.36360000  0.97270000  0.70100000  1
  H  H13  1  0.37640000  0.95670000  0.20190000  1
  H  H14  1  0.67830000  0.95220000  0.87830000  1
  H  H15  1  0.85850000  0.94940000  0.17540000  1
  H  H16  1  0.89500000  0.94900000  0.40300000  1
  H  H17  1  0.41680000  0.94800000  0.11190000  1
  H  H18  1  0.82050000  0.92020000  0.24060000  1
  H  H19  1  0.44910000  0.91580000  0.61150000  1
  H  H20  1  0.59290000  0.91570000  0.16440000  1
  H  H21  1  0.58300000  0.90320000  0.33530000  1
  H  H22  1  0.36510000  0.89070000  0.49320000  1
  H  H23  1  0.95690000  0.87960000  0.06710000  1
  H  H24  1  0.13130000  0.87790000  0.04110000  1
  H  H25  1  0.45630000  0.87390000  0.70260000  1
  H  H26  1  0.97750000  0.87010000  0.56880000  1
  H  H27  1  0.95070000  0.86680000  0.28470000  1
  H  H28  1  0.38980000  0.86610000  0.99270000  1
  H  H29  1  0.47660000  0.86570000  0.20050000  1
  H  H30  1  0.68700000  0.86330000  0.11460000  1
  H  H31  1  0.03240000  0.86020000  0.69120000  1
  H  H32  1  0.91660000  0.85560000  0.13160000  1
  H  H33  1  0.20120000  0.85330000  0.69420000  1
  H  H34  1  0.14570000  0.84290000  0.40040000  1
  H  H35  1  0.72550000  0.83560000  0.55350000  1
  H  H36  1  0.99270000  0.83450000  0.75720000  1
  H  H37  1  0.06490000  0.81960000  0.51510000  1
  H  H38  1  0.54800000  0.81920000  0.62130000  1
  H  H39  1  0.64030000  0.81610000  0.38660000  1
  H  H40  1  0.47600000  0.80190000  0.94120000  1
  H  H41  1  0.29070000  0.79940000  0.64020000  1
  H  H42  1  0.71020000  0.79930000  0.61990000  1
  H  H43  1  0.70120000  0.79130000  0.87840000  1
  H  H44  1  0.29890000  0.78920000  0.13990000  1
  H  H45  1  0.82320000  0.78290000  0.44030000  1
  H  H46  1  0.22390000  0.77980000  0.02990000  1
  H  H47  1  0.01360000  0.77880000  0.33540000  1
  H  H48  1  0.66490000  0.77630000  0.94610000  1
  H  H49  1  0.73590000  0.76300000  0.27630000  1
  H  H50  1  0.23870000  0.74680000  0.39470000  1
  H  H51  1  0.24690000  0.74340000  0.89660000  1
  H  H52  1  0.78670000  0.74130000  0.50480000  1
  H  H53  1  0.27840000  0.72470000  0.53020000  1
  H  H54  1  0.75850000  0.70750000  0.99460000  1
  H  H55  1  0.35250000  0.69860000  0.19300000  1
  H  H56  1  0.81220000  0.69460000  0.22470000  1
  H  H57  1  0.99530000  0.68630000  0.45160000  1
  H  H58  1  0.71770000  0.68190000  0.06110000  1
  H  H59  1  0.49570000  0.68080000  0.04360000  1
  H  H60  1  0.01040000  0.67830000  0.78590000  1
  H  H61  1  0.58130000  0.67540000  0.25890000  1
  H  H62  1  0.34270000  0.64890000  0.90100000  1
  H  H63  1  0.54780000  0.64230000  0.32460000  1
  H  H64  1  0.90200000  0.63960000  0.11380000  1
  H  H65  1  0.37560000  0.62870000  0.54130000  1
  H  H66  1  0.07950000  0.60500000  0.28580000  1
  H  H67  1  0.54980000  0.60410000  0.09740000  1
  H  H68  1  0.85970000  0.59580000  0.38590000  1
  H  H69  1  0.08890000  0.59420000  0.95010000  1
  H  H70  1  0.51880000  0.59360000  0.81710000  1
  H  H71  1  0.09530000  0.58730000  0.44940000  1
  H  H72  1  0.64890000  0.58200000  0.36850000  1
  H  H73  1  0.10400000  0.57880000  0.78800000  1
  H  H74  1  0.48300000  0.57870000  0.88510000  1
  H  H75  1  0.31980000  0.56480000  0.01640000  1
  H  H76  1  0.95870000  0.54940000  0.16400000  1
  H  H77  1  0.63430000  0.54760000  0.21560000  1
  H  H78  1  0.61730000  0.54360000  0.43260000  1
  H  H79  1  0.94820000  0.53680000  0.33390000  1
  H  H80  1  0.36010000  0.53440000  0.19220000  1
  H  H81  1  0.62700000  0.52370000  0.93050000  1
  H  H82  1  0.28150000  0.51630000  0.83740000  1
  H  H83  1  0.17800000  0.50830000  0.28810000  1
  H  H84  1  0.66700000  0.50760000  0.74380000  1
  H  H85  1  0.81200000  0.50250000  0.04820000  1
  H  H86  1  0.18800000  0.49750000  0.95180000  1
  H  H87  1  0.33300000  0.49240000  0.25620000  1
  H  H88  1  0.82200000  0.49170000  0.71190000  1
  H  H89  1  0.71850000  0.48370000  0.16260000  1
  H  H90  1  0.37300000  0.47630000  0.06950000  1
  H  H91  1  0.63990000  0.46560000  0.80780000  1
  H  H92  1  0.05180000  0.46320000  0.66610000  1
  H  H93  1  0.38270000  0.45640000  0.56740000  1
  H  H94  1  0.36570000  0.45240000  0.78440000  1
  H  H95  1  0.04130000  0.45060000  0.83600000  1
  H  H96  1  0.68020000  0.43520000  0.98360000  1
  H  H97  1  0.51700000  0.42130000  0.11490000  1
  H  H98  1  0.89600000  0.42120000  0.21200000  1
  H  H99  1  0.35110000  0.41800000  0.63150000  1
  H  H100  1  0.90470000  0.41270000  0.55060000  1
  H  H101  1  0.48120000  0.40640000  0.18290000  1
  H  H102  1  0.91110000  0.40580000  0.04990000  1
  H  H103  1  0.14030000  0.40420000  0.61410000  1
  H  H104  1  0.45020000  0.39590000  0.90260000  1
  H  H105  1  0.92050000  0.39500000  0.71420000  1
  H  H106  1  0.62440000  0.37130000  0.45870000  1
  H  H107  1  0.09800000  0.36040000  0.88620000  1
  H  H108  1  0.45220000  0.35770000  0.67540000  1
  H  H109  1  0.65730000  0.35110000  0.09900000  1
  H  H110  1  0.41870000  0.32460000  0.74110000  1
  H  H111  1  0.98960000  0.32170000  0.21410000  1
  H  H112  1  0.50430000  0.31920000  0.95640000  1
  H  H113  1  0.28230000  0.31810000  0.93890000  1
  H  H114  1  0.00470000  0.31370000  0.54840000  1
  H  H115  1  0.18780000  0.30540000  0.77530000  1
  H  H116  1  0.64750000  0.30140000  0.80700000  1
  H  H117  1  0.24150000  0.29250000  0.00540000  1
  H  H118  1  0.72160000  0.27530000  0.46980000  1
  H  H119  1  0.21330000  0.25870000  0.49520000  1
  H  H120  1  0.75310000  0.25660000  0.10340000  1
  H  H121  1  0.76130000  0.25320000  0.60530000  1
  H  H122  1  0.26410000  0.23700000  0.72370000  1
  H  H123  1  0.33510000  0.22370000  0.05390000  1
  H  H124  1  0.98640000  0.22120000  0.66460000  1
  H  H125  1  0.77610000  0.22020000  0.97010000  1
  H  H126  1  0.17680000  0.21710000  0.55970000  1
  H  H127  1  0.70110000  0.21080000  0.86010000  1
  H  H128  1  0.29880000  0.20870000  0.12160000  1
  H  H129  1  0.28980000  0.20070000  0.38010000  1
  H  H130  1  0.70930000  0.20060000  0.35980000  1
  H  H131  1  0.52400000  0.19810000  0.05880000  1
  H  H132  1  0.35970000  0.18390000  0.61340000  1
  H  H133  1  0.45200000  0.18080000  0.37870000  1
  H  H134  1  0.93510000  0.18040000  0.48490000  1
  H  H135  1  0.00730000  0.16550000  0.24280000  1
  H  H136  1  0.27450000  0.16440000  0.44650000  1
  H  H137  1  0.85430000  0.15710000  0.59960000  1
  H  H138  1  0.79880000  0.14670000  0.30580000  1
  H  H139  1  0.08340000  0.14440000  0.86840000  1
  H  H140  1  0.96760000  0.13980000  0.30880000  1
  H  H141  1  0.31300000  0.13670000  0.88540000  1
  H  H142  1  0.52340000  0.13430000  0.79950000  1
  H  H143  1  0.61020000  0.13390000  0.00730000  1
  H  H144  1  0.04930000  0.13320000  0.71530000  1
  H  H145  1  0.02250000  0.12990000  0.43120000  1
  H  H146  1  0.54370000  0.12610000  0.29740000  1
  H  H147  1  0.86870000  0.12210000  0.95890000  1
  H  H148  1  0.04310000  0.12040000  0.93290000  1
  H  H149  1  0.63490000  0.10930000  0.50680000  1
  H  H150  1  0.41700000  0.09680000  0.66470000  1
  H  H151  1  0.40710000  0.08430000  0.83560000  1
  H  H152  1  0.55090000  0.08420000  0.38850000  1
  H  H153  1  0.17950000  0.07980000  0.75940000  1
  H  H154  1  0.58320000  0.05200000  0.88810000  1
  H  H155  1  0.10500000  0.05100000  0.59700000  1
  H  H156  1  0.14150000  0.05060000  0.82460000  1
  H  H157  1  0.32170000  0.04780000  0.12170000  1
  H  H158  1  0.62360000  0.04330000  0.79810000  1
  H  H159  1  0.63640000  0.02730000  0.29900000  1
  H  H160  1  0.69690000  0.02310000  0.55810000  1
  H  H161  1  0.09120000  0.01790000  0.31650000  1
  H  H162  1  0.92330000  0.01470000  0.61420000  1
  H  H163  1  0.81610000  0.00310000  0.45620000  1
  C  C164  1  0.12220000  0.99530000  0.67540000  1
  C  C165  1  0.78090000  0.99320000  0.51430000  1
  C  C166  1  0.30150000  0.99280000  0.10410000  1
  C  C167  1  0.88160000  0.98750000  0.20260000  1
  C  C168  1  0.41620000  0.98700000  0.72150000  1
  C  C169  1  0.10610000  0.97540000  0.71880000  1
  C  C170  1  0.84870000  0.97350000  0.90720000  1
  C  C171  1  0.42990000  0.97240000  0.22150000  1
  C  C172  1  0.87940000  0.97130000  0.61560000  1
  C  C173  1  0.21740000  0.97070000  0.08500000  1
  C  C174  1  0.85930000  0.96960000  0.24140000  1
  C  C175  1  0.28560000  0.96950000  0.46860000  1
  C  C176  1  0.87180000  0.95150000  0.65720000  1
  C  C177  1  0.83880000  0.95010000  0.53480000  1
  C  C178  1  0.55130000  0.94980000  0.74980000  1
  C  C179  1  0.16640000  0.94170000  0.65090000  1
  C  C180  1  0.06300000  0.94030000  0.79710000  1
  C  C181  1  0.91110000  0.93650000  0.33980000  1
  C  C182  1  0.35870000  0.93360000  0.09780000  1
  C  C183  1  0.56730000  0.93340000  0.25020000  1
  C  C184  1  0.82640000  0.93060000  0.57810000  1
  C  C185  1  0.47180000  0.92820000  0.72150000  1
  C  C186  1  0.27450000  0.92720000  0.53220000  1
  C  C187  1  0.03400000  0.92340000  0.83770000  1
  C  C188  1  0.31950000  0.92200000  0.49660000  1
  C  C189  1  0.48980000  0.91760000  0.22160000  1
  C  C190  1  0.90630000  0.91600000  0.51600000  1
  C  C191  1  0.05300000  0.90010000  0.71810000  1
  C  C192  1  0.24490000  0.89500000  0.60360000  1
  C  C193  1  0.18900000  0.89140000  0.05600000  1
  C  C194  1  0.61010000  0.88660000  0.74940000  1
  C  C195  1  0.80850000  0.88570000  0.65880000  1
  C  C196  1  0.28700000  0.88560000  0.56850000  1
  C  C197  1  0.03060000  0.88430000  0.75760000  1
  C  C198  1  0.63410000  0.87940000  0.17010000  1
  C  C199  1  0.96990000  0.87560000  0.53870000  1
  C  C200  1  0.94960000  0.87350000  0.31530000  1
  C  C201  1  0.20760000  0.87310000  0.66780000  1
  C  C202  1  0.62680000  0.87250000  0.24930000  1
  C  C203  1  0.97870000  0.86630000  0.46790000  1
  C  C204  1  0.76280000  0.86510000  0.57990000  1
  C  C205  1  0.62090000  0.86370000  0.32980000  1
  C  C206  1  0.80090000  0.86130000  0.70090000  1
  C  C207  1  0.96670000  0.85910000  0.38640000  1
  C  C208  1  0.43380000  0.85770000  0.59750000  1
  C  C209  1  0.32890000  0.85360000  0.07050000  1
  C  C210  1  0.68380000  0.84880000  0.14250000  1
  C  C211  1  0.01640000  0.84720000  0.50950000  1
  C  C212  1  0.65530000  0.84690000  0.20960000  1
  C  C213  1  0.65260000  0.84520000  0.28980000  1
  C  C214  1  0.75390000  0.84350000  0.61920000  1
  C  C215  1  0.25670000  0.84340000  0.63850000  1
  C  C216  1  0.90800000  0.83960000  0.06560000  1
  C  C217  1  0.00000000  0.83620000  0.42690000  1
  C  C218  1  0.24390000  0.83330000  0.04910000  1
  C  C219  1  0.35400000  0.82980000  0.57090000  1
  C  C220  1  0.98410000  0.82520000  0.34280000  1
  C  C221  1  0.88480000  0.82510000  0.10390000  1
  C  C222  1  0.42110000  0.82070000  0.99650000  1
  C  C223  1  0.65270000  0.81710000  0.35810000  1
  C  C224  1  0.88780000  0.81070000  0.98390000  1
  C  C225  1  0.49280000  0.79990000  0.60380000  1
  C  C226  1  0.86280000  0.79820000  0.02550000  1
  C  C227  1  0.73110000  0.79040000  0.16260000  1
  C  C228  1  0.13410000  0.79040000  0.40960000  1
  C  C229  1  0.38650000  0.78940000  0.06820000  1
  C  C230  1  0.46870000  0.78530000  0.96820000  1
  C  C231  1  0.42680000  0.77710000  0.03310000  1
  C  C232  1  0.06230000  0.77300000  0.42550000  1
  C  C233  1  0.70930000  0.76860000  0.33740000  1
  C  C234  1  0.81390000  0.76490000  0.10210000  1
  C  C235  1  0.34310000  0.75550000  0.13820000  1
  C  C236  1  0.65770000  0.74740000  0.87970000  1
  C  C237  1  0.79080000  0.74610000  0.14550000  1
  C  C238  1  0.39520000  0.74440000  0.10390000  1
  C  C239  1  0.33210000  0.74380000  0.54920000  1
  C  C240  1  0.09470000  0.73850000  0.91790000  1
  C  C241  1  0.63580000  0.73830000  0.91980000  1
  C  C242  1  0.79020000  0.73720000  0.02260000  1
  C  C243  1  0.78110000  0.73550000  0.43850000  1
  C  C244  1  0.18970000  0.73360000  0.40670000  1
  C  C245  1  0.76640000  0.72190000  0.06210000  1
  C  C246  1  0.50600000  0.71880000  0.98590000  1
  C  C247  1  0.46840000  0.71480000  0.58390000  1
  C  C248  1  0.75500000  0.70930000  0.35550000  1
  C  C249  1  0.76040000  0.70810000  0.47660000  1
  C  C250  1  0.37330000  0.70610000  0.16710000  1
  C  C251  1  0.04550000  0.69810000  0.44040000  1
  C  C252  1  0.63760000  0.69630000  0.79760000  1
  C  C253  1  0.23360000  0.69280000  0.90730000  1
  C  C254  1  0.61490000  0.69130000  0.84140000  1
  C  C255  1  0.83880000  0.69050000  0.16370000  1
  C  C256  1  0.73520000  0.68780000  0.39800000  1
  C  C257  1  0.39000000  0.68650000  0.55590000  1
  C  C258  1  0.15580000  0.67570000  0.92060000  1
  C  C259  1  0.57180000  0.67440000  0.92220000  1
  C  C260  1  0.44200000  0.66740000  0.15170000  1
  C  C261  1  0.55070000  0.66240000  0.96580000  1
  C  C262  1  0.80970000  0.66150000  0.33530000  1
  C  C263  1  0.17740000  0.65810000  0.42050000  1
  C  C264  1  0.84310000  0.65680000  0.75040000  1
  C  C265  1  0.52840000  0.65060000  0.59310000  1
  C  C266  1  0.89130000  0.63950000  0.14270000  1
  C  C267  1  0.53040000  0.63860000  0.25810000  1
  C  C268  1  0.10460000  0.63850000  0.43870000  1
  C  C269  1  0.28990000  0.63640000  0.90980000  1
  C  C270  1  0.70430000  0.63610000  0.47500000  1
  C  C271  1  0.54950000  0.63020000  0.84350000  1
  C  C272  1  0.49480000  0.62220000  0.17500000  1
  C  C273  1  0.52790000  0.62130000  0.88400000  1
  C  C274  1  0.99110000  0.62070000  0.77180000  1
  C  C275  1  0.51090000  0.61790000  0.29710000  1
  C  C276  1  0.67690000  0.61510000  0.39640000  1
  C  C277  1  0.89470000  0.61490000  0.21060000  1
  C  C278  1  0.68880000  0.61480000  0.51860000  1
  C  C279  1  0.86000000  0.60670000  0.35700000  1
  C  C280  1  0.88380000  0.60580000  0.28900000  1
  C  C281  1  0.47560000  0.60540000  0.21860000  1
  C  C282  1  0.13920000  0.60430000  0.93880000  1
  C  C283  1  0.58400000  0.59550000  0.98330000  1
  C  C284  1  0.90590000  0.59450000  0.75050000  1
  C  C285  1  0.23970000  0.59440000  0.41770000  1
  C  C286  1  0.92340000  0.59130000  0.17020000  1
  C  C287  1  0.65950000  0.59090000  0.43420000  1
  C  C288  1  0.56500000  0.58940000  0.16040000  1
  C  C289  1  0.91590000  0.58310000  0.25030000  1
  C  C290  1  0.90740000  0.57370000  0.32870000  1
  C  C291  1  0.27320000  0.56280000  0.92450000  1
  C  C292  1  0.43820000  0.56210000  0.29610000  1
  C  C293  1  0.04730000  0.56130000  0.77210000  1
  C  C294  1  0.40050000  0.55390000  0.21900000  1
  C  C295  1  0.62700000  0.54960000  0.18500000  1
  C  C296  1  0.19890000  0.54730000  0.94010000  1
  C  C297  1  0.06190000  0.54730000  0.27140000  1
  C  C298  1  0.64330000  0.53330000  0.11380000  1
  C  C299  1  0.42450000  0.53330000  0.33780000  1
  C  C300  1  0.62280000  0.53160000  0.96080000  1
  C  C301  1  0.38300000  0.53040000  0.25710000  1
  C  C302  1  0.63470000  0.52130000  0.03310000  1
  C  C303  1  0.97640000  0.52050000  0.24940000  1
  C  C304  1  0.34720000  0.51640000  0.01020000  1
  C  C305  1  0.67330000  0.51500000  0.15580000  1
  C  C306  1  0.87880000  0.50960000  0.72760000  1
  C  C307  1  0.66560000  0.50060000  0.07400000  1
  C  C308  1  0.33440000  0.49940000  0.92600000  1
  C  C309  1  0.12120000  0.49040000  0.27240000  1
  C  C310  1  0.32670000  0.48500000  0.84420000  1
  C  C311  1  0.65280000  0.48360000  0.98980000  1
  C  C312  1  0.02360000  0.47950000  0.75060000  1
  C  C313  1  0.36530000  0.47870000  0.96690000  1
  C  C314  1  0.61700000  0.46960000  0.74290000  1
  C  C315  1  0.37720000  0.46840000  0.03920000  1
  C  C316  1  0.57550000  0.46670000  0.66220000  1
  C  C317  1  0.35670000  0.46670000  0.88620000  1
  C  C318  1  0.93810000  0.45270000  0.72860000  1
  C  C319  1  0.80110000  0.45270000  0.05990000  1
  C  C320  1  0.37300000  0.45040000  0.81500000  1
  C  C321  1  0.59950000  0.44610000  0.78100000  1
  C  C322  1  0.95270000  0.43870000  0.22790000  1
  C  C323  1  0.56180000  0.43790000  0.70390000  1
  C  C324  1  0.72680000  0.43720000  0.07550000  1
  C  C325  1  0.09260000  0.42630000  0.67130000  1
  C  C326  1  0.08410000  0.41690000  0.74970000  1
  C  C327  1  0.43500000  0.41060000  0.83960000  1
  C  C328  1  0.34050000  0.40910000  0.56580000  1
  C  C329  1  0.07660000  0.40870000  0.82980000  1
  C  C330  1  0.76030000  0.40560000  0.58230000  1
  C  C331  1  0.09410000  0.40550000  0.24950000  1
  C  C332  1  0.41600000  0.40450000  0.01670000  1
  C  C333  1  0.86080000  0.39570000  0.06120000  1
  C  C334  1  0.52440000  0.39460000  0.78140000  1
  C  C335  1  0.11620000  0.39420000  0.71100000  1
  C  C336  1  0.14000000  0.39330000  0.64300000  1
  C  C337  1  0.31120000  0.38520000  0.48140000  1
  C  C338  1  0.10530000  0.38510000  0.78940000  1
  C  C339  1  0.32310000  0.38490000  0.60360000  1
  C  C340  1  0.48910000  0.38210000  0.70290000  1
  C  C341  1  0.00890000  0.37930000  0.22820000  1
  C  C342  1  0.47210000  0.37870000  0.11600000  1
  C  C343  1  0.50520000  0.37780000  0.82500000  1
  C  C344  1  0.45050000  0.36980000  0.15650000  1
  C  C345  1  0.29570000  0.36390000  0.52500000  1
  C  C346  1  0.71010000  0.36360000  0.09020000  1
  C  C347  1  0.89540000  0.36150000  0.56130000  1
  C  C348  1  0.46960000  0.36140000  0.74190000  1
  C  C349  1  0.10870000  0.36050000  0.85730000  1
  C  C350  1  0.47160000  0.34940000  0.40690000  1
  C  C351  1  0.15690000  0.34320000  0.24960000  1
  C  C352  1  0.82260000  0.34190000  0.57950000  1
  C  C353  1  0.19030000  0.33850000  0.66470000  1
  C  C354  1  0.44930000  0.33760000  0.03420000  1
  C  C355  1  0.55800000  0.33260000  0.84830000  1
  C  C356  1  0.42820000  0.32560000  0.07780000  1
  C  C357  1  0.84420000  0.32430000  0.07940000  1
  C  C358  1  0.61000000  0.31350000  0.44410000  1
  C  C359  1  0.26480000  0.31220000  0.60200000  1
  C  C360  1  0.16120000  0.30950000  0.83630000  1
  C  C361  1  0.38510000  0.30870000  0.15860000  1
  C  C362  1  0.76640000  0.30720000  0.09270000  1
  C  C363  1  0.36240000  0.30370000  0.20240000  1
  C  C364  1  0.95450000  0.30190000  0.55960000  1
  C  C365  1  0.62670000  0.29390000  0.83290000  1
  C  C366  1  0.23960000  0.29190000  0.52340000  1
  C  C367  1  0.24500000  0.29070000  0.64450000  1
  C  C368  1  0.53160000  0.28520000  0.41610000  1
  C  C369  1  0.49400000  0.28120000  0.01410000  1
  C  C370  1  0.23360000  0.27810000  0.93790000  1
  C  C371  1  0.81030000  0.26640000  0.59330000  1
  C  C372  1  0.21890000  0.26450000  0.56150000  1
  C  C373  1  0.20980000  0.26280000  0.97740000  1
  C  C374  1  0.36420000  0.26170000  0.08020000  1
  C  C375  1  0.90530000  0.26150000  0.08210000  1
  C  C376  1  0.66790000  0.25620000  0.45080000  1
  C  C377  1  0.60480000  0.25560000  0.89610000  1
  C  C378  1  0.20920000  0.25390000  0.85450000  1
  C  C379  1  0.34230000  0.25260000  0.12030000  1
  C  C380  1  0.65690000  0.24450000  0.86180000  1
  C  C381  1  0.18610000  0.23510000  0.89790000  1
  C  C382  1  0.29070000  0.23140000  0.66260000  1
  C  C383  1  0.93770000  0.22700000  0.57450000  1
  C  C384  1  0.57320000  0.22290000  0.96690000  1
  C  C385  1  0.53130000  0.21470000  0.03180000  1
  C  C386  1  0.61350000  0.21060000  0.93180000  1
  C  C387  1  0.86590000  0.20960000  0.59040000  1
  C  C388  1  0.26890000  0.20960000  0.83740000  1
  C  C389  1  0.13720000  0.20180000  0.97450000  1
  C  C390  1  0.50720000  0.20010000  0.39620000  1
  C  C391  1  0.11220000  0.18930000  0.01610000  1
  C  C392  1  0.34730000  0.18290000  0.64190000  1
  C  C393  1  0.57890000  0.17930000  0.00350000  1
  C  C394  1  0.11520000  0.17490000  0.89610000  1
  C  C395  1  0.01590000  0.17480000  0.65720000  1
  C  C396  1  0.64600000  0.17020000  0.42910000  1
  C  C397  1  0.75610000  0.16670000  0.95090000  1
  C  C398  1  0.00000000  0.16380000  0.57310000  1
  C  C399  1  0.09200000  0.16040000  0.93440000  1
  C  C400  1  0.74330000  0.15660000  0.36150000  1
  C  C401  1  0.24610000  0.15650000  0.38080000  1
  C  C402  1  0.34740000  0.15480000  0.71020000  1
  C  C403  1  0.34470000  0.15310000  0.79040000  1
  C  C404  1  0.98360000  0.15280000  0.49050000  1
  C  C405  1  0.31620000  0.15120000  0.85750000  1
  C  C406  1  0.67110000  0.14640000  0.92950000  1
  C  C407  1  0.56620000  0.14230000  0.40250000  1
  C  C408  1  0.03330000  0.14090000  0.61360000  1
  C  C409  1  0.19910000  0.13870000  0.29910000  1
  C  C410  1  0.37910000  0.13630000  0.67020000  1
  C  C411  1  0.23720000  0.13490000  0.42010000  1
  C  C412  1  0.02130000  0.13370000  0.53210000  1
  C  C413  1  0.37320000  0.12750000  0.75070000  1
  C  C414  1  0.79240000  0.12690000  0.33220000  1
  C  C415  1  0.05040000  0.12650000  0.68470000  1
  C  C416  1  0.03010000  0.12440000  0.46130000  1
  C  C417  1  0.36590000  0.12060000  0.82990000  1
  C  C418  1  0.96940000  0.11570000  0.24240000  1
  C  C419  1  0.71300000  0.11440000  0.43150000  1
  C  C420  1  0.19150000  0.11430000  0.34120000  1
  C  C421  1  0.38990000  0.11340000  0.25060000  1
  C  C422  1  0.81100000  0.10860000  0.94400000  1
  C  C423  1  0.75510000  0.10500000  0.39640000  1
  C  C424  1  0.94700000  0.09990000  0.28190000  1
  C  C425  1  0.09370000  0.08400000  0.48400000  1
  C  C426  1  0.51020000  0.08240000  0.77840000  1
  C  C427  1  0.68050000  0.07800000  0.50340000  1
  C  C428  1  0.96600000  0.07660000  0.16230000  1
  C  C429  1  0.72550000  0.07280000  0.46780000  1
  C  C430  1  0.52820000  0.07180000  0.27850000  1
  C  C431  1  0.17360000  0.06940000  0.42190000  1
  C  C432  1  0.43270000  0.06660000  0.74980000  1
  C  C433  1  0.64130000  0.06640000  0.90220000  1
  C  C434  1  0.08890000  0.06350000  0.66020000  1
  C  C435  1  0.93700000  0.05970000  0.20290000  1
  C  C436  1  0.83360000  0.05830000  0.34910000  1
  C  C437  1  0.44870000  0.05020000  0.25020000  1
  C  C438  1  0.16120000  0.04990000  0.46520000  1
  C  C439  1  0.12820000  0.04850000  0.34280000  1
  C  C440  1  0.71440000  0.03050000  0.53140000  1
  C  C441  1  0.14070000  0.03040000  0.75860000  1
  C  C442  1  0.78260000  0.02930000  0.91500000  1
  C  C443  1  0.12060000  0.02870000  0.38440000  1
  C  C444  1  0.57010000  0.02760000  0.77850000  1
  C  C445  1  0.15130000  0.02650000  0.09280000  1
  C  C446  1  0.89390000  0.02460000  0.28120000  1
  C  C447  1  0.58380000  0.01300000  0.27850000  1
  C  C448  1  0.11840000  0.01250000  0.79740000  1
  C  C449  1  0.69850000  0.00720000  0.89590000  1
  C  C450  1  0.21910000  0.00680000  0.48570000  1
  C  C451  1  0.87780000  0.00470000  0.32460000  1
  N  N452  1  0.21730000  0.98080000  0.52550000  1
  N  N453  1  0.19150000  0.95170000  0.61140000  1
  N  N454  1  0.91790000  0.92220000  0.38220000  1
  N  N455  1  0.91480000  0.91450000  0.47290000  1
  N  N456  1  0.71350000  0.79060000  0.20430000  1
  N  N457  1  0.70750000  0.78560000  0.29580000  1
  N  N458  1  0.48060000  0.71550000  0.02580000  1
  N  N459  1  0.45130000  0.69010000  0.11120000  1
  N  N460  1  0.84070000  0.67270000  0.20520000  1
  N  N461  1  0.82600000  0.66070000  0.29410000  1
  N  N462  1  0.58530000  0.58560000  0.02650000  1
  N  N463  1  0.57780000  0.58210000  0.11830000  1
  N  N464  1  0.42220000  0.41790000  0.88170000  1
  N  N465  1  0.41470000  0.41440000  0.97350000  1
  N  N466  1  0.17400000  0.33930000  0.70590000  1
  N  N467  1  0.15930000  0.32730000  0.79480000  1
  N  N468  1  0.54870000  0.30990000  0.88880000  1
  N  N469  1  0.51940000  0.28450000  0.97420000  1
  N  N470  1  0.29250000  0.21440000  0.70420000  1
  N  N471  1  0.28650000  0.20940000  0.79570000  1
  N  N472  1  0.08520000  0.08550000  0.52710000  1
  N  N473  1  0.08210000  0.07780000  0.61780000  1
  N  N474  1  0.80850000  0.04830000  0.38860000  1
  N  N475  1  0.78270000  0.01920000  0.47450000  1
  O  O476  1  0.92290000  0.99530000  0.92610000  1
  O  O477  1  0.07540000  0.96120000  0.87540000  1
  O  O478  1  0.68460000  0.91080000  0.77470000  1
  O  O479  1  0.85020000  0.90620000  0.73580000  1
  O  O480  1  0.82420000  0.90530000  0.87950000  1
  O  O481  1  0.96480000  0.87350000  0.83360000  1
  O  O482  1  0.94850000  0.87170000  0.98800000  1
  O  O483  1  0.58940000  0.81570000  0.72570000  1
  O  O484  1  0.74980000  0.79750000  0.70290000  1
  O  O485  1  0.09630000  0.78770000  0.89190000  1
  O  O486  1  0.85800000  0.77730000  0.94950000  1
  O  O487  1  0.70310000  0.75020000  0.79750000  1
  O  O488  1  0.03980000  0.74110000  0.94350000  1
  O  O489  1  0.87100000  0.73170000  0.77090000  1
  O  O490  1  0.59670000  0.67700000  0.62140000  1
  O  O491  1  0.59300000  0.64930000  0.76420000  1
  O  O492  1  0.72880000  0.64420000  0.55250000  1
  O  O493  1  0.76870000  0.63070000  0.72990000  1
  O  O494  1  0.28720000  0.59570000  0.39110000  1
  O  O495  1  0.50390000  0.57730000  0.57320000  1
  O  O496  1  0.46020000  0.57450000  0.37480000  1
  O  O497  1  0.63050000  0.55230000  0.51340000  1
  O  O498  1  0.24090000  0.54070000  0.44450000  1
  O  O499  1  0.62750000  0.53600000  0.66680000  1
  O  O500  1  0.37250000  0.46400000  0.33320000  1
  O  O501  1  0.75910000  0.45930000  0.55550000  1
  O  O502  1  0.36950000  0.44770000  0.48660000  1
  O  O503  1  0.53980000  0.42550000  0.62520000  1
  O  O504  1  0.49610000  0.42270000  0.42680000  1
  O  O505  1  0.71280000  0.40430000  0.60890000  1
  O  O506  1  0.23130000  0.36930000  0.27010000  1
  O  O507  1  0.27120000  0.35580000  0.44750000  1
  O  O508  1  0.40700000  0.35070000  0.23580000  1
  O  O509  1  0.40330000  0.32300000  0.37860000  1
  O  O510  1  0.12900000  0.26830000  0.22910000  1
  O  O511  1  0.96020000  0.25890000  0.05650000  1
  O  O512  1  0.29690000  0.24980000  0.20250000  1
  O  O513  1  0.14200000  0.22270000  0.05050000  1
  O  O514  1  0.90370000  0.21230000  0.10810000  1
  O  O515  1  0.25020000  0.20250000  0.29710000  1
  O  O516  1  0.41060000  0.18430000  0.27430000  1
  O  O517  1  0.05150000  0.12830000  0.01200000  1
  O  O518  1  0.03520000  0.12650000  0.16640000  1
  O  O519  1  0.17580000  0.09470000  0.12050000  1
  O  O520  1  0.14980000  0.09380000  0.26420000  1
  O  O521  1  0.31540000  0.08920000  0.22530000  1
  O  O522  1  0.92460000  0.03880000  0.12460000  1
  O  O523  1  0.07710000  0.00470000  0.07390000  1
