# generated using pymatgen
data_Sm5(SO4)12
_symmetry_space_group_name_H-M   'P 1'
_cell_length_a   10.13180000
_cell_length_b   18.76667147
_cell_length_c   20.43120066
_cell_angle_alpha   116.14978453
_cell_angle_beta   102.33327778
_cell_angle_gamma   94.28952552
_symmetry_Int_Tables_number   1
_chemical_formula_structural   Sm5(SO4)12
_chemical_formula_sum   'Sm10 S24 O96'
_cell_volume   3342.87583965
_cell_formula_units_Z   2
loop_
 _symmetry_equiv_pos_site_id
 _symmetry_equiv_pos_as_xyz
  1  'x, y, z'
loop_
 _atom_site_type_symbol
 _atom_site_label
 _atom_site_symmetry_multiplicity
 _atom_site_fract_x
 _atom_site_fract_y
 _atom_site_fract_z
 _atom_site_occupancy
  O  O0  1  0.53227000  0.96897000  0.90384000  1
  O  O1  1  0.12843000  0.06513000  0.09616000  1
  O  O2  1  0.24617000  0.70927000  0.34952000  1
  O  O3  1  0.39665000  0.35975000  0.65048000  1
  O  O4  1  0.37464000  0.82004000  0.52000000  1
  O  O5  1  0.35464000  0.30004000  0.48000000  1
  O  O6  1  0.83470000  0.06380000  0.99740000  1
  O  O7  1  0.33730000  0.06640000  0.00260000  1
  O  O8  1  0.65912000  0.82922000  0.49268000  1
  O  O9  1  0.66644000  0.33654000  0.50732000  1
  O  O10  1  0.27265000  0.69895000  0.23070000  1
  O  O11  1  0.54195000  0.46825000  0.76930000  1
  O  O12  1  0.02850000  0.05700000  0.94392000  1
  O  O13  1  0.58458000  0.11308000  0.05608000  1
  O  O14  1  0.79327000  0.03487000  0.86934000  1
  O  O15  1  0.42393000  0.16553000  0.13066000  1
  O  O16  1  0.44713000  0.78223000  0.35106000  1
  O  O17  1  0.59607000  0.43117000  0.64894000  1
  O  O18  1  0.19666000  0.89476000  0.51012000  1
  O  O19  1  0.18654000  0.38464000  0.48988000  1
  O  O20  1  0.50632000  0.04322000  0.80254000  1
  O  O21  1  0.20378000  0.24068000  0.19746000  1
  O  O22  1  0.40224000  0.95744000  0.61508000  1
  O  O23  1  0.28716000  0.34236000  0.38492000  1
  O  O24  1  0.87564000  0.90964000  0.51528000  1
  O  O25  1  0.86036000  0.39436000  0.48472000  1
  O  O26  1  0.23723000  0.82523000  0.32358000  1
  O  O27  1  0.41365000  0.50165000  0.67642000  1
  O  O28  1  0.60710000  0.68520000  0.00840000  1
  O  O29  1  0.09870000  0.67680000  0.99160000  1
  O  O30  1  0.41833000  0.93143000  0.49372000  1
  O  O31  1  0.42461000  0.43771000  0.50628000  1
  O  O32  1  0.70651000  0.97291000  0.57482000  1
  O  O33  1  0.63169000  0.39809000  0.42518000  1
  O  O34  1  0.66314000  0.05544000  0.73118000  1
  O  O35  1  0.43196000  0.32426000  0.26882000  1
  O  O36  1  0.67137000  0.91967000  0.43872000  1
  O  O37  1  0.73265000  0.48095000  0.56128000  1
  O  O38  1  0.47113000  0.19103000  0.96206000  1
  O  O39  1  0.00907000  0.22897000  0.03794000  1
  O  O40  1  0.24165000  0.19905000  0.97010000  1
  O  O41  1  0.77155000  0.22895000  0.02990000  1
  O  O42  1  0.68985000  0.79495000  0.13290000  1
  O  O43  1  0.05695000  0.66205000  0.86710000  1
  O  O44  1  0.66177000  0.16627000  0.85346000  1
  O  O45  1  0.30831000  0.31281000  0.14654000  1
  O  O46  1  0.51854000  0.87334000  0.26306000  1
  O  O47  1  0.75548000  0.61028000  0.73694000  1
  O  O48  1  0.48146000  0.12666000  0.73694000  1
  O  O49  1  0.24452000  0.38972000  0.26306000  1
  O  O50  1  0.33823000  0.83373000  0.14654000  1
  O  O51  1  0.69169000  0.68719000  0.85346000  1
  O  O52  1  0.31015000  0.20505000  0.86710000  1
  O  O53  1  0.94305000  0.33795000  0.13290000  1
  O  O54  1  0.75835000  0.80095000  0.02990000  1
  O  O55  1  0.22845000  0.77105000  0.97010000  1
  O  O56  1  0.52887000  0.80897000  0.03794000  1
  O  O57  1  0.99093000  0.77103000  0.96206000  1
  O  O58  1  0.32863000  0.08033000  0.56128000  1
  O  O59  1  0.26735000  0.51905000  0.43872000  1
  O  O60  1  0.33686000  0.94456000  0.26882000  1
  O  O61  1  0.56804000  0.67574000  0.73118000  1
  O  O62  1  0.29349000  0.02709000  0.42518000  1
  O  O63  1  0.36831000  0.60191000  0.57482000  1
  O  O64  1  0.58167000  0.06857000  0.50628000  1
  O  O65  1  0.57539000  0.56229000  0.49372000  1
  O  O66  1  0.39290000  0.31480000  0.99160000  1
  O  O67  1  0.90130000  0.32320000  0.00840000  1
  O  O68  1  0.76277000  0.17477000  0.67642000  1
  O  O69  1  0.58635000  0.49835000  0.32358000  1
  O  O70  1  0.12436000  0.09036000  0.48472000  1
  O  O71  1  0.13964000  0.60564000  0.51528000  1
  O  O72  1  0.59776000  0.04256000  0.38492000  1
  O  O73  1  0.71284000  0.65764000  0.61508000  1
  O  O74  1  0.49368000  0.95678000  0.19746000  1
  O  O75  1  0.79622000  0.75932000  0.80254000  1
  O  O76  1  0.80334000  0.10524000  0.48988000  1
  O  O77  1  0.81346000  0.61536000  0.51012000  1
  O  O78  1  0.55287000  0.21777000  0.64894000  1
  O  O79  1  0.40393000  0.56883000  0.35106000  1
  O  O80  1  0.20673000  0.96513000  0.13066000  1
  O  O81  1  0.57607000  0.83447000  0.86934000  1
  O  O82  1  0.97150000  0.94300000  0.05608000  1
  O  O83  1  0.41542000  0.88692000  0.94392000  1
  O  O84  1  0.72735000  0.30105000  0.76930000  1
  O  O85  1  0.45805000  0.53175000  0.23070000  1
  O  O86  1  0.34088000  0.17078000  0.50732000  1
  O  O87  1  0.33356000  0.66346000  0.49268000  1
  O  O88  1  0.16530000  0.93620000  0.00260000  1
  O  O89  1  0.66270000  0.93360000  0.99740000  1
  O  O90  1  0.62536000  0.17996000  0.48000000  1
  O  O91  1  0.64536000  0.69996000  0.52000000  1
  O  O92  1  0.75383000  0.29073000  0.65048000  1
  O  O93  1  0.60335000  0.64025000  0.34952000  1
  O  O94  1  0.46773000  0.03103000  0.09616000  1
  O  O95  1  0.87157000  0.93487000  0.90384000  1
  S  S96  1  0.88305000  0.02247000  0.92916000  1
  S  S97  1  0.45389000  0.09331000  0.07084000  1
  S  S98  1  0.29521000  0.75203000  0.31122000  1
  S  S99  1  0.48399000  0.44081000  0.68878000  1
  S  S100  1  0.34304000  0.89975000  0.53416000  1
  S  S101  1  0.30888000  0.36559000  0.46584000  1
  S  S102  1  0.72889000  0.90821000  0.50598000  1
  S  S103  1  0.72291000  0.40223000  0.49402000  1
  S  S104  1  0.57756000  0.09755000  0.78068000  1
  S  S105  1  0.29688000  0.31687000  0.21932000  1
  S  S106  1  0.64637000  0.77293000  0.05382000  1
  S  S107  1  0.09255000  0.71911000  0.94618000  1
  S  S108  1  0.35363000  0.22707000  0.94618000  1
  S  S109  1  0.90745000  0.28089000  0.05382000  1
  S  S110  1  0.42244000  0.90245000  0.21932000  1
  S  S111  1  0.70312000  0.68313000  0.78068000  1
  S  S112  1  0.27111000  0.09179000  0.49402000  1
  S  S113  1  0.27709000  0.59777000  0.50598000  1
  S  S114  1  0.65696000  0.10025000  0.46584000  1
  S  S115  1  0.69112000  0.63441000  0.53416000  1
  S  S116  1  0.70479000  0.24797000  0.68878000  1
  S  S117  1  0.51601000  0.55919000  0.31122000  1
  S  S118  1  0.11695000  0.97753000  0.07084000  1
  S  S119  1  0.54611000  0.90669000  0.92916000  1
  Sm  Sm120  1  0.46905000  0.71905000  0.43810000  1
  Sm  Sm121  1  0.53095000  0.28095000  0.56190000  1
  Sm  Sm122  1  0.62910000  0.10706000  0.94016000  1
  Sm  Sm123  1  0.18894000  0.16690000  0.05984000  1
  Sm  Sm124  1  0.44552000  0.93498000  0.38394000  1
  Sm  Sm125  1  0.56158000  0.55104000  0.61606000  1
  Sm  Sm126  1  0.55448000  0.06502000  0.61606000  1
  Sm  Sm127  1  0.43842000  0.44896000  0.38394000  1
  Sm  Sm128  1  0.37090000  0.89294000  0.05984000  1
  Sm  Sm129  1  0.81106000  0.83310000  0.94016000  1
