# generated using pymatgen
data_CoHC4O3
_symmetry_space_group_name_H-M   'P 1'
_cell_length_a   6.80390000
_cell_length_b   15.11330000
_cell_length_c   15.11330665
_cell_angle_alpha   117.78926461
_cell_angle_beta   98.63075337
_cell_angle_gamma   98.63060000
_symmetry_Int_Tables_number   1
_chemical_formula_structural   CoHC4O3
_chemical_formula_sum   'Co6 H6 C24 O18'
_cell_volume   1315.57461607
_cell_formula_units_Z   6
loop_
 _symmetry_equiv_pos_site_id
 _symmetry_equiv_pos_as_xyz
  1  'x, y, z'
loop_
 _atom_site_type_symbol
 _atom_site_label
 _atom_site_symmetry_multiplicity
 _atom_site_fract_x
 _atom_site_fract_y
 _atom_site_fract_z
 _atom_site_occupancy
  Co  Co0  1  0.39530000  0.58120000  0.27870000  1
  Co  Co1  1  0.81410000  0.41880000  0.69750000  1
  Co  Co2  1  0.81410000  0.69750000  0.41880000  1
  Co  Co3  1  0.11660000  0.30250000  0.72130000  1
  Co  Co4  1  0.11660000  0.72130000  0.30250000  1
  Co  Co5  1  0.39530000  0.27870000  0.58120000  1
  H  H6  1  0.52805000  0.00000000  0.42415000  1
  H  H7  1  0.71990000  0.48285000  0.48285000  1
  H  H8  1  0.23705000  0.51715000  0.00000000  1
  H  H9  1  0.10390000  0.57585000  0.57585000  1
  H  H10  1  0.52805000  0.42415000  0.00000000  1
  H  H11  1  0.23705000  0.00000000  0.51715000  1
  C  C12  1  0.50780000  0.56060000  0.46780000  1
  C  C13  1  0.94720000  0.43940000  0.90720000  1
  C  C14  1  0.58540000  0.50160000  0.50160000  1
  C  C15  1  0.08380000  0.49840000  1.00000000  1
  C  C16  1  0.56190000  0.81420000  0.35780000  1
  C  C17  1  0.74770000  0.18580000  0.54360000  1
  C  C18  1  0.68315000  0.00000000  0.44245000  1
  C  C19  1  0.72890000  0.90520000  0.41470000  1
  C  C20  1  0.82370000  0.09480000  0.50950000  1
  C  C21  1  0.94720000  0.90720000  0.43940000  1
  C  C22  1  0.04000000  0.09280000  0.53220000  1
  C  C23  1  0.74770000  0.54360000  0.18580000  1
  C  C24  1  0.20410000  0.45640000  0.64220000  1
  C  C25  1  0.08380000  0.00000000  0.49840000  1
  C  C26  1  0.24070000  0.55755000  0.55755000  1
  C  C27  1  0.68315000  0.44245000  1.00000000  1
  C  C28  1  0.82370000  0.50950000  0.09480000  1
  C  C29  1  0.31420000  0.49050000  0.58530000  1
  C  C30  1  0.20410000  0.64220000  0.45640000  1
  C  C31  1  0.56190000  0.35780000  0.81420000  1
  C  C32  1  0.31420000  0.58530000  0.49050000  1
  C  C33  1  0.72890000  0.41470000  0.90520000  1
  C  C34  1  0.04000000  0.53220000  0.09280000  1
  C  C35  1  0.50780000  0.46780000  0.56060000  1
  O  O36  1  0.38560000  0.82290000  0.32750000  1
  O  O37  1  0.56270000  0.17710000  0.50460000  1
  O  O38  1  0.57720000  0.58310000  0.40150000  1
  O  O39  1  0.99410000  0.41690000  0.81840000  1
  O  O40  1  0.59630000  0.72530000  0.34110000  1
  O  O41  1  0.87100000  0.27470000  0.61580000  1
  O  O42  1  0.56270000  0.50460000  0.17710000  1
  O  O43  1  0.05810000  0.49540000  0.67250000  1
  O  O44  1  0.05810000  0.67250000  0.49540000  1
  O  O45  1  0.38560000  0.32750000  0.82290000  1
  O  O46  1  0.99410000  0.81840000  0.41690000  1
  O  O47  1  0.17570000  0.18160000  0.59850000  1
  O  O48  1  0.87100000  0.61580000  0.27470000  1
  O  O49  1  0.25520000  0.38420000  0.65890000  1
  O  O50  1  0.25520000  0.65890000  0.38420000  1
  O  O51  1  0.59630000  0.34110000  0.72530000  1
  O  O52  1  0.17570000  0.59850000  0.18160000  1
  O  O53  1  0.57720000  0.40150000  0.58310000  1
