# generated using pymatgen
data_ZnH6(C3O)4
_symmetry_space_group_name_H-M   'P 1'
_cell_length_a   10.32700000
_cell_length_b   11.06700000
_cell_length_c   11.69200000
_cell_angle_alpha   112.33000000
_cell_angle_beta   97.31000000
_cell_angle_gamma   106.79000000
_symmetry_Int_Tables_number   1
_chemical_formula_structural   ZnH6(C3O)4
_chemical_formula_sum   'Zn3 H18 C36 O12'
_cell_volume   1140.20673539
_cell_formula_units_Z   3
loop_
 _symmetry_equiv_pos_site_id
 _symmetry_equiv_pos_as_xyz
  1  'x, y, z'
loop_
 _atom_site_type_symbol
 _atom_site_label
 _atom_site_symmetry_multiplicity
 _atom_site_fract_x
 _atom_site_fract_y
 _atom_site_fract_z
 _atom_site_occupancy
  Zn  Zn0  1  0.00000000  0.00000000  0.00000000  1
  Zn  Zn1  1  0.16664000  0.83289000  0.13998000  1
  Zn  Zn2  1  0.83336000  0.16711000  0.86002000  1
  H  H3  1  0.09520000  0.33090000  0.33600000  1
  H  H4  1  0.22810000  0.45370000  0.56800000  1
  H  H5  1  0.23320000  0.46910000  0.94010000  1
  H  H6  1  0.25070000  0.60110000  0.77620000  1
  H  H7  1  0.32250000  0.33980000  0.18000000  1
  H  H8  1  0.35250000  0.14600000  0.91420000  1
  H  H9  1  0.41600000  0.70940000  0.01690000  1
  H  H10  1  0.42490000  0.23640000  0.46510000  1
  H  H11  1  0.44190000  0.57270000  0.31450000  1
  H  H12  1  0.55810000  0.42730000  0.68550000  1
  H  H13  1  0.57510000  0.76360000  0.53490000  1
  H  H14  1  0.58400000  0.29060000  0.98310000  1
  H  H15  1  0.64750000  0.85400000  0.08580000  1
  H  H16  1  0.67750000  0.66020000  0.82000000  1
  H  H17  1  0.74930000  0.39890000  0.22380000  1
  H  H18  1  0.76680000  0.53090000  0.05990000  1
  H  H19  1  0.77190000  0.54630000  0.43200000  1
  H  H20  1  0.90480000  0.66910000  0.66400000  1
  C  C21  1  0.03170000  0.37530000  0.35630000  1
  C  C22  1  0.05030000  0.46760000  0.48600000  1
  C  C23  1  0.07820000  0.64960000  0.73960000  1
  C  C24  1  0.08950000  0.74470000  0.87530000  1
  C  C25  1  0.11740000  0.20050000  0.88520000  1
  C  C26  1  0.16260000  0.49570000  0.58640000  1
  C  C27  1  0.17660000  0.58420000  0.71080000  1
  C  C28  1  0.26850000  0.29460000  0.92200000  1
  C  C29  1  0.27920000  0.11210000  0.22170000  1
  C  C30  1  0.30400000  0.43460000  0.95000000  1
  C  C31  1  0.36080000  0.26420000  0.31110000  1
  C  C32  1  0.36660000  0.36730000  0.26510000  1
  C  C33  1  0.37620000  0.24070000  0.93430000  1
  C  C34  1  0.42670000  0.30450000  0.43650000  1
  C  C35  1  0.43690000  0.50630000  0.34580000  1
  C  C36  1  0.44630000  0.52730000  0.99360000  1
  C  C37  1  0.48540000  0.67270000  0.02470000  1
  C  C38  1  0.49760000  0.44890000  0.52330000  1
  C  C39  1  0.50240000  0.55110000  0.47670000  1
  C  C40  1  0.51460000  0.32730000  0.97530000  1
  C  C41  1  0.55370000  0.47270000  0.00640000  1
  C  C42  1  0.56310000  0.49370000  0.65420000  1
  C  C43  1  0.57330000  0.69550000  0.56350000  1
  C  C44  1  0.62380000  0.75930000  0.06570000  1
  C  C45  1  0.63340000  0.63270000  0.73490000  1
  C  C46  1  0.63920000  0.73580000  0.68890000  1
  C  C47  1  0.69600000  0.56540000  0.05000000  1
  C  C48  1  0.72080000  0.88790000  0.77830000  1
  C  C49  1  0.73150000  0.70540000  0.07800000  1
  C  C50  1  0.82340000  0.41580000  0.28920000  1
  C  C51  1  0.83740000  0.50430000  0.41360000  1
  C  C52  1  0.88260000  0.79950000  0.11480000  1
  C  C53  1  0.91050000  0.25530000  0.12470000  1
  C  C54  1  0.92180000  0.35040000  0.26040000  1
  C  C55  1  0.94970000  0.53240000  0.51400000  1
  C  C56  1  0.96830000  0.62470000  0.64370000  1
  O  O57  1  0.00650000  0.80845000  0.89271000  1
  O  O58  1  0.02710000  0.25320000  0.86540000  1
  O  O59  1  0.08630000  0.07771000  0.87559000  1
  O  O60  1  0.18100000  0.75060000  0.96378000  1
  O  O61  1  0.20870000  0.07819000  0.11192000  1
  O  O62  1  0.28640000  0.02213000  0.26416000  1
  O  O63  1  0.71360000  0.97787000  0.73584000  1
  O  O64  1  0.79130000  0.92181000  0.88808000  1
  O  O65  1  0.81900000  0.24940000  0.03622000  1
  O  O66  1  0.91370000  0.92229000  0.12441000  1
  O  O67  1  0.97290000  0.74680000  0.13460000  1
  O  O68  1  0.99350000  0.19155000  0.10729000  1
