# generated using pymatgen
data_Zn2H17C26(NO2)4
_symmetry_space_group_name_H-M   'P 1'
_cell_length_a   10.90280000
_cell_length_b   10.94530000
_cell_length_c   15.85330000
_cell_angle_alpha   88.15900000
_cell_angle_beta   80.54200000
_cell_angle_gamma   85.31400000
_symmetry_Int_Tables_number   1
_chemical_formula_structural   Zn2H17C26(NO2)4
_chemical_formula_sum   'Zn4 H34 C52 N8 O16'
_cell_volume   1859.55288580
_cell_formula_units_Z   2
loop_
 _symmetry_equiv_pos_site_id
 _symmetry_equiv_pos_as_xyz
  1  'x, y, z'
loop_
 _atom_site_type_symbol
 _atom_site_label
 _atom_site_symmetry_multiplicity
 _atom_site_fract_x
 _atom_site_fract_y
 _atom_site_fract_z
 _atom_site_occupancy
  Zn  Zn0  1  0.28242000  0.15772000  0.40630000  1
  Zn  Zn1  1  0.32970000  0.16287000  0.21524000  1
  Zn  Zn2  1  0.67030000  0.83713000  0.78476000  1
  Zn  Zn3  1  0.71758000  0.84228000  0.59370000  1
  H  H4  1  0.04840000  0.16930000  0.70310000  1
  H  H5  1  0.05780000  0.81040000  0.81130000  1
  H  H6  1  0.07820000  0.16100000  0.55650000  1
  H  H7  1  0.12290000  0.85930000  0.55670000  1
  H  H8  1  0.13310000  0.19460000  0.83140000  1
  H  H9  1  0.17960000  0.24360000  0.93870000  1
  H  H10  1  0.19450000  0.26890000  0.08060000  1
  H  H11  1  0.26730000  0.81890000  0.81540000  1
  H  H12  1  0.27000000  0.55180000  0.43210000  1
  H  H13  1  0.27390000  0.76120000  0.43300000  1
  H  H14  1  0.33020000  0.86830000  0.56070000  1
  H  H15  1  0.33960000  0.56080000  0.17920000  1
  H  H16  1  0.34740000  0.76890000  0.17990000  1
  H  H17  1  0.38820000  0.05030000  0.80430000  1
  H  H18  1  0.41970000  0.16970000  0.68900000  1
  H  H19  1  0.43600000  0.15950000  0.54430000  1
  H  H20  1  0.48380000  0.03940000  0.06510000  1
  H  H21  1  0.51620000  0.96060000  0.93490000  1
  H  H22  1  0.56400000  0.84050000  0.45570000  1
  H  H23  1  0.58030000  0.83030000  0.31100000  1
  H  H24  1  0.61180000  0.94970000  0.19570000  1
  H  H25  1  0.65260000  0.23110000  0.82010000  1
  H  H26  1  0.66040000  0.43920000  0.82080000  1
  H  H27  1  0.66980000  0.13170000  0.43930000  1
  H  H28  1  0.72610000  0.23880000  0.56700000  1
  H  H29  1  0.73000000  0.44820000  0.56790000  1
  H  H30  1  0.73270000  0.18110000  0.18460000  1
  H  H31  1  0.80550000  0.73110000  0.91940000  1
  H  H32  1  0.82040000  0.75640000  0.06130000  1
  H  H33  1  0.86690000  0.80540000  0.16860000  1
  H  H34  1  0.87710000  0.14070000  0.44330000  1
  H  H35  1  0.92180000  0.83900000  0.44350000  1
  H  H36  1  0.94220000  0.18960000  0.18870000  1
  H  H37  1  0.95160000  0.83070000  0.29690000  1
  C  C38  1  0.06710000  0.83680000  0.68390000  1
  C  C39  1  0.06920000  0.16610000  0.31750000  1
  C  C40  1  0.11260000  0.82280000  0.76090000  1
  C  C41  1  0.12830000  0.16670000  0.67140000  1
  C  C42  1  0.14740000  0.16310000  0.58350000  1
  C  C43  1  0.15140000  0.85210000  0.60890000  1
  C  C44  1  0.23300000  0.16640000  0.71120000  1
  C  C45  1  0.23820000  0.82710000  0.76340000  1
  C  C46  1  0.24410000  0.20200000  0.96250000  1
  C  C47  1  0.25560000  0.21740000  0.04860000  1
  C  C48  1  0.27530000  0.85650000  0.61120000  1
  C  C49  1  0.28540000  0.59520000  0.38060000  1
  C  C50  1  0.28770000  0.72110000  0.38100000  1
  C  C51  1  0.30310000  0.39540000  0.30640000  1
  C  C52  1  0.30530000  0.53330000  0.30550000  1
  C  C53  1  0.30980000  0.78750000  0.30710000  1
  C  C54  1  0.31200000  0.92460000  0.30790000  1
  C  C55  1  0.32070000  0.84360000  0.68840000  1
  C  C56  1  0.32700000  0.60070000  0.23120000  1
  C  C57  1  0.33070000  0.72560000  0.23140000  1
  C  C58  1  0.33250000  0.12380000  0.91470000  1
  C  C59  1  0.34900000  0.16680000  0.66360000  1
  C  C60  1  0.35680000  0.16250000  0.57700000  1
  C  C61  1  0.41350000  0.05850000  0.95770000  1
  C  C62  1  0.42180000  0.08220000  0.03970000  1
  C  C63  1  0.45810000  0.84710000  0.69060000  1
  C  C64  1  0.54190000  0.15290000  0.30940000  1
  C  C65  1  0.57820000  0.91780000  0.96030000  1
  C  C66  1  0.58650000  0.94150000  0.04230000  1
  C  C67  1  0.64320000  0.83750000  0.42300000  1
  C  C68  1  0.65100000  0.83320000  0.33640000  1
  C  C69  1  0.66750000  0.87620000  0.08530000  1
  C  C70  1  0.66930000  0.27440000  0.76860000  1
  C  C71  1  0.67300000  0.39930000  0.76880000  1
  C  C72  1  0.67930000  0.15640000  0.31160000  1
  C  C73  1  0.68800000  0.07540000  0.69210000  1
  C  C74  1  0.69020000  0.21250000  0.69290000  1
  C  C75  1  0.69470000  0.46670000  0.69450000  1
  C  C76  1  0.69690000  0.60460000  0.69360000  1
  C  C77  1  0.71230000  0.27890000  0.61900000  1
  C  C78  1  0.71460000  0.40480000  0.61940000  1
  C  C79  1  0.72470000  0.14350000  0.38880000  1
  C  C80  1  0.74440000  0.78260000  0.95140000  1
  C  C81  1  0.75590000  0.79800000  0.03750000  1
  C  C82  1  0.76180000  0.17290000  0.23660000  1
  C  C83  1  0.76700000  0.83360000  0.28880000  1
  C  C84  1  0.84860000  0.14790000  0.39110000  1
  C  C85  1  0.85260000  0.83690000  0.41650000  1
  C  C86  1  0.87170000  0.83330000  0.32860000  1
  C  C87  1  0.88740000  0.17720000  0.23910000  1
  C  C88  1  0.93080000  0.83390000  0.68250000  1
  C  C89  1  0.93290000  0.16320000  0.31610000  1
  N  N90  1  0.22340000  0.13190000  0.80010000  1
  N  N91  1  0.25950000  0.16240000  0.53515000  1
  N  N92  1  0.32750000  0.09310000  0.83380000  1
  N  N93  1  0.34070000  0.16810000  0.08718000  1
  N  N94  1  0.65930000  0.83190000  0.91282000  1
  N  N95  1  0.67250000  0.90690000  0.16620000  1
  N  N96  1  0.74050000  0.83760000  0.46485000  1
  N  N97  1  0.77660000  0.86810000  0.19990000  1
  O  O98  1  0.10260000  0.16050000  0.38969000  1
  O  O99  1  0.14020000  0.17400000  0.24778000  1
  O  O100  1  0.27810000  0.34200000  0.37625000  1
  O  O101  1  0.29950000  0.97380000  0.37872000  1
  O  O102  1  0.32590000  0.97930000  0.23655000  1
  O  O103  1  0.32700000  0.34490000  0.23506000  1
  O  O104  1  0.46960000  0.15540000  0.37947000  1
  O  O105  1  0.49120000  0.85180000  0.76264000  1
  O  O106  1  0.50880000  0.14820000  0.23736000  1
  O  O107  1  0.53040000  0.84460000  0.62053000  1
  O  O108  1  0.67300000  0.65510000  0.76494000  1
  O  O109  1  0.67410000  0.02070000  0.76345000  1
  O  O110  1  0.70050000  0.02620000  0.62128000  1
  O  O111  1  0.72190000  0.65800000  0.62375000  1
  O  O112  1  0.85980000  0.82600000  0.75222000  1
  O  O113  1  0.89740000  0.83950000  0.61031000  1
