# generated using pymatgen
data_BaH6(C3O)4
_symmetry_space_group_name_H-M   'P 1'
_cell_length_a   7.12690000
_cell_length_b   14.67240000
_cell_length_c   15.00270000
_cell_angle_alpha   90.00000000
_cell_angle_beta   90.00000000
_cell_angle_gamma   90.00000000
_symmetry_Int_Tables_number   1
_chemical_formula_structural   BaH6(C3O)4
_chemical_formula_sum   'Ba4 H24 C48 O16'
_cell_volume   1568.81324896
_cell_formula_units_Z   4
loop_
 _symmetry_equiv_pos_site_id
 _symmetry_equiv_pos_as_xyz
  1  'x, y, z'
loop_
 _atom_site_type_symbol
 _atom_site_label
 _atom_site_symmetry_multiplicity
 _atom_site_fract_x
 _atom_site_fract_y
 _atom_site_fract_z
 _atom_site_occupancy
  Ba  Ba0  1  0.07272000  0.69412000  0.06097000  1
  Ba  Ba1  1  0.42728000  0.30588000  0.56097000  1
  Ba  Ba2  1  0.57272000  0.80588000  0.93903000  1
  Ba  Ba3  1  0.92728000  0.19412000  0.43903000  1
  H  H4  1  0.06920000  0.99810000  0.90280000  1
  H  H5  1  0.12970000  0.73170000  0.73970000  1
  H  H6  1  0.14290000  0.11220000  0.80190000  1
  H  H7  1  0.17030000  0.69790000  0.59310000  1
  H  H8  1  0.20390000  0.81330000  0.48790000  1
  H  H9  1  0.20680000  0.96230000  0.53120000  1
  H  H10  1  0.29320000  0.03770000  0.03120000  1
  H  H11  1  0.29610000  0.18670000  0.98790000  1
  H  H12  1  0.32970000  0.30210000  0.09310000  1
  H  H13  1  0.35710000  0.88780000  0.30190000  1
  H  H14  1  0.37030000  0.26830000  0.23970000  1
  H  H15  1  0.43080000  0.00190000  0.40280000  1
  H  H16  1  0.56920000  0.50190000  0.09720000  1
  H  H17  1  0.62970000  0.76830000  0.26030000  1
  H  H18  1  0.64290000  0.38780000  0.19810000  1
  H  H19  1  0.67030000  0.80210000  0.40690000  1
  H  H20  1  0.70390000  0.68670000  0.51210000  1
  H  H21  1  0.70680000  0.53770000  0.46880000  1
  H  H22  1  0.79320000  0.46230000  0.96880000  1
  H  H23  1  0.79610000  0.31330000  0.01210000  1
  H  H24  1  0.82970000  0.19790000  0.90690000  1
  H  H25  1  0.85710000  0.61220000  0.69810000  1
  H  H26  1  0.87030000  0.23170000  0.76030000  1
  H  H27  1  0.93080000  0.49810000  0.59720000  1
  C  C28  1  0.08400000  0.82280000  0.89102000  1
  C  C29  1  0.09950000  0.98290000  0.84430000  1
  C  C30  1  0.10560000  0.89340000  0.81900000  1
  C  C31  1  0.13900000  0.05210000  0.78240000  1
  C  C32  1  0.14070000  0.87030000  0.72890000  1
  C  C33  1  0.14420000  0.77870000  0.69870000  1
  C  C34  1  0.16680000  0.94110000  0.66480000  1
  C  C35  1  0.16820000  0.75850000  0.61130000  1
  C  C36  1  0.17150000  0.03410000  0.69530000  1
  C  C37  1  0.18990000  0.82800000  0.54790000  1
  C  C38  1  0.19060000  0.91680000  0.57370000  1
  C  C39  1  0.21880000  0.11470000  0.63610000  1
  C  C40  1  0.28120000  0.88530000  0.13610000  1
  C  C41  1  0.30940000  0.08320000  0.07370000  1
  C  C42  1  0.31010000  0.17200000  0.04790000  1
  C  C43  1  0.32850000  0.96590000  0.19530000  1
  C  C44  1  0.33180000  0.24150000  0.11130000  1
  C  C45  1  0.33320000  0.05890000  0.16480000  1
  C  C46  1  0.35580000  0.22130000  0.19870000  1
  C  C47  1  0.35930000  0.12970000  0.22890000  1
  C  C48  1  0.36100000  0.94790000  0.28240000  1
  C  C49  1  0.39440000  0.10660000  0.31900000  1
  C  C50  1  0.40050000  0.01710000  0.34430000  1
  C  C51  1  0.41600000  0.17720000  0.39102000  1
  C  C52  1  0.58400000  0.67720000  0.10898000  1
  C  C53  1  0.59950000  0.51710000  0.15570000  1
  C  C54  1  0.60560000  0.60660000  0.18100000  1
  C  C55  1  0.63900000  0.44790000  0.21760000  1
  C  C56  1  0.64070000  0.62970000  0.27110000  1
  C  C57  1  0.64420000  0.72130000  0.30130000  1
  C  C58  1  0.66680000  0.55890000  0.33520000  1
  C  C59  1  0.66820000  0.74150000  0.38870000  1
  C  C60  1  0.67150000  0.46590000  0.30470000  1
  C  C61  1  0.68990000  0.67200000  0.45210000  1
  C  C62  1  0.69060000  0.58320000  0.42630000  1
  C  C63  1  0.71880000  0.38530000  0.36390000  1
  C  C64  1  0.78120000  0.61470000  0.86390000  1
  C  C65  1  0.80940000  0.41680000  0.92630000  1
  C  C66  1  0.81010000  0.32800000  0.95210000  1
  C  C67  1  0.82850000  0.53410000  0.80470000  1
  C  C68  1  0.83180000  0.25850000  0.88870000  1
  C  C69  1  0.83320000  0.44110000  0.83520000  1
  C  C70  1  0.85580000  0.27870000  0.80130000  1
  C  C71  1  0.85930000  0.37030000  0.77110000  1
  C  C72  1  0.86100000  0.55210000  0.71760000  1
  C  C73  1  0.89440000  0.39340000  0.68100000  1
  C  C74  1  0.90050000  0.48290000  0.65570000  1
  C  C75  1  0.91600000  0.32280000  0.60898000  1
  O  O76  1  0.05370000  0.33161000  0.55639000  1
  O  O77  1  0.15510000  0.11620000  0.55750000  1
  O  O78  1  0.18470000  0.82450000  0.17010000  1
  O  O79  1  0.20730000  0.76184000  0.89771000  1
  O  O80  1  0.29270000  0.23816000  0.39771000  1
  O  O81  1  0.31530000  0.17550000  0.67010000  1
  O  O82  1  0.34490000  0.88380000  0.05750000  1
  O  O83  1  0.44630000  0.66839000  0.05639000  1
  O  O84  1  0.55370000  0.16839000  0.44361000  1
  O  O85  1  0.65510000  0.38380000  0.44250000  1
  O  O86  1  0.68470000  0.67550000  0.82990000  1
  O  O87  1  0.70730000  0.73816000  0.10229000  1
  O  O88  1  0.79270000  0.26184000  0.60229000  1
  O  O89  1  0.81530000  0.32450000  0.32990000  1
  O  O90  1  0.84490000  0.61620000  0.94250000  1
  O  O91  1  0.94630000  0.83161000  0.94361000  1
