# generated using pymatgen
data_TbH8C18N3O8
_symmetry_space_group_name_H-M   'P 1'
_cell_length_a   10.27210259
_cell_length_b   10.27210259
_cell_length_c   21.15004826
_cell_angle_alpha   98.75373910
_cell_angle_beta   98.75373910
_cell_angle_gamma   111.91906749
_symmetry_Int_Tables_number   1
_chemical_formula_structural   TbH8C18N3O8
_chemical_formula_sum   'Tb4 H32 C72 N12 O32'
_cell_volume   1992.36486201
_cell_formula_units_Z   4
loop_
 _symmetry_equiv_pos_site_id
 _symmetry_equiv_pos_as_xyz
  1  'x, y, z'
loop_
 _atom_site_type_symbol
 _atom_site_label
 _atom_site_symmetry_multiplicity
 _atom_site_fract_x
 _atom_site_fract_y
 _atom_site_fract_z
 _atom_site_occupancy
  C  C0  1  0.95483000  0.36203000  0.28626000  1
  C  C1  1  0.34945000  0.97137000  0.28602000  1
  C  C2  1  0.64193000  0.04575000  0.64268000  1
  C  C3  1  0.71181000  0.16541000  0.82862000  1
  C  C4  1  0.78410000  0.58586000  0.31134000  1
  C  C5  1  0.33864000  0.94744000  0.21908000  1
  C  C6  1  0.32919000  0.56019000  0.80018000  1
  C  C7  1  0.18642000  0.79922000  0.89644000  1
  C  C8  1  0.15462000  0.78922000  0.82344000  1
  C  C9  1  0.71633000  0.16973000  0.76366000  1
  C  C10  1  0.58653000  0.77753000  0.22986000  1
  C  C11  1  0.64252000  0.81932000  0.29764000  1
  C  C12  1  0.51049000  0.36569000  0.70558000  1
  C  C13  1  0.96356000  0.37072000  0.15550000  1
  C  C14  1  0.10128000  0.76688000  0.68896000  1
  C  C15  1  0.79788000  0.29882000  0.88072000  1
  C  C16  1  0.48372000  0.07552000  0.33384000  1
  C  C17  1  0.58043000  0.43683000  0.77066000  1
  C  C18  1  0.08383000  0.44023000  0.27066000  1
  C  C19  1  0.00832000  0.10012000  0.83384000  1
  C  C20  1  0.33190000  0.33284000  0.38072000  1
  C  C21  1  0.67208000  0.83768000  0.18896000  1
  C  C22  1  0.53478000  0.44194000  0.65550000  1
  C  C23  1  0.08989000  0.44509000  0.20558000  1
  C  C24  1  0.22832000  0.90512000  0.79764000  1
  C  C25  1  0.20233000  0.89333000  0.72986000  1
  C  C26  1  0.34393000  0.29733000  0.26366000  1
  C  C27  1  0.78422000  0.91882000  0.32344000  1
  C  C28  1  0.98999000  0.72099000  0.30018000  1
  C  C29  1  0.84722000  0.96002000  0.39644000  1
  C  C30  1  0.02164000  0.13044000  0.71908000  1
  C  C31  1  0.47548000  0.77724000  0.81134000  1
  C  C32  1  0.41321000  0.36681000  0.32862000  1
  C  C33  1  0.34693000  0.25075000  0.14268000  1
  C  C34  1  0.06465000  0.18657000  0.78602000  1
  C  C35  1  0.67423000  0.58143000  0.78626000  1
  C  C36  1  0.41857000  0.32577000  0.21374000  1
  C  C37  1  0.81343000  0.93535000  0.21398000  1
  C  C38  1  0.74925000  0.65307000  0.85732000  1
  C  C39  1  0.63319000  0.58679000  0.67138000  1
  C  C40  1  0.22276000  0.52452000  0.18866000  1
  C  C41  1  0.86956000  0.97836000  0.28092000  1
  C  C42  1  0.03998000  0.15278000  0.60356000  1
  C  C43  1  0.27901000  0.01001000  0.69982000  1
  C  C44  1  0.08118000  0.21578000  0.67656000  1
  C  C45  1  0.70267000  0.65607000  0.73634000  1
  C  C46  1  0.10667000  0.79767000  0.27014000  1
  C  C47  1  0.09488000  0.77168000  0.20236000  1
  C  C48  1  0.55491000  0.91011000  0.79442000  1
  C  C49  1  0.55806000  0.46522000  0.34450000  1
  C  C50  1  0.16232000  0.32792000  0.81104000  1
  C  C51  1  0.66716000  0.66810000  0.61928000  1
  C  C52  1  0.89988000  0.99168000  0.16616000  1
  C  C53  1  0.55977000  0.91617000  0.72934000  1
  C  C54  1  0.56317000  0.41957000  0.22934000  1
  C  C55  1  0.92448000  0.51628000  0.66616000  1
  C  C56  1  0.70118000  0.20212000  0.11928000  1
  C  C57  1  0.23312000  0.89872000  0.31104000  1
  C  C58  1  0.62928000  0.03644000  0.84450000  1
  C  C59  1  0.63431000  0.48951000  0.29442000  1
  C  C60  1  0.18068000  0.35748000  0.70236000  1
  C  C61  1  0.22247000  0.41347000  0.77014000  1
  C  C62  1  0.83027000  0.28367000  0.23634000  1
  C  C63  1  0.21078000  0.84538000  0.17656000  1
  C  C64  1  0.20078000  0.81358000  0.10356000  1
  C  C65  1  0.43981000  0.67081000  0.19982000  1
  C  C66  1  0.05256000  0.66136000  0.78092000  1
  C  C67  1  0.41414000  0.21590000  0.68866000  1
  C  C68  1  0.83459000  0.28819000  0.17138000  1
  C  C69  1  0.95425000  0.35807000  0.35732000  1
  C  C70  1  0.02863000  0.65055000  0.71398000  1
  C  C71  1  0.63797000  0.04517000  0.71374000  1
  H  H72  1  0.08070000  0.09570000  0.16620000  1
  H  H73  1  0.58370000  0.77990000  0.32640000  1
  H  H74  1  0.38340000  0.59520000  0.90040000  1
  H  H75  1  0.56390000  0.38590000  0.80460000  1
  H  H76  1  0.08110000  0.75930000  0.64280000  1
  H  H77  1  0.41770000  0.99990000  0.20200000  1
  H  H78  1  0.24600000  0.23060000  0.25320000  1
  H  H79  1  0.96560000  0.37640000  0.11120000  1
  H  H80  1  0.48480000  0.39560000  0.61120000  1
  H  H81  1  0.77260000  0.25720000  0.75320000  1
  H  H82  1  0.95210000  0.03430000  0.70200000  1
  H  H83  1  0.63350000  0.81170000  0.14280000  1
  H  H84  1  0.16870000  0.49070000  0.30460000  1
  H  H85  1  0.05520000  0.76700000  0.40040000  1
  H  H86  1  0.29650000  0.99270000  0.82640000  1
  H  H87  1  0.82050000  0.33550000  0.66620000  1
  H  H88  1  0.66450000  0.17950000  0.33380000  1
  H  H89  1  0.00730000  0.70350000  0.17360000  1
  H  H90  1  0.23300000  0.94480000  0.59960000  1
  H  H91  1  0.50930000  0.83130000  0.69540000  1
  H  H92  1  0.18830000  0.36650000  0.85720000  1
  H  H93  1  0.96570000  0.04790000  0.29800000  1
  H  H94  1  0.74280000  0.22740000  0.24680000  1
  H  H95  1  0.60440000  0.51520000  0.38880000  1
  H  H96  1  0.62360000  0.03440000  0.88880000  1
  H  H97  1  0.76940000  0.75400000  0.74680000  1
  H  H98  1  0.00010000  0.58230000  0.79800000  1
  H  H99  1  0.24070000  0.91890000  0.35720000  1
  H  H100  1  0.61410000  0.43610000  0.19540000  1
  H  H101  1  0.40480000  0.61660000  0.09960000  1
  H  H102  1  0.22010000  0.41630000  0.67360000  1
  H  H103  1  0.90430000  0.91930000  0.83380000  1
  N  N104  1  0.86333000  0.63533000  0.36966000  1
  N  N105  1  0.38679000  0.60919000  0.86318000  1
  N  N106  1  0.85629000  0.63349000  0.26498000  1
  N  N107  1  0.38149000  0.65869000  0.76498000  1
  N  N108  1  0.00399000  0.72639000  0.36318000  1
  N  N109  1  0.48433000  0.75633000  0.86966000  1
  N  N110  1  0.24367000  0.51567000  0.13034000  1
  N  N111  1  0.27361000  0.99601000  0.63682000  1
  N  N112  1  0.34131000  0.61851000  0.23502000  1
  N  N113  1  0.36651000  0.14371000  0.73502000  1
  N  N114  1  0.39081000  0.61321000  0.13682000  1
  N  N115  1  0.36467000  0.13667000  0.63034000  1
  O  O116  1  0.22271000  0.21851000  0.37022000  1
  O  O117  1  0.07469000  0.40129000  0.39658000  1
  O  O118  1  0.91695000  0.96975000  0.80570000  1
  O  O119  1  0.29377000  0.90177000  0.08154000  1
  O  O120  1  0.76036000  0.31390000  0.93468000  1
  O  O121  1  0.49521000  0.09861000  0.39242000  1
  O  O122  1  0.69135000  0.16315000  0.62590000  1
  O  O123  1  0.78167000  0.87907000  0.43034000  1
  O  O124  1  0.30127000  0.89867000  0.93034000  1
  O  O125  1  0.21275000  0.18455000  0.12590000  1
  O  O126  1  0.04381000  0.14721000  0.89242000  1
  O  O127  1  0.37078000  0.42432000  0.43468000  1
  O  O128  1  0.92977000  0.03777000  0.58154000  1
  O  O129  1  0.58595000  0.13875000  0.30570000  1
  O  O130  1  0.74529000  0.57189000  0.89658000  1
  O  O131  1  0.90171000  0.39751000  0.87022000  1
  O  O132  1  0.60249000  0.09829000  0.12978000  1
  O  O133  1  0.42811000  0.25471000  0.10342000  1
  O  O134  1  0.86125000  0.41405000  0.69430000  1
  O  O135  1  0.96223000  0.07023000  0.41846000  1
  O  O136  1  0.57568000  0.62922000  0.56532000  1
  O  O137  1  0.85279000  0.95619000  0.10758000  1
  O  O138  1  0.81545000  0.78725000  0.87410000  1
  O  O139  1  0.10133000  0.69873000  0.06966000  1
  O  O140  1  0.12093000  0.21833000  0.56966000  1
  O  O141  1  0.83685000  0.30865000  0.37410000  1
  O  O142  1  0.90139000  0.50479000  0.60758000  1
  O  O143  1  0.68610000  0.23964000  0.06532000  1
  O  O144  1  0.09823000  0.70623000  0.91846000  1
  O  O145  1  0.03025000  0.08305000  0.19430000  1
  O  O146  1  0.59871000  0.92531000  0.60342000  1
  O  O147  1  0.78149000  0.77729000  0.62978000  1
  Tb  Tb148  1  0.71774000  0.85066000  0.52916000  1
  Tb  Tb149  1  0.42850000  0.06142000  0.02916000  1
  Tb  Tb150  1  0.93858000  0.57150000  0.97084000  1
  Tb  Tb151  1  0.14934000  0.28226000  0.47084000  1
