# generated using pymatgen
data_ZnH22C24(NO)4
_symmetry_space_group_name_H-M   'P 1'
_cell_length_a   18.61138155
_cell_length_b   18.61138155
_cell_length_c   20.08182390
_cell_angle_alpha   109.51190775
_cell_angle_beta   109.51190775
_cell_angle_gamma   106.21347255
_symmetry_Int_Tables_number   1
_chemical_formula_structural   ZnH22C24(NO)4
_chemical_formula_sum   'Zn8 H176 C192 N32 O32'
_cell_volume   5550.11618695
_cell_formula_units_Z   8
loop_
 _symmetry_equiv_pos_site_id
 _symmetry_equiv_pos_as_xyz
  1  'x, y, z'
loop_
 _atom_site_type_symbol
 _atom_site_label
 _atom_site_symmetry_multiplicity
 _atom_site_fract_x
 _atom_site_fract_y
 _atom_site_fract_z
 _atom_site_occupancy
  C  C0  1  0.77450000  0.16250000  0.94380000  1
  C  C1  1  0.33840000  0.95180000  0.30160000  1
  C  C2  1  0.49980000  0.64040000  0.16480000  1
  C  C3  1  0.93640000  0.14340000  0.12360000  1
  C  C4  1  0.38100000  0.24520000  0.70420000  1
  C  C5  1  0.07700000  0.41840000  0.57920000  1
  C  C6  1  0.58000000  0.45040000  0.12580000  1
  C  C7  1  0.13870000  0.76410000  0.99940000  1
  C  C8  1  0.88200000  0.27280000  0.25720000  1
  C  C9  1  0.92870000  0.05630000  0.10720000  1
  C  C10  1  0.62350000  0.84090000  0.59020000  1
  C  C11  1  0.54110000  0.27550000  0.94740000  1
  C  C12  1  0.97750000  0.78870000  0.90080000  1
  C  C13  1  0.43950000  0.74770000  0.32940000  1
  C  C14  1  0.22770000  0.44770000  0.82400000  1
  C  C15  1  0.68890000  0.38350000  0.22760000  1
  C  C16  1  0.43660000  0.91640000  0.50940000  1
  C  C17  1  0.46800000  0.26520000  0.88960000  1
  C  C18  1  0.90390000  0.77450000  0.83940000  1
  C  C19  1  0.13130000  0.99430000  0.29000000  1
  C  C20  1  0.98840000  0.20420000  0.35720000  1
  C  C21  1  0.48620000  0.73400000  0.38920000  1
  C  C22  1  0.22310000  0.04350000  0.43660000  1
  C  C23  1  0.15490000  0.43510000  0.76280000  1
  C  C24  1  0.62910000  0.22030000  0.02240000  1
  C  C25  1  0.73760000  0.37280000  0.28860000  1
  C  C26  1  0.03650000  0.18850000  0.41560000  1
  C  C27  1  0.05880000  0.74380000  0.99360000  1
  C  C28  1  0.31450000  0.39230000  0.89940000  1
  C  C29  1  0.30260000  0.73840000  0.23880000  1
  C  C30  1  0.17740000  0.97920000  0.35820000  1
  C  C31  1  0.54860000  0.21020000  0.96240000  1
  C  C32  1  0.26680000  0.02740000  0.49780000  1
  C  C33  1  0.86240000  0.97960000  0.04580000  1
  C  C34  1  0.55660000  0.38660000  0.14700000  1
  C  C35  1  0.76650000  0.93030000  0.90120000  1
  C  C36  1  0.31460000  0.19640000  0.71800000  1
  C  C37  1  0.00790000  0.37090000  0.59120000  1
  C  C38  1  0.85590000  0.20650000  0.27780000  1
  C  C39  1  0.97920000  0.72820000  0.92680000  1
  C  C40  1  0.23480000  0.38060000  0.83620000  1
  C  C41  1  0.35220000  0.72260000  0.30260000  1
  C  C42  1  0.60840000  0.37580000  0.21280000  1
  C  C43  1  0.69240000  0.91620000  0.84200000  1
  C  C44  1  0.78190000  0.96350000  0.98060000  1
  C  C45  1  0.57570000  0.74690000  0.56020000  1
  C  C46  1  0.90700000  0.19520000  0.34140000  1
  C  C47  1  0.38870000  0.91870000  0.55620000  1
  C  C48  1  0.88750000  0.91750000  0.05620000  1
  C  C49  1  0.39620000  0.18440000  0.84140000  1
  C  C50  1  0.06330000  0.73450000  0.06020000  1
  C  C51  1  0.26710000  0.94870000  0.48060000  1
  C  C52  1  0.17580000  0.89960000  0.34200000  1
  C  C53  1  0.08700000  0.35440000  0.71280000  1
  C  C54  1  0.83000000  0.70040000  0.80260000  1
  C  C55  1  0.70560000  0.35140000  0.33620000  1
  C  C56  1  0.44860000  0.69760000  0.42680000  1
  C  C57  1  0.32130000  0.17190000  0.77780000  1
  C  C58  1  0.47030000  0.33330000  0.09120000  1
  C  C59  1  0.77160000  0.15340000  0.21800000  1
  C  C60  1  0.22090000  0.88470000  0.40120000  1
  C  C61  1  0.01040000  0.34040000  0.64700000  1
  C  C62  1  0.31620000  0.93340000  0.54580000  1
  C  C63  1  0.00220000  0.16380000  0.46240000  1
  C  C64  1  0.72040000  0.98100000  0.99780000  1
  C  C65  1  0.62900000  0.93080000  0.85820000  1
  C  C66  1  0.75040000  0.68620000  0.73880000  1
  C  C67  1  0.75710000  0.33490000  0.39940000  1
  C  C68  1  0.49980000  0.68480000  0.49360000  1
  C  C69  1  0.47710000  0.12910000  0.91560000  1
  C  C70  1  0.16580000  0.30100000  0.78860000  1
  C  C71  1  0.05210000  0.14330000  0.52240000  1
  C  C72  1  0.57770000  0.35790000  0.26280000  1
  C  C73  1  0.64310000  0.96350000  0.93660000  1
  C  C74  1  0.90520000  0.65300000  0.88920000  1
  C  C75  1  0.40300000  0.11880000  0.85720000  1
  C  C76  1  0.54570000  0.90870000  0.79000000  1
  C  C77  1  0.31490000  0.68550000  0.33940000  1
  C  C78  1  0.87440000  0.17160000  0.38960000  1
  C  C79  1  0.84300000  0.82280000  0.00940000  1
  C  C80  1  0.09410000  0.28870000  0.72760000  1
  C  C81  1  0.62630000  0.34630000  0.32400000  1
  C  C82  1  0.83170000  0.63990000  0.82940000  1
  C  C83  1  0.36210000  0.67330000  0.40080000  1
  C  C84  1  0.92190000  0.15630000  0.44740000  1
  C  C85  1  0.99930000  0.71670000  0.09020000  1
  C  C86  1  0.30090000  0.92850000  0.60720000  1
  C  C87  1  0.23440000  0.12520000  0.75720000  1
  C  C88  1  0.48530000  0.61070000  0.49940000  1
  C  C89  1  0.92540000  0.29580000  0.62580000  1
  C  C90  1  0.41080000  0.25220000  0.07920000  1
  C  C91  1  0.70900000  0.07320000  0.20420000  1
  C  C92  1  0.23020000  0.93720000  0.62360000  1
  C  C93  1  0.77440000  0.41500000  0.66480000  1
  C  C94  1  0.59980000  0.71320000  0.80160000  1
  C  C95  1  0.03130000  0.91930000  0.44380000  1
  C  C96  1  0.41250000  0.52450000  0.44380000  1
  C  C97  1  0.20180000  0.08840000  0.80160000  1
  C  C98  1  0.89040000  0.24980000  0.66480000  1
  C  C99  1  0.39340000  0.68640000  0.62360000  1
  C  C100  1  0.49520000  0.13100000  0.20420000  1
  C  C101  1  0.66840000  0.82700000  0.07920000  1
  C  C102  1  0.70040000  0.33000000  0.62580000  1
  C  C103  1  0.01410000  0.88870000  0.49940000  1
  C  C104  1  0.52280000  0.63200000  0.75720000  1
  C  C105  1  0.30630000  0.67870000  0.60720000  1
  C  C106  1  0.09090000  0.37350000  0.09020000  1
  C  C107  1  0.52550000  0.29110000  0.44740000  1
  C  C108  1  0.03870000  0.72750000  0.40080000  1
  C  C109  1  0.99770000  0.18950000  0.82940000  1
  C  C110  1  0.69770000  0.97770000  0.32400000  1
  C  C111  1  0.63350000  0.43890000  0.72760000  1
  C  C112  1  0.16640000  0.18660000  0.00940000  1
  C  C113  1  0.51520000  0.21800000  0.38960000  1
  C  C114  1  0.02450000  0.65390000  0.33940000  1
  C  C115  1  0.24430000  0.88130000  0.79000000  1
  C  C116  1  0.45420000  0.73840000  0.85720000  1
  C  C117  1  0.98400000  0.23620000  0.88920000  1
  C  C118  1  0.29350000  0.97310000  0.93660000  1
  C  C119  1  0.68510000  0.90490000  0.26280000  1
  C  C120  1  0.47030000  0.37910000  0.52240000  1
  C  C121  1  0.62280000  0.48760000  0.78860000  1
  C  C122  1  0.43850000  0.78650000  0.91560000  1
  C  C123  1  0.99380000  0.80880000  0.49360000  1
  C  C124  1  0.64230000  0.06450000  0.39940000  1
  C  C125  1  0.98840000  0.05260000  0.73880000  1
  C  C126  1  0.22920000  0.92740000  0.85820000  1
  C  C127  1  0.27740000  0.01680000  0.99780000  1
  C  C128  1  0.46020000  0.29860000  0.46240000  1
  C  C129  1  0.22960000  0.61240000  0.54580000  1
  C  C130  1  0.63660000  0.30660000  0.64700000  1
  C  C131  1  0.18030000  0.51650000  0.40120000  1
  C  C132  1  0.44640000  0.06460000  0.21800000  1
  C  C133  1  0.62090000  0.75790000  0.09120000  1
  C  C134  1  0.45650000  0.60590000  0.77780000  1
  C  C135  1  0.97820000  0.72920000  0.42680000  1
  C  C136  1  0.63060000  0.98480000  0.33620000  1
  C  C137  1  0.97260000  0.10220000  0.80260000  1
  C  C138  1  0.62580000  0.35840000  0.71280000  1
  C  C139  1  0.16620000  0.44240000  0.34200000  1
  C  C140  1  0.21350000  0.53190000  0.48060000  1
  C  C141  1  0.99690000  0.32570000  0.06020000  1
  C  C142  1  0.44520000  0.65700000  0.84140000  1
  C  C143  1  0.16870000  0.13870000  0.05620000  1
  C  C144  1  0.16750000  0.63750000  0.55620000  1
  C  C145  1  0.43440000  0.14620000  0.34140000  1
  C  C146  1  0.98450000  0.81330000  0.56020000  1
  C  C147  1  0.19870000  0.01710000  0.98060000  1
  C  C148  1  0.14960000  0.92580000  0.84200000  1
  C  C149  1  0.60440000  0.83700000  0.21280000  1
  C  C150  1  0.95040000  0.58000000  0.30260000  1
  C  C151  1  0.60140000  0.45560000  0.83620000  1
  C  C152  1  0.94760000  0.19860000  0.92680000  1
  C  C153  1  0.42190000  0.07130000  0.27780000  1
  C  C154  1  0.58330000  0.22030000  0.59120000  1
  C  C155  1  0.40340000  0.52160000  0.71800000  1
  C  C156  1  0.13470000  0.97090000  0.90120000  1
  C  C157  1  0.59040000  0.76040000  0.14700000  1
  C  C158  1  0.18340000  0.06620000  0.04580000  1
  C  C159  1  0.23100000  0.47040000  0.49780000  1
  C  C160  1  0.41380000  0.75220000  0.96240000  1
  C  C161  1  0.18080000  0.37900000  0.35820000  1
  C  C162  1  0.93620000  0.50040000  0.23880000  1
  C  C163  1  0.58490000  0.50710000  0.89940000  1
  C  C164  1  0.93480000  0.24980000  0.99360000  1
  C  C165  1  0.37910000  0.22710000  0.41560000  1
  C  C166  1  0.55100000  0.91580000  0.28860000  1
  C  C167  1  0.39330000  0.80210000  0.02240000  1
  C  C168  1  0.60790000  0.32770000  0.76280000  1
  C  C169  1  0.21350000  0.39310000  0.43660000  1
  C  C170  1  0.90300000  0.65520000  0.38920000  1
  C  C171  1  0.36880000  0.15300000  0.35720000  1
  C  C172  1  0.15870000  0.29570000  0.29000000  1
  C  C173  1  0.93550000  0.06490000  0.83940000  1
  C  C174  1  0.42160000  0.62440000  0.88960000  1
  C  C175  1  0.07280000  0.59300000  0.50940000  1
  C  C176  1  0.53870000  0.84410000  0.22760000  1
  C  C177  1  0.59630000  0.37630000  0.82400000  1
  C  C178  1  0.88990000  0.58170000  0.32940000  1
  C  C179  1  0.92330000  0.11210000  0.90080000  1
  C  C180  1  0.40630000  0.67190000  0.94740000  1
  C  C181  1  0.96670000  0.74930000  0.59020000  1
  C  C182  1  0.17850000  0.05090000  0.10720000  1
  C  C183  1  0.37520000  0.98440000  0.25720000  1
  C  C184  1  0.86070000  0.23530000  0.99940000  1
  C  C185  1  0.54580000  0.67540000  0.12580000  1
  C  C186  1  0.50220000  0.16080000  0.57920000  1
  C  C187  1  0.32320000  0.45900000  0.70420000  1
  C  C188  1  0.18720000  0.98020000  0.12360000  1
  C  C189  1  0.66500000  0.52440000  0.16480000  1
  C  C190  1  0.96320000  0.34980000  0.30160000  1
  C  C191  1  0.16930000  0.78130000  0.94380000  1
  H  H192  1  0.99320000  0.35840000  0.35500000  1
  H  H193  1  0.13750000  0.73210000  0.89200000  1
  H  H194  1  0.53950000  0.64110000  0.21040000  1
  H  H195  1  0.41150000  0.30290000  0.74620000  1
  H  H196  1  0.47250000  0.67430000  0.18140000  1
  H  H197  1  0.09950000  0.47810000  0.61360000  1
  H  H198  1  0.13210000  0.93770000  0.10580000  1
  H  H199  1  0.95900000  0.17800000  0.18020000  1
  H  H200  1  0.35180000  0.90620000  0.30420000  1
  H  H201  1  0.77760000  0.11060000  0.93920000  1
  H  H202  1  0.35480000  0.24420000  0.65360000  1
  H  H203  1  0.73600000  0.17040000  0.96440000  1
  H  H204  1  0.02630000  0.83910000  0.92500000  1
  H  H205  1  0.58750000  0.32870000  0.97780000  1
  H  H206  1  0.05480000  0.40740000  0.52440000  1
  H  H207  1  0.68010000  0.85390000  0.59720000  1
  H  H208  1  0.41960000  0.22020000  0.70380000  1
  H  H209  1  0.27800000  0.93140000  0.27480000  1
  H  H210  1  0.46610000  0.77390000  0.30640000  1
  H  H211  1  0.12120000  0.40060000  0.59180000  1
  H  H212  1  0.88140000  0.13980000  0.09560000  1
  H  H213  1  0.27220000  0.50180000  0.85720000  1
  H  H214  1  0.45770000  0.58290000  0.12700000  1
  H  H215  1  0.71070000  0.39630000  0.19540000  1
  H  H216  1  0.01170000  0.22130000  0.32760000  1
  H  H217  1  0.49640000  0.94900000  0.54580000  1
  H  H218  1  0.59470000  0.85650000  0.55200000  1
  H  H219  1  0.90410000  0.81530000  0.82240000  1
  H  H220  1  0.46550000  0.31110000  0.88180000  1
  H  H221  1  0.54340000  0.74920000  0.40480000  1
  H  H222  1  0.41950000  0.94010000  0.47460000  1
  H  H223  1  0.15140000  0.48080000  0.75500000  1
  H  H224  1  0.79220000  0.38000000  0.29820000  1
  H  H225  1  0.22500000  0.09700000  0.44880000  1
  H  H226  1  0.09050000  0.19410000  0.42400000  1
  H  H227  1  0.62630000  0.87210000  0.64060000  1
  H  H228  1  0.80670000  0.91770000  0.88840000  1
  H  H229  1  0.29590000  0.07010000  0.55060000  1
  H  H230  1  0.42490000  0.85890000  0.47820000  1
  H  H231  1  0.68400000  0.89640000  0.78960000  1
  H  H232  1  0.99280000  0.93440000  0.13660000  1
  H  H233  1  0.16260000  0.74920000  0.14760000  1
  H  H234  1  0.90790000  0.35730000  0.50540000  1
  H  H235  1  0.21250000  0.17430000  0.62740000  1
  H  H236  1  0.70310000  0.16490000  0.12740000  1
  H  H237  1  0.39810000  0.34750000  0.00540000  1
  H  H238  1  0.64840000  0.73500000  0.64760000  1
  H  H239  1  0.45220000  0.89380000  0.63660000  1
  H  H240  1  0.14320000  0.85560000  0.28960000  1
  H  H241  1  0.86930000  0.80330000  0.97820000  1
  H  H242  1  0.73050000  0.00470000  0.05060000  1
  H  H243  1  0.22070000  0.83170000  0.38840000  1
  H  H244  1  0.01850000  0.76430000  0.14060000  1
  H  H245  1  0.47990000  0.08350000  0.92400000  1
  H  H246  1  0.60180000  0.97380000  0.94880000  1
  H  H247  1  0.16820000  0.25600000  0.79820000  1
  H  H248  1  0.52420000  0.35360000  0.25500000  1
  H  H249  1  0.78450000  0.80510000  0.97460000  1
  H  H250  1  0.90560000  0.61140000  0.90480000  1
  H  H251  1  0.82070000  0.16630000  0.38180000  1
  H  H252  1  0.25710000  0.66830000  0.32240000  1
  H  H253  1  0.94550000  0.70730000  0.05200000  1
  H  H254  1  0.84680000  0.79940000  0.04580000  1
  H  H255  1  0.35630000  0.06590000  0.82760000  1
  H  H256  1  0.04910000  0.23470000  0.69540000  1
  H  H257  1  0.79410000  0.41930000  0.62700000  1
  H  H258  1  0.60540000  0.33500000  0.35720000  1
  H  H259  1  0.20580000  0.96420000  0.59560000  1
  H  H260  1  0.44120000  0.22060000  0.09180000  1
  H  H261  1  0.78250000  0.59030000  0.80640000  1
  H  H262  1  0.59340000  0.74680000  0.77480000  1
  H  H263  1  0.73360000  0.03420000  0.20380000  1
  H  H264  1  0.99330000  0.66710000  0.09720000  1
  H  H265  1  0.36700000  0.21960000  0.02440000  1
  H  H266  1  0.89910000  0.14030000  0.47780000  1
  H  H267  1  0.33590000  0.64870000  0.42500000  1
  H  H268  1  0.04400000  0.97840000  0.46440000  1
  H  H269  1  0.65940000  0.04880000  0.15360000  1
  H  H270  1  0.07860000  0.91160000  0.43920000  1
  H  H271  1  0.64800000  0.70240000  0.80420000  1
  H  H272  1  0.25220000  0.97120000  0.68020000  1
  H  H273  1  0.41810000  0.72370000  0.60580000  1
  H  H274  1  0.38550000  0.26410000  0.11360000  1
  H  H275  1  0.75710000  0.45890000  0.68140000  1
  H  H276  1  0.69330000  0.08470000  0.24620000  1
  H  H277  1  0.81930000  0.42090000  0.71040000  1
  H  H278  1  0.40990000  0.50450000  0.39200000  1
  H  H279  1  0.24660000  0.11180000  0.85500000  1
  H  H280  1  0.60840000  0.74320000  0.85500000  1
  H  H281  1  0.98210000  0.88750000  0.39200000  1
  H  H282  1  0.89110000  0.28950000  0.71040000  1
  H  H283  1  0.55290000  0.16150000  0.24620000  1
  H  H284  1  0.92430000  0.22250000  0.68140000  1
  H  H285  1  0.72810000  0.84950000  0.11360000  1
  H  H286  1  0.18770000  0.88210000  0.60580000  1
  H  H287  1  0.42800000  0.70900000  0.68020000  1
  H  H288  1  0.15620000  0.10180000  0.80420000  1
  H  H289  1  0.36060000  0.52760000  0.43920000  1
  H  H290  1  0.49420000  0.10480000  0.15360000  1
  H  H291  1  0.42040000  0.48600000  0.46440000  1
  H  H292  1  0.08910000  0.77630000  0.42500000  1
  H  H293  1  0.57870000  0.33750000  0.47780000  1
  H  H294  1  0.65740000  0.80480000  0.02440000  1
  H  H295  1  0.10390000  0.43010000  0.09720000  1
  H  H296  1  0.47020000  0.16960000  0.20380000  1
  H  H297  1  0.18140000  0.02800000  0.77480000  1
  H  H298  1  0.02390000  0.21610000  0.80640000  1
  H  H299  1  0.65060000  0.87120000  0.09180000  1
  H  H300  1  0.38980000  0.63140000  0.59560000  1
  H  H301  1  0.75180000  0.02220000  0.35720000  1
  H  H302  1  0.83290000  0.20770000  0.62700000  1
  H  H303  1  0.64630000  0.46070000  0.69540000  1
  H  H304  1  0.47130000  0.76170000  0.82760000  1
  H  H305  1  0.19900000  0.24640000  0.04580000  1
  H  H306  1  0.10650000  0.34470000  0.05200000  1
  H  H307  1  0.06530000  0.65410000  0.32240000  1
  H  H308  1  0.56110000  0.21550000  0.38180000  1
  H  H309  1  0.99920000  0.29340000  0.90480000  1
  H  H310  1  0.19010000  0.16950000  0.97460000  1
  H  H311  1  0.73080000  0.90140000  0.25500000  1
  H  H312  1  0.63000000  0.54220000  0.79820000  1
  H  H313  1  0.34700000  0.97500000  0.94880000  1
  H  H314  1  0.44410000  0.84050000  0.92400000  1
  H  H315  1  0.12210000  0.37630000  0.14060000  1
  H  H316  1  0.16770000  0.55670000  0.38840000  1
  H  H317  1  0.32010000  0.04590000  0.05060000  1
  H  H318  1  0.10890000  0.17490000  0.97820000  1
  H  H319  1  0.14640000  0.43400000  0.28960000  1
  H  H320  1  0.18440000  0.74280000  0.63660000  1
  H  H321  1  0.99920000  0.91260000  0.64760000  1
  H  H322  1  0.60730000  0.65790000  0.00540000  1
  H  H323  1  0.42430000  0.96250000  0.12740000  1
  H  H324  1  0.41490000  0.45310000  0.62740000  1
  H  H325  1  0.59750000  0.14810000  0.50540000  1
  H  H326  1  0.98500000  0.39840000  0.14760000  1
  H  H327  1  0.14380000  0.20220000  0.13660000  1
  H  H328  1  0.10560000  0.89320000  0.78960000  1
  H  H329  1  0.05330000  0.61930000  0.47820000  1
  H  H330  1  0.25470000  0.48050000  0.55060000  1
  H  H331  1  0.08170000  0.97070000  0.88840000  1
  H  H332  1  0.01430000  0.76850000  0.64060000  1
  H  H333  1  0.33350000  0.22990000  0.42400000  1
  H  H334  1  0.22380000  0.35180000  0.44880000  1
  H  H335  1  0.50600000  0.91820000  0.29820000  1
  H  H336  1  0.60360000  0.27420000  0.75500000  1
  H  H337  1  0.05510000  0.53450000  0.47460000  1
  H  H338  1  0.86140000  0.65560000  0.40480000  1
  H  H339  1  0.41630000  0.57070000  0.88180000  1
  H  H340  1  0.91830000  0.00710000  0.82240000  1
  H  H341  1  0.95730000  0.69550000  0.55200000  1
  H  H342  1  0.04940000  0.59680000  0.54580000  1
  H  H343  1  0.31590000  0.10630000  0.32760000  1
  H  H344  1  0.48470000  0.79910000  0.19540000  1
  H  H345  1  0.66930000  0.54410000  0.12700000  1
  H  H346  1  0.58500000  0.35540000  0.85720000  1
  H  H347  1  0.21420000  0.95580000  0.09560000  1
  H  H348  1  0.47060000  0.19120000  0.59180000  1
  H  H349  1  0.84030000  0.53250000  0.30640000  1
  H  H350  1  0.99680000  0.34340000  0.27480000  1
  H  H351  1  0.28420000  0.48360000  0.70380000  1
  H  H352  1  0.91710000  0.74330000  0.59720000  1
  H  H353  1  0.46960000  0.11700000  0.52440000  1
  H  H354  1  0.39030000  0.64910000  0.97780000  1
  H  H355  1  0.89870000  0.08590000  0.92500000  1
  H  H356  1  0.22840000  0.79400000  0.96440000  1
  H  H357  1  0.29880000  0.40940000  0.65360000  1
  H  H358  1  0.16160000  0.82860000  0.93920000  1
  H  H359  1  0.95240000  0.39800000  0.30420000  1
  H  H360  1  0.22120000  0.00220000  0.18020000  1
  H  H361  1  0.97370000  0.16810000  0.10580000  1
  H  H362  1  0.51410000  0.13550000  0.61360000  1
  H  H363  1  0.70890000  0.50710000  0.18140000  1
  H  H364  1  0.33470000  0.44330000  0.74620000  1
  H  H365  1  0.67090000  0.56930000  0.21040000  1
  H  H366  1  0.75450000  0.15990000  0.89200000  1
  H  H367  1  0.36180000  0.99660000  0.35500000  1
  N  N368  1  0.19070000  0.76730000  0.06660000  1
  N  N369  1  0.51390000  0.44010000  0.06420000  1
  N  N370  1  0.81910000  0.26070000  0.19220000  1
  N  N371  1  0.99020000  0.04460000  0.15340000  1
  N  N372  1  0.96360000  0.95860000  0.11920000  1
  N  N373  1  0.14340000  0.75000000  0.10260000  1
  N  N374  1  0.44830000  0.36830000  0.04420000  1
  N  N375  1  0.75180000  0.18700000  0.16860000  1
  N  N376  1  0.23160000  0.16680000  0.66860000  1
  N  N377  1  0.92590000  0.34590000  0.54420000  1
  N  N378  1  0.60260000  0.70920000  0.60260000  1
  N  N379  1  0.41060000  0.90560000  0.61920000  1
  N  N380  1  0.35880000  0.91320000  0.65340000  1
  N  N381  1  0.18150000  0.12310000  0.69220000  1
  N  N382  1  0.87410000  0.30030000  0.56420000  1
  N  N383  1  0.54930000  0.62590000  0.56660000  1
  N  N384  1  0.01730000  0.94070000  0.56660000  1
  N  N385  1  0.69010000  0.26390000  0.56420000  1
  N  N386  1  0.51070000  0.56910000  0.69220000  1
  N  N387  1  0.29460000  0.74020000  0.65340000  1
  N  N388  1  0.20860000  0.71360000  0.61920000  1
  N  N389  1  0.00000000  0.89340000  0.60260000  1
  N  N390  1  0.61830000  0.19830000  0.54420000  1
  N  N391  1  0.43700000  0.50180000  0.66860000  1
  N  N392  1  0.41680000  0.98160000  0.16860000  1
  N  N393  1  0.59590000  0.67590000  0.04420000  1
  N  N394  1  0.95920000  0.35260000  0.10260000  1
  N  N395  1  0.15560000  0.16060000  0.11920000  1
  N  N396  1  0.16320000  0.10880000  0.15340000  1
  N  N397  1  0.37310000  0.93150000  0.19220000  1
  N  N398  1  0.55030000  0.62410000  0.06420000  1
  N  N399  1  0.87590000  0.29930000  0.06660000  1
  O  O400  1  0.69417000  0.29057000  0.05454000  1
  O  O401  1  0.15353000  0.07173000  0.30566000  1
  O  O402  1  0.37960000  0.46200000  0.92940000  1
  O  O403  1  0.33958000  0.75958000  0.19996000  1
  O  O404  1  0.07770000  0.93310000  0.22500000  1
  O  O405  1  0.83340000  0.35640000  0.41940000  1
  O  O406  1  0.74530000  0.74770000  0.72780000  1
  O  O407  1  0.62900000  0.15920000  0.03700000  1
  O  O408  1  0.12780000  0.15800000  0.53700000  1
  O  O409  1  0.23010000  0.73250000  0.22780000  1
  O  O410  1  0.31300000  0.33600000  0.91940000  1
  O  O411  1  0.54190000  0.89730000  0.72500000  1
  O  O412  1  0.69038000  0.61038000  0.69996000  1
  O  O413  1  0.71740000  0.29980000  0.42940000  1
  O  O414  1  0.48393000  0.90213000  0.80566000  1
  O  O415  1  0.01397000  0.11037000  0.55454000  1
  O  O416  1  0.54057000  0.44417000  0.55454000  1
  O  O417  1  0.32173000  0.90353000  0.80566000  1
  O  O418  1  0.71200000  0.12960000  0.42940000  1
  O  O419  1  0.00958000  0.08958000  0.69996000  1
  O  O420  1  0.18310000  0.82770000  0.72500000  1
  O  O421  1  0.60640000  0.58340000  0.91940000  1
  O  O422  1  0.99770000  0.49530000  0.22780000  1
  O  O423  1  0.40920000  0.37900000  0.53700000  1
  O  O424  1  0.40800000  0.87780000  0.03700000  1
  O  O425  1  0.98250000  0.98010000  0.72780000  1
  O  O426  1  0.58600000  0.06300000  0.41940000  1
  O  O427  1  0.14730000  0.29190000  0.22500000  1
  O  O428  1  0.86038000  0.44038000  0.19996000  1
  O  O429  1  0.54980000  0.46740000  0.92940000  1
  O  O430  1  0.15213000  0.23393000  0.30566000  1
  O  O431  1  0.36037000  0.76397000  0.05454000  1
  Zn  Zn432  1  0.49950000  0.49950000  0.99900000  1
  Zn  Zn433  1  0.11654000  0.11654000  0.23308000  1
  Zn  Zn434  1  0.31576000  0.80598000  0.12586000  1
  Zn  Zn435  1  0.56988000  0.56010000  0.62586000  1
  Zn  Zn436  1  0.36654000  0.86654000  0.73308000  1
  Zn  Zn437  1  0.74950000  0.24950000  0.49900000  1
  Zn  Zn438  1  0.05598000  0.06576000  0.62586000  1
  Zn  Zn439  1  0.81010000  0.31988000  0.12586000  1
