# generated using pymatgen
data_Co2BH20W12C24(N4O17)2
_symmetry_space_group_name_H-M   'P 1'
_cell_length_a   12.98000000
_cell_length_b   19.96300000
_cell_length_c   26.78000000
_cell_angle_alpha   90.00000000
_cell_angle_beta   90.00000000
_cell_angle_gamma   90.00000000
_symmetry_Int_Tables_number   1
_chemical_formula_structural   Co2BH20W12C24(N4O17)2
_chemical_formula_sum   'Co8 B4 H80 W48 C96 N32 O136'
_cell_volume   6939.22663720
_cell_formula_units_Z   4
loop_
 _symmetry_equiv_pos_site_id
 _symmetry_equiv_pos_as_xyz
  1  'x, y, z'
loop_
 _atom_site_type_symbol
 _atom_site_label
 _atom_site_symmetry_multiplicity
 _atom_site_fract_x
 _atom_site_fract_y
 _atom_site_fract_z
 _atom_site_occupancy
  Co  Co0  1  0.60090000  0.39105000  0.75915000  1
  Co  Co1  1  0.60090000  0.10895000  0.75915000  1
  Co  Co2  1  0.10090000  0.89105000  0.74085000  1
  Co  Co3  1  0.10090000  0.60895000  0.74085000  1
  Co  Co4  1  0.89910000  0.39105000  0.25915000  1
  Co  Co5  1  0.89910000  0.10895000  0.25915000  1
  Co  Co6  1  0.39910000  0.89105000  0.24085000  1
  Co  Co7  1  0.39910000  0.60895000  0.24085000  1
  B  B8  1  0.09900000  0.25000000  0.76280000  1
  B  B9  1  0.59900000  0.75000000  0.73720000  1
  B  B10  1  0.40100000  0.25000000  0.26280000  1
  B  B11  1  0.90100000  0.75000000  0.23720000  1
  H  H12  1  0.64960000  0.99310000  0.99650000  1
  H  H13  1  0.64960000  0.50690000  0.99650000  1
  H  H14  1  0.16670000  0.81070000  0.97630000  1
  H  H15  1  0.16670000  0.68930000  0.97630000  1
  H  H16  1  0.73530000  0.32240000  0.94990000  1
  H  H17  1  0.73530000  0.17760000  0.94990000  1
  H  H18  1  0.52270000  0.49080000  0.93700000  1
  H  H19  1  0.52270000  0.00920000  0.93700000  1
  H  H20  1  0.25450000  0.98880000  0.92790000  1
  H  H21  1  0.25450000  0.51120000  0.92790000  1
  H  H22  1  0.02930000  0.82400000  0.92390000  1
  H  H23  1  0.02930000  0.67600000  0.92390000  1
  H  H24  1  0.72540000  0.37520000  0.87080000  1
  H  H25  1  0.72540000  0.12480000  0.87080000  1
  H  H26  1  0.47510000  0.48560000  0.84750000  1
  H  H27  1  0.47510000  0.01440000  0.84750000  1
  H  H28  1  0.23850000  0.92580000  0.84470000  1
  H  H29  1  0.23850000  0.57420000  0.84470000  1
  H  H30  1  0.98740000  0.82090000  0.83400000  1
  H  H31  1  0.98740000  0.67910000  0.83400000  1
  H  H32  1  0.48740000  0.32090000  0.66600000  1
  H  H33  1  0.48740000  0.17910000  0.66600000  1
  H  H34  1  0.73850000  0.42580000  0.65530000  1
  H  H35  1  0.73850000  0.07420000  0.65530000  1
  H  H36  1  0.97510000  0.98560000  0.65250000  1
  H  H37  1  0.97510000  0.51440000  0.65250000  1
  H  H38  1  0.22540000  0.87520000  0.62920000  1
  H  H39  1  0.22540000  0.62480000  0.62920000  1
  H  H40  1  0.52930000  0.32400000  0.57610000  1
  H  H41  1  0.52930000  0.17600000  0.57610000  1
  H  H42  1  0.75450000  0.48880000  0.57210000  1
  H  H43  1  0.75450000  0.01120000  0.57210000  1
  H  H44  1  0.02270000  0.99080000  0.56300000  1
  H  H45  1  0.02270000  0.50920000  0.56300000  1
  H  H46  1  0.23530000  0.82240000  0.55010000  1
  H  H47  1  0.23530000  0.67760000  0.55010000  1
  H  H48  1  0.66666667  0.31070000  0.52370000  1
  H  H49  1  0.66666667  0.18930000  0.52370000  1
  H  H50  1  0.14960000  0.49310000  0.50350000  1
  H  H51  1  0.14960000  0.00690000  0.50350000  1
  H  H52  1  0.85040000  0.99310000  0.49650000  1
  H  H53  1  0.85040000  0.50690000  0.49650000  1
  H  H54  1  0.33333333  0.81070000  0.47630000  1
  H  H55  1  0.33333333  0.68930000  0.47630000  1
  H  H56  1  0.76470000  0.32240000  0.44990000  1
  H  H57  1  0.76470000  0.17760000  0.44990000  1
  H  H58  1  0.97730000  0.49080000  0.43700000  1
  H  H59  1  0.97730000  0.00920000  0.43700000  1
  H  H60  1  0.24550000  0.98880000  0.42790000  1
  H  H61  1  0.24550000  0.51120000  0.42790000  1
  H  H62  1  0.47070000  0.82400000  0.42390000  1
  H  H63  1  0.47070000  0.67600000  0.42390000  1
  H  H64  1  0.77460000  0.37520000  0.37080000  1
  H  H65  1  0.77460000  0.12480000  0.37080000  1
  H  H66  1  0.02490000  0.48560000  0.34750000  1
  H  H67  1  0.02490000  0.01440000  0.34750000  1
  H  H68  1  0.26150000  0.92580000  0.34470000  1
  H  H69  1  0.26150000  0.57420000  0.34470000  1
  H  H70  1  0.51260000  0.82090000  0.33400000  1
  H  H71  1  0.51260000  0.67910000  0.33400000  1
  H  H72  1  0.01260000  0.32090000  0.16600000  1
  H  H73  1  0.01260000  0.17910000  0.16600000  1
  H  H74  1  0.76150000  0.42580000  0.15530000  1
  H  H75  1  0.76150000  0.07420000  0.15530000  1
  H  H76  1  0.52490000  0.98560000  0.15250000  1
  H  H77  1  0.52490000  0.51440000  0.15250000  1
  H  H78  1  0.27460000  0.87520000  0.12920000  1
  H  H79  1  0.27460000  0.62480000  0.12920000  1
  H  H80  1  0.97070000  0.32400000  0.07610000  1
  H  H81  1  0.97070000  0.17600000  0.07610000  1
  H  H82  1  0.74550000  0.48880000  0.07210000  1
  H  H83  1  0.74550000  0.01120000  0.07210000  1
  H  H84  1  0.47730000  0.99080000  0.06300000  1
  H  H85  1  0.47730000  0.50920000  0.06300000  1
  H  H86  1  0.26470000  0.82240000  0.05010000  1
  H  H87  1  0.26470000  0.67760000  0.05010000  1
  H  H88  1  0.83330000  0.31070000  0.02370000  1
  H  H89  1  0.83330000  0.18930000  0.02370000  1
  H  H90  1  0.35040000  0.49310000  0.00350000  1
  H  H91  1  0.35040000  0.00690000  0.00350000  1
  W  W92  1  0.93986000  0.25000000  0.86756000  1
  W  W93  1  0.18231000  0.34129000  0.86667000  1
  W  W94  1  0.18231000  0.15871000  0.86667000  1
  W  W95  1  0.74349000  0.75000000  0.84633000  1
  W  W96  1  0.52234000  0.83274000  0.84564000  1
  W  W97  1  0.52234000  0.66726000  0.84564000  1
  W  W98  1  0.86542000  0.33239000  0.76661000  1
  W  W99  1  0.86542000  0.16761000  0.76661000  1
  W  W100  1  0.10737000  0.42306000  0.76523000  1
  W  W101  1  0.10737000  0.07694000  0.76523000  1
  W  W102  1  0.32678000  0.34068000  0.76503000  1
  W  W103  1  0.32678000  0.15932000  0.76503000  1
  W  W104  1  0.82678000  0.84068000  0.73497000  1
  W  W105  1  0.82678000  0.65932000  0.73497000  1
  W  W106  1  0.60737000  0.92306000  0.73477000  1
  W  W107  1  0.60737000  0.57694000  0.73477000  1
  W  W108  1  0.36542000  0.83239000  0.73339000  1
  W  W109  1  0.36542000  0.66761000  0.73339000  1
  W  W110  1  0.02234000  0.33274000  0.65436000  1
  W  W111  1  0.02234000  0.16726000  0.65436000  1
  W  W112  1  0.24349000  0.25000000  0.65367000  1
  W  W113  1  0.68231000  0.84129000  0.63333000  1
  W  W114  1  0.68231000  0.65871000  0.63333000  1
  W  W115  1  0.43986000  0.75000000  0.63244000  1
  W  W116  1  0.56014000  0.25000000  0.36756000  1
  W  W117  1  0.31769000  0.34129000  0.36667000  1
  W  W118  1  0.31769000  0.15871000  0.36667000  1
  W  W119  1  0.75651000  0.75000000  0.34633000  1
  W  W120  1  0.97766000  0.83274000  0.34564000  1
  W  W121  1  0.97766000  0.66726000  0.34564000  1
  W  W122  1  0.63458000  0.33239000  0.26661000  1
  W  W123  1  0.63458000  0.16761000  0.26661000  1
  W  W124  1  0.39263000  0.42306000  0.26523000  1
  W  W125  1  0.39263000  0.07694000  0.26523000  1
  W  W126  1  0.17322000  0.34068000  0.26503000  1
  W  W127  1  0.17322000  0.15932000  0.26503000  1
  W  W128  1  0.67322000  0.84068000  0.23497000  1
  W  W129  1  0.67322000  0.65932000  0.23497000  1
  W  W130  1  0.89263000  0.92306000  0.23477000  1
  W  W131  1  0.89263000  0.57694000  0.23477000  1
  W  W132  1  0.13458000  0.83239000  0.23339000  1
  W  W133  1  0.13458000  0.66761000  0.23339000  1
  W  W134  1  0.47766000  0.33274000  0.15436000  1
  W  W135  1  0.47766000  0.16726000  0.15436000  1
  W  W136  1  0.25651000  0.25000000  0.15367000  1
  W  W137  1  0.81769000  0.84129000  0.13333000  1
  W  W138  1  0.81769000  0.65871000  0.13333000  1
  W  W139  1  0.06014000  0.75000000  0.13244000  1
  C  C140  1  0.31470000  0.96710000  0.99830000  1
  C  C141  1  0.31470000  0.53290000  0.99830000  1
  C  C142  1  0.20600000  0.84900000  0.98120000  1
  C  C143  1  0.20600000  0.65100000  0.98120000  1
  C  C144  1  0.73760000  0.35650000  0.97360000  1
  C  C145  1  0.73760000  0.14350000  0.97360000  1
  C  C146  1  0.68570000  0.41730000  0.96590000  1
  C  C147  1  0.68570000  0.08270000  0.96590000  1
  C  C148  1  0.25780000  0.95580000  0.95240000  1
  C  C149  1  0.25780000  0.54420000  0.95240000  1
  C  C150  1  0.20910000  0.89540000  0.94580000  1
  C  C151  1  0.20910000  0.60460000  0.94580000  1
  C  C152  1  0.55600000  0.46590000  0.91270000  1
  C  C153  1  0.55600000  0.03410000  0.91270000  1
  C  C154  1  0.06510000  0.84470000  0.89810000  1
  C  C155  1  0.06510000  0.65530000  0.89810000  1
  C  C156  1  0.66660000  0.40110000  0.87530000  1
  C  C157  1  0.66660000  0.09890000  0.87530000  1
  C  C158  1  0.52900000  0.46200000  0.86220000  1
  C  C159  1  0.52900000  0.03800000  0.86220000  1
  C  C160  1  0.18000000  0.90150000  0.85330000  1
  C  C161  1  0.18000000  0.59850000  0.85330000  1
  C  C162  1  0.04350000  0.84390000  0.84720000  1
  C  C163  1  0.04350000  0.65610000  0.84720000  1
  C  C164  1  0.54350000  0.34390000  0.65280000  1
  C  C165  1  0.54350000  0.15610000  0.65280000  1
  C  C166  1  0.68000000  0.40150000  0.64670000  1
  C  C167  1  0.68000000  0.09850000  0.64670000  1
  C  C168  1  0.02900000  0.96200000  0.63780000  1
  C  C169  1  0.02900000  0.53800000  0.63780000  1
  C  C170  1  0.16660000  0.90110000  0.62470000  1
  C  C171  1  0.16660000  0.59890000  0.62470000  1
  C  C172  1  0.56510000  0.34470000  0.60190000  1
  C  C173  1  0.56510000  0.15530000  0.60190000  1
  C  C174  1  0.05600000  0.96590000  0.58730000  1
  C  C175  1  0.05600000  0.53410000  0.58730000  1
  C  C176  1  0.70910000  0.39540000  0.55420000  1
  C  C177  1  0.70910000  0.10460000  0.55420000  1
  C  C178  1  0.75780000  0.45580000  0.54760000  1
  C  C179  1  0.75780000  0.04420000  0.54760000  1
  C  C180  1  0.18570000  0.91730000  0.53410000  1
  C  C181  1  0.18570000  0.58270000  0.53410000  1
  C  C182  1  0.23760000  0.85650000  0.52640000  1
  C  C183  1  0.23760000  0.64350000  0.52640000  1
  C  C184  1  0.70600000  0.34900000  0.51880000  1
  C  C185  1  0.70600000  0.15100000  0.51880000  1
  C  C186  1  0.81470000  0.46710000  0.50170000  1
  C  C187  1  0.81470000  0.03290000  0.50170000  1
  C  C188  1  0.18530000  0.96710000  0.49830000  1
  C  C189  1  0.18530000  0.53290000  0.49830000  1
  C  C190  1  0.29400000  0.84900000  0.48120000  1
  C  C191  1  0.29400000  0.65100000  0.48120000  1
  C  C192  1  0.76240000  0.35650000  0.47360000  1
  C  C193  1  0.76240000  0.14350000  0.47360000  1
  C  C194  1  0.81430000  0.41730000  0.46590000  1
  C  C195  1  0.81430000  0.08270000  0.46590000  1
  C  C196  1  0.24220000  0.95580000  0.45240000  1
  C  C197  1  0.24220000  0.54420000  0.45240000  1
  C  C198  1  0.29090000  0.89540000  0.44580000  1
  C  C199  1  0.29090000  0.60460000  0.44580000  1
  C  C200  1  0.94400000  0.46590000  0.41270000  1
  C  C201  1  0.94400000  0.03410000  0.41270000  1
  C  C202  1  0.43490000  0.84470000  0.39810000  1
  C  C203  1  0.43490000  0.65530000  0.39810000  1
  C  C204  1  0.83340000  0.40110000  0.37530000  1
  C  C205  1  0.83340000  0.09890000  0.37530000  1
  C  C206  1  0.97100000  0.46200000  0.36220000  1
  C  C207  1  0.97100000  0.03800000  0.36220000  1
  C  C208  1  0.32000000  0.90150000  0.35330000  1
  C  C209  1  0.32000000  0.59850000  0.35330000  1
  C  C210  1  0.45650000  0.84390000  0.34720000  1
  C  C211  1  0.45650000  0.65610000  0.34720000  1
  C  C212  1  0.95650000  0.34390000  0.15280000  1
  C  C213  1  0.95650000  0.15610000  0.15280000  1
  C  C214  1  0.82000000  0.40150000  0.14670000  1
  C  C215  1  0.82000000  0.09850000  0.14670000  1
  C  C216  1  0.47100000  0.96200000  0.13780000  1
  C  C217  1  0.47100000  0.53800000  0.13780000  1
  C  C218  1  0.33333333  0.90110000  0.12470000  1
  C  C219  1  0.33333333  0.59890000  0.12470000  1
  C  C220  1  0.93490000  0.34470000  0.10190000  1
  C  C221  1  0.93490000  0.15530000  0.10190000  1
  C  C222  1  0.44400000  0.96590000  0.08730000  1
  C  C223  1  0.44400000  0.53410000  0.08730000  1
  C  C224  1  0.79090000  0.39540000  0.05420000  1
  C  C225  1  0.79090000  0.10460000  0.05420000  1
  C  C226  1  0.74220000  0.45580000  0.04760000  1
  C  C227  1  0.74220000  0.04420000  0.04760000  1
  C  C228  1  0.31430000  0.91730000  0.03410000  1
  C  C229  1  0.31430000  0.58270000  0.03410000  1
  C  C230  1  0.26240000  0.85650000  0.02640000  1
  C  C231  1  0.26240000  0.64350000  0.02640000  1
  C  C232  1  0.79400000  0.34900000  0.01880000  1
  C  C233  1  0.79400000  0.15100000  0.01880000  1
  C  C234  1  0.68530000  0.46710000  0.00170000  1
  C  C235  1  0.68530000  0.03290000  0.00170000  1
  N  N236  1  0.63600000  0.42880000  0.91950000  1
  N  N237  1  0.63600000  0.07120000  0.91950000  1
  N  N238  1  0.15450000  0.88440000  0.90090000  1
  N  N239  1  0.15450000  0.61560000  0.90090000  1
  N  N240  1  0.59370000  0.41810000  0.83690000  1
  N  N241  1  0.59370000  0.08190000  0.83690000  1
  N  N242  1  0.10790000  0.87810000  0.81900000  1
  N  N243  1  0.10790000  0.62190000  0.81900000  1
  N  N244  1  0.60790000  0.37810000  0.68100000  1
  N  N245  1  0.60790000  0.12190000  0.68100000  1
  N  N246  1  0.09370000  0.91810000  0.66310000  1
  N  N247  1  0.09370000  0.58190000  0.66310000  1
  N  N248  1  0.65450000  0.38440000  0.59910000  1
  N  N249  1  0.65450000  0.11560000  0.59910000  1
  N  N250  1  0.13600000  0.92880000  0.58050000  1
  N  N251  1  0.13600000  0.57120000  0.58050000  1
  N  N252  1  0.86400000  0.42880000  0.41950000  1
  N  N253  1  0.86400000  0.07120000  0.41950000  1
  N  N254  1  0.34550000  0.88440000  0.40090000  1
  N  N255  1  0.34550000  0.61560000  0.40090000  1
  N  N256  1  0.90630000  0.41810000  0.33690000  1
  N  N257  1  0.90630000  0.08190000  0.33690000  1
  N  N258  1  0.39210000  0.87810000  0.31900000  1
  N  N259  1  0.39210000  0.62190000  0.31900000  1
  N  N260  1  0.89210000  0.37810000  0.18100000  1
  N  N261  1  0.89210000  0.12190000  0.18100000  1
  N  N262  1  0.40630000  0.91810000  0.16310000  1
  N  N263  1  0.40630000  0.58190000  0.16310000  1
  N  N264  1  0.84550000  0.38440000  0.09910000  1
  N  N265  1  0.84550000  0.11560000  0.09910000  1
  N  N266  1  0.36400000  0.92880000  0.08050000  1
  N  N267  1  0.36400000  0.57120000  0.08050000  1
  O  O268  1  0.04410000  0.31760000  0.87590000  1
  O  O269  1  0.04410000  0.18240000  0.87590000  1
  O  O270  1  0.21800000  0.25000000  0.87580000  1
  O  O271  1  0.47940000  0.75000000  0.87420000  1
  O  O272  1  0.65620000  0.81770000  0.87380000  1
  O  O273  1  0.65620000  0.68230000  0.87380000  1
  O  O274  1  0.85570000  0.31570000  0.83650000  1
  O  O275  1  0.85570000  0.18430000  0.83650000  1
  O  O276  1  0.13500000  0.42210000  0.83630000  1
  O  O277  1  0.13500000  0.07790000  0.83630000  1
  O  O278  1  0.31200000  0.35480000  0.83550000  1
  O  O279  1  0.31200000  0.14520000  0.83550000  1
  O  O280  1  0.58850000  0.89380000  0.80120000  1
  O  O281  1  0.58850000  0.60620000  0.80120000  1
  O  O282  1  0.79700000  0.81520000  0.80080000  1
  O  O283  1  0.79700000  0.68480000  0.80080000  1
  O  O284  1  0.41170000  0.83050000  0.79940000  1
  O  O285  1  0.41170000  0.66950000  0.79940000  1
  O  O286  1  0.59720000  0.75000000  0.79370000  1
  O  O287  1  0.98670000  0.25000000  0.78250000  1
  O  O288  1  0.15500000  0.31320000  0.78140000  1
  O  O289  1  0.15500000  0.18680000  0.78140000  1
  O  O290  1  0.97030000  0.39430000  0.77820000  1
  O  O291  1  0.97030000  0.10570000  0.77820000  1
  O  O292  1  0.35720000  0.25000000  0.77770000  1
  O  O293  1  0.76260000  0.38410000  0.76110000  1
  O  O294  1  0.76260000  0.11590000  0.76110000  1
  O  O295  1  0.08920000  0.99220000  0.75800000  1
  O  O296  1  0.08920000  0.50780000  0.75800000  1
  O  O297  1  0.44700000  0.37190000  0.75750000  1
  O  O298  1  0.44700000  0.12810000  0.75750000  1
  O  O299  1  0.79290000  0.25000000  0.75520000  1
  O  O300  1  0.25200000  0.42200000  0.75430000  1
  O  O301  1  0.25200000  0.07800000  0.75430000  1
  O  O302  1  0.75200000  0.92200000  0.74570000  1
  O  O303  1  0.75200000  0.57800000  0.74570000  1
  O  O304  1  0.29290000  0.75000000  0.74480000  1
  O  O305  1  0.94700000  0.87190000  0.74250000  1
  O  O306  1  0.94700000  0.62810000  0.74250000  1
  O  O307  1  0.58920000  0.49220000  0.74200000  1
  O  O308  1  0.58920000  0.00780000  0.74200000  1
  O  O309  1  0.26260000  0.88410000  0.73890000  1
  O  O310  1  0.26260000  0.61590000  0.73890000  1
  O  O311  1  0.85720000  0.75000000  0.72230000  1
  O  O312  1  0.47030000  0.89430000  0.72180000  1
  O  O313  1  0.47030000  0.60570000  0.72180000  1
  O  O314  1  0.65500000  0.81320000  0.71860000  1
  O  O315  1  0.65500000  0.68680000  0.71860000  1
  O  O316  1  0.48670000  0.75000000  0.71750000  1
  O  O317  1  0.09720000  0.25000000  0.70630000  1
  O  O318  1  0.91170000  0.33050000  0.70060000  1
  O  O319  1  0.91170000  0.16950000  0.70060000  1
  O  O320  1  0.29700000  0.31520000  0.69920000  1
  O  O321  1  0.29700000  0.18480000  0.69920000  1
  O  O322  1  0.08850000  0.39380000  0.69880000  1
  O  O323  1  0.08850000  0.10620000  0.69880000  1
  O  O324  1  0.81200000  0.85480000  0.66450000  1
  O  O325  1  0.81200000  0.64520000  0.66450000  1
  O  O326  1  0.63500000  0.92210000  0.66370000  1
  O  O327  1  0.63500000  0.57790000  0.66370000  1
  O  O328  1  0.35570000  0.81570000  0.66350000  1
  O  O329  1  0.35570000  0.68430000  0.66350000  1
  O  O330  1  0.15620000  0.31770000  0.62620000  1
  O  O331  1  0.15620000  0.18230000  0.62620000  1
  O  O332  1  0.97940000  0.25000000  0.62580000  1
  O  O333  1  0.71800000  0.75000000  0.62420000  1
  O  O334  1  0.54410000  0.81760000  0.62410000  1
  O  O335  1  0.54410000  0.68240000  0.62410000  1
  O  O336  1  0.45590000  0.31760000  0.37590000  1
  O  O337  1  0.45590000  0.18240000  0.37590000  1
  O  O338  1  0.28200000  0.25000000  0.37580000  1
  O  O339  1  0.02060000  0.75000000  0.37420000  1
  O  O340  1  0.84380000  0.81770000  0.37380000  1
  O  O341  1  0.84380000  0.68230000  0.37380000  1
  O  O342  1  0.64430000  0.31570000  0.33650000  1
  O  O343  1  0.64430000  0.18430000  0.33650000  1
  O  O344  1  0.36500000  0.42210000  0.33630000  1
  O  O345  1  0.36500000  0.07790000  0.33630000  1
  O  O346  1  0.18800000  0.35480000  0.33550000  1
  O  O347  1  0.18800000  0.14520000  0.33550000  1
  O  O348  1  0.91150000  0.89380000  0.30120000  1
  O  O349  1  0.91150000  0.60620000  0.30120000  1
  O  O350  1  0.70300000  0.81520000  0.30080000  1
  O  O351  1  0.70300000  0.68480000  0.30080000  1
  O  O352  1  0.08830000  0.83050000  0.29940000  1
  O  O353  1  0.08830000  0.66950000  0.29940000  1
  O  O354  1  0.90280000  0.75000000  0.29370000  1
  O  O355  1  0.51330000  0.25000000  0.28250000  1
  O  O356  1  0.34500000  0.31320000  0.28140000  1
  O  O357  1  0.34500000  0.18680000  0.28140000  1
  O  O358  1  0.52970000  0.39430000  0.27820000  1
  O  O359  1  0.52970000  0.10570000  0.27820000  1
  O  O360  1  0.14280000  0.25000000  0.27770000  1
  O  O361  1  0.73740000  0.38410000  0.26110000  1
  O  O362  1  0.73740000  0.11590000  0.26110000  1
  O  O363  1  0.41080000  0.99220000  0.25800000  1
  O  O364  1  0.41080000  0.50780000  0.25800000  1
  O  O365  1  0.05300000  0.37190000  0.25750000  1
  O  O366  1  0.05300000  0.12810000  0.25750000  1
  O  O367  1  0.70710000  0.25000000  0.25520000  1
  O  O368  1  0.24800000  0.42200000  0.25430000  1
  O  O369  1  0.24800000  0.07800000  0.25430000  1
  O  O370  1  0.74800000  0.92200000  0.24570000  1
  O  O371  1  0.74800000  0.57800000  0.24570000  1
  O  O372  1  0.20710000  0.75000000  0.24480000  1
  O  O373  1  0.55300000  0.87190000  0.24250000  1
  O  O374  1  0.55300000  0.62810000  0.24250000  1
  O  O375  1  0.91080000  0.49220000  0.24200000  1
  O  O376  1  0.91080000  0.00780000  0.24200000  1
  O  O377  1  0.23740000  0.88410000  0.23890000  1
  O  O378  1  0.23740000  0.61590000  0.23890000  1
  O  O379  1  0.64280000  0.75000000  0.22230000  1
  O  O380  1  0.02970000  0.89430000  0.22180000  1
  O  O381  1  0.02970000  0.60570000  0.22180000  1
  O  O382  1  0.84500000  0.81320000  0.21860000  1
  O  O383  1  0.84500000  0.68680000  0.21860000  1
  O  O384  1  0.01330000  0.75000000  0.21750000  1
  O  O385  1  0.40280000  0.25000000  0.20630000  1
  O  O386  1  0.58830000  0.33050000  0.20060000  1
  O  O387  1  0.58830000  0.16950000  0.20060000  1
  O  O388  1  0.20300000  0.31520000  0.19920000  1
  O  O389  1  0.20300000  0.18480000  0.19920000  1
  O  O390  1  0.41150000  0.39380000  0.19880000  1
  O  O391  1  0.41150000  0.10620000  0.19880000  1
  O  O392  1  0.68800000  0.85480000  0.16450000  1
  O  O393  1  0.68800000  0.64520000  0.16450000  1
  O  O394  1  0.86500000  0.92210000  0.16370000  1
  O  O395  1  0.86500000  0.57790000  0.16370000  1
  O  O396  1  0.14430000  0.81570000  0.16350000  1
  O  O397  1  0.14430000  0.68430000  0.16350000  1
  O  O398  1  0.34380000  0.31770000  0.12620000  1
  O  O399  1  0.34380000  0.18230000  0.12620000  1
  O  O400  1  0.52060000  0.25000000  0.12580000  1
  O  O401  1  0.78200000  0.75000000  0.12420000  1
  O  O402  1  0.95590000  0.81760000  0.12410000  1
  O  O403  1  0.95590000  0.68240000  0.12410000  1
