# generated using pymatgen
data_SmH12C21(NO2)3
_symmetry_space_group_name_H-M   'P 1'
_cell_length_a   8.76190000
_cell_length_b   16.29540000
_cell_length_c   20.75500000
_cell_angle_alpha   95.31600000
_cell_angle_beta   90.00000000
_cell_angle_gamma   90.00000000
_symmetry_Int_Tables_number   1
_chemical_formula_structural   SmH12C21(NO2)3
_chemical_formula_sum   'Sm4 H48 C84 N12 O24'
_cell_volume   2950.62533679
_cell_formula_units_Z   4
loop_
 _symmetry_equiv_pos_site_id
 _symmetry_equiv_pos_as_xyz
  1  'x, y, z'
loop_
 _atom_site_type_symbol
 _atom_site_label
 _atom_site_symmetry_multiplicity
 _atom_site_fract_x
 _atom_site_fract_y
 _atom_site_fract_z
 _atom_site_occupancy
  Sm  Sm0  1  0.78030000  0.75815000  0.28829000  1
  Sm  Sm1  1  0.28030000  0.74185000  0.21171000  1
  Sm  Sm2  1  0.71970000  0.25815000  0.78829000  1
  Sm  Sm3  1  0.21970000  0.24185000  0.71171000  1
  H  H4  1  0.11410000  0.99790000  0.64820000  1
  H  H5  1  0.51750000  0.99330000  0.40870000  1
  H  H6  1  0.73270000  0.98330000  0.75270000  1
  H  H7  1  0.78760000  0.96420000  0.22470000  1
  H  H8  1  0.40490000  0.96090000  0.11920000  1
  H  H9  1  0.66450000  0.94400000  0.52290000  1
  H  H10  1  0.58290000  0.89520000  0.87880000  1
  H  H11  1  0.20450000  0.89410000  0.77270000  1
  H  H12  1  0.05160000  0.86500000  0.43600000  1
  H  H13  1  0.11150000  0.85700000  0.62290000  1
  H  H14  1  0.73560000  0.83950000  0.73040000  1
  H  H15  1  0.23520000  0.80010000  0.36980000  1
  H  H16  1  0.73520000  0.69990000  0.13020000  1
  H  H17  1  0.23560000  0.66050000  0.76960000  1
  H  H18  1  0.61150000  0.64300000  0.87710000  1
  H  H19  1  0.55160000  0.63500000  0.06400000  1
  H  H20  1  0.70450000  0.60590000  0.72730000  1
  H  H21  1  0.08290000  0.60480000  0.62120000  1
  H  H22  1  0.16450000  0.55600000  0.97710000  1
  H  H23  1  0.90490000  0.53910000  0.38080000  1
  H  H24  1  0.28760000  0.53580000  0.27530000  1
  H  H25  1  0.23270000  0.51670000  0.74730000  1
  H  H26  1  0.01750000  0.50670000  0.09130000  1
  H  H27  1  0.61410000  0.50210000  0.85180000  1
  H  H28  1  0.38590000  0.49790000  0.14820000  1
  H  H29  1  0.98250000  0.49330000  0.90870000  1
  H  H30  1  0.76730000  0.48330000  0.25270000  1
  H  H31  1  0.71240000  0.46420000  0.72470000  1
  H  H32  1  0.09510000  0.46090000  0.61920000  1
  H  H33  1  0.83550000  0.44400000  0.02290000  1
  H  H34  1  0.91710000  0.39520000  0.37880000  1
  H  H35  1  0.29550000  0.39410000  0.27270000  1
  H  H36  1  0.44840000  0.36500000  0.93600000  1
  H  H37  1  0.38850000  0.35700000  0.12290000  1
  H  H38  1  0.76440000  0.33950000  0.23040000  1
  H  H39  1  0.26480000  0.30010000  0.86980000  1
  H  H40  1  0.76480000  0.19990000  0.63020000  1
  H  H41  1  0.26440000  0.16050000  0.26960000  1
  H  H42  1  0.88850000  0.14300000  0.37710000  1
  H  H43  1  0.94840000  0.13500000  0.56400000  1
  H  H44  1  0.79550000  0.10590000  0.22730000  1
  H  H45  1  0.41710000  0.10480000  0.12120000  1
  H  H46  1  0.33550000  0.05600000  0.47710000  1
  H  H47  1  0.59510000  0.03910000  0.88080000  1
  H  H48  1  0.21240000  0.03580000  0.77530000  1
  H  H49  1  0.26730000  0.01670000  0.24730000  1
  H  H50  1  0.48250000  0.00670000  0.59130000  1
  H  H51  1  0.88590000  0.00210000  0.35180000  1
  C  C52  1  0.07620000  0.99590000  0.29650000  1
  C  C53  1  0.68570000  0.99450000  0.54580000  1
  C  C54  1  0.71160000  0.99200000  0.20420000  1
  C  C55  1  0.48360000  0.98990000  0.14110000  1
  C  C56  1  0.17390000  0.96900000  0.46120000  1
  C  C57  1  0.42370000  0.96790000  0.41360000  1
  C  C58  1  0.03780000  0.96610000  0.66470000  1
  C  C59  1  0.81040000  0.95780000  0.72770000  1
  C  C60  1  0.59550000  0.94840000  0.17250000  1
  C  C61  1  0.50960000  0.92360000  0.85730000  1
  C  C62  1  0.28380000  0.92300000  0.79420000  1
  C  C63  1  0.07170000  0.90410000  0.27980000  1
  C  C64  1  0.39260000  0.89180000  0.38020000  1
  C  C65  1  0.14440000  0.89090000  0.42990000  1
  C  C66  1  0.03810000  0.88210000  0.65050000  1
  C  C67  1  0.39410000  0.88120000  0.82380000  1
  C  C68  1  0.81200000  0.87180000  0.71450000  1
  C  C69  1  0.58590000  0.85620000  0.17560000  1
  C  C70  1  0.25370000  0.85240000  0.39010000  1
  C  C71  1  0.50990000  0.85070000  0.33470000  1
  C  C72  1  0.92990000  0.83590000  0.67730000  1
  C  C73  1  0.42990000  0.66410000  0.82270000  1
  C  C74  1  0.00990000  0.64930000  0.16530000  1
  C  C75  1  0.75370000  0.64760000  0.10990000  1
  C  C76  1  0.08590000  0.64380000  0.32440000  1
  C  C77  1  0.31200000  0.62820000  0.78550000  1
  C  C78  1  0.89410000  0.61880000  0.67620000  1
  C  C79  1  0.53810000  0.61790000  0.84950000  1
  C  C80  1  0.64440000  0.60910000  0.07010000  1
  C  C81  1  0.89260000  0.60820000  0.11980000  1
  C  C82  1  0.57170000  0.59590000  0.22020000  1
  C  C83  1  0.78380000  0.57700000  0.70580000  1
  C  C84  1  0.00960000  0.57640000  0.64270000  1
  C  C85  1  0.09550000  0.55160000  0.32750000  1
  C  C86  1  0.31040000  0.54220000  0.77230000  1
  C  C87  1  0.53780000  0.53390000  0.83530000  1
  C  C88  1  0.92370000  0.53210000  0.08640000  1
  C  C89  1  0.67390000  0.53100000  0.03880000  1
  C  C90  1  0.98360000  0.51010000  0.35890000  1
  C  C91  1  0.21160000  0.50800000  0.29580000  1
  C  C92  1  0.18570000  0.50550000  0.95420000  1
  C  C93  1  0.57620000  0.50410000  0.20350000  1
  C  C94  1  0.42380000  0.49590000  0.79650000  1
  C  C95  1  0.81430000  0.49450000  0.04580000  1
  C  C96  1  0.78840000  0.49200000  0.70420000  1
  C  C97  1  0.01640000  0.48990000  0.64110000  1
  C  C98  1  0.32610000  0.46900000  0.96120000  1
  C  C99  1  0.07630000  0.46790000  0.91360000  1
  C  C100  1  0.46220000  0.46610000  0.16470000  1
  C  C101  1  0.68960000  0.45780000  0.22770000  1
  C  C102  1  0.90450000  0.44840000  0.67250000  1
  C  C103  1  0.99040000  0.42360000  0.35730000  1
  C  C104  1  0.21620000  0.42300000  0.29420000  1
  C  C105  1  0.42830000  0.40410000  0.77980000  1
  C  C106  1  0.10740000  0.39180000  0.88020000  1
  C  C107  1  0.35560000  0.39090000  0.92990000  1
  C  C108  1  0.46190000  0.38210000  0.15050000  1
  C  C109  1  0.10590000  0.38120000  0.32380000  1
  C  C110  1  0.68800000  0.37180000  0.21450000  1
  C  C111  1  0.91410000  0.35620000  0.67560000  1
  C  C112  1  0.24630000  0.35240000  0.89010000  1
  C  C113  1  0.99010000  0.35070000  0.83470000  1
  C  C114  1  0.57010000  0.33590000  0.17730000  1
  C  C115  1  0.07010000  0.16410000  0.32270000  1
  C  C116  1  0.49010000  0.14930000  0.66530000  1
  C  C117  1  0.74630000  0.14760000  0.60990000  1
  C  C118  1  0.41410000  0.14380000  0.82440000  1
  C  C119  1  0.18800000  0.12820000  0.28550000  1
  C  C120  1  0.60590000  0.11880000  0.17620000  1
  C  C121  1  0.96190000  0.11790000  0.34950000  1
  C  C122  1  0.85560000  0.10910000  0.57010000  1
  C  C123  1  0.60740000  0.10820000  0.61980000  1
  C  C124  1  0.92830000  0.09590000  0.72020000  1
  C  C125  1  0.71620000  0.07700000  0.20580000  1
  C  C126  1  0.49040000  0.07640000  0.14270000  1
  C  C127  1  0.40450000  0.05160000  0.82750000  1
  C  C128  1  0.18960000  0.04220000  0.27230000  1
  C  C129  1  0.96220000  0.03390000  0.33530000  1
  C  C130  1  0.57630000  0.03210000  0.58640000  1
  C  C131  1  0.82610000  0.03100000  0.53880000  1
  C  C132  1  0.51640000  0.01010000  0.85890000  1
  C  C133  1  0.28840000  0.00800000  0.79580000  1
  C  C134  1  0.31430000  0.00550000  0.45420000  1
  C  C135  1  0.92380000  0.00410000  0.70350000  1
  N  N136  1  0.93490000  0.98450000  0.49890000  1
  N  N137  1  0.36140000  0.78710000  0.81160000  1
  N  N138  1  0.46050000  0.75720000  0.83940000  1
  N  N139  1  0.96050000  0.74280000  0.66060000  1
  N  N140  1  0.86140000  0.71290000  0.68840000  1
  N  N141  1  0.43490000  0.51550000  0.00110000  1
  N  N142  1  0.56510000  0.48450000  0.99890000  1
  N  N143  1  0.13860000  0.28710000  0.31160000  1
  N  N144  1  0.03950000  0.25720000  0.33940000  1
  N  N145  1  0.53950000  0.24280000  0.16060000  1
  N  N146  1  0.63860000  0.21290000  0.18840000  1
  N  N147  1  0.06510000  0.01550000  0.50110000  1
  O  O148  1  0.64370000  0.87750000  0.33880000  1
  O  O149  1  0.18180000  0.87140000  0.24790000  1
  O  O150  1  0.95950000  0.86510000  0.29840000  1
  O  O151  1  0.70220000  0.82160000  0.19610000  1
  O  O152  1  0.46580000  0.82030000  0.15790000  1
  O  O153  1  0.47280000  0.78950000  0.29582000  1
  O  O154  1  0.97280000  0.71050000  0.20418000  1
  O  O155  1  0.96580000  0.67970000  0.34210000  1
  O  O156  1  0.20220000  0.67840000  0.30390000  1
  O  O157  1  0.45950000  0.63490000  0.20160000  1
  O  O158  1  0.68180000  0.62860000  0.25210000  1
  O  O159  1  0.14370000  0.62250000  0.16120000  1
  O  O160  1  0.85630000  0.37750000  0.83880000  1
  O  O161  1  0.31820000  0.37140000  0.74790000  1
  O  O162  1  0.54050000  0.36510000  0.79840000  1
  O  O163  1  0.79780000  0.32160000  0.69610000  1
  O  O164  1  0.03420000  0.32030000  0.65790000  1
  O  O165  1  0.02720000  0.28950000  0.79582000  1
  O  O166  1  0.52720000  0.21050000  0.70418000  1
  O  O167  1  0.53420000  0.17970000  0.84210000  1
  O  O168  1  0.29780000  0.17840000  0.80390000  1
  O  O169  1  0.04050000  0.13490000  0.70160000  1
  O  O170  1  0.81820000  0.12860000  0.75210000  1
  O  O171  1  0.35630000  0.12250000  0.66120000  1
