# generated using pymatgen
data_AgH8(CN)2
_symmetry_space_group_name_H-M   'P 1'
_cell_length_a   6.30210000
_cell_length_b   7.40811962
_cell_length_c   7.40811962
_cell_angle_alpha   90.39813641
_cell_angle_beta   107.47038059
_cell_angle_gamma   107.47038059
_symmetry_Int_Tables_number   1
_chemical_formula_structural   AgH8(CN)2
_chemical_formula_sum   'Ag2 H16 C4 N4'
_cell_volume   312.89289009
_cell_formula_units_Z   2
loop_
 _symmetry_equiv_pos_site_id
 _symmetry_equiv_pos_as_xyz
  1  'x, y, z'
loop_
 _atom_site_type_symbol
 _atom_site_label
 _atom_site_symmetry_multiplicity
 _atom_site_fract_x
 _atom_site_fract_y
 _atom_site_fract_z
 _atom_site_occupancy
  Ag  Ag0  1  1.00000000  0.50000000  0.50000000  1
  Ag  Ag1  1  0.50000000  0.50000000  0.50000000  1
  C  C2  1  0.54600000  0.52630000  0.10570000  1
  C  C3  1  0.04600000  0.10570000  0.52630000  1
  C  C4  1  0.45400000  0.47370000  0.89430000  1
  C  C5  1  0.95400000  0.89430000  0.47370000  1
  H  H6  1  0.57870000  0.66210000  0.13190000  1
  H  H7  1  0.07870000  0.13190000  0.66210000  1
  H  H8  1  0.69250000  0.49880000  0.15640000  1
  H  H9  1  0.19250000  0.15640000  0.49880000  1
  H  H10  1  0.24440000  0.44680000  0.15260000  1
  H  H11  1  0.74440000  0.15260000  0.44680000  1
  H  H12  1  0.64520000  0.70170000  0.81910000  1
  H  H13  1  0.14520000  0.81910000  0.70170000  1
  H  H14  1  0.35480000  0.29830000  0.18090000  1
  H  H15  1  0.85480000  0.18090000  0.29830000  1
  H  H16  1  0.75560000  0.55320000  0.84740000  1
  H  H17  1  0.25560000  0.84740000  0.55320000  1
  H  H18  1  0.30750000  0.50120000  0.84360000  1
  H  H19  1  0.80750000  0.84360000  0.50120000  1
  H  H20  1  0.42130000  0.33790000  0.86810000  1
  H  H21  1  0.92130000  0.86810000  0.33790000  1
  N  N22  1  0.38170000  0.42420000  0.20300000  1
  N  N23  1  0.88170000  0.20300000  0.42420000  1
  N  N24  1  0.61830000  0.57580000  0.79700000  1
  N  N25  1  0.11830000  0.79700000  0.57580000  1
