# generated using pymatgen
data_Cd2H25C32(N2O3)2
_symmetry_space_group_name_H-M   'P 1'
_cell_length_a   11.78298486
_cell_length_b   11.78298486
_cell_length_c   15.39400000
_cell_angle_alpha   98.54235444
_cell_angle_beta   98.54235444
_cell_angle_gamma   104.05342669
_symmetry_Int_Tables_number   1
_chemical_formula_structural   Cd2H25C32(N2O3)2
_chemical_formula_sum   'Cd4 H50 C64 N8 O12'
_cell_volume   2011.99001632
_cell_formula_units_Z   2
loop_
 _symmetry_equiv_pos_site_id
 _symmetry_equiv_pos_as_xyz
  1  'x, y, z'
loop_
 _atom_site_type_symbol
 _atom_site_label
 _atom_site_symmetry_multiplicity
 _atom_site_fract_x
 _atom_site_fract_y
 _atom_site_fract_z
 _atom_site_occupancy
  C  C0  1  0.50780000  0.40940000  0.33980000  1
  C  C1  1  0.40940000  0.50780000  0.83980000  1
  C  C2  1  0.92600000  0.98360000  0.67070000  1
  C  C3  1  0.98360000  0.92600000  0.17070000  1
  C  C4  1  0.65130000  0.21470000  0.02420000  1
  C  C5  1  0.21470000  0.65130000  0.52420000  1
  C  C6  1  0.49530000  0.36410000  0.07010000  1
  C  C7  1  0.36410000  0.49530000  0.57010000  1
  C  C8  1  0.78630000  0.99910000  0.18100000  1
  C  C9  1  0.99910000  0.78630000  0.68100000  1
  C  C10  1  0.83970000  0.88090000  0.67580000  1
  C  C11  1  0.88090000  0.83970000  0.17580000  1
  C  C12  1  0.44220000  0.23580000  0.02340000  1
  C  C13  1  0.23580000  0.44220000  0.52340000  1
  C  C14  1  0.51400000  0.16340000  0.99840000  1
  C  C15  1  0.16340000  0.51400000  0.49840000  1
  C  C16  1  0.78080000  0.88000000  0.18060000  1
  C  C17  1  0.88000000  0.78080000  0.68060000  1
  C  C18  1  0.69800000  0.94580000  0.40500000  1
  C  C19  1  0.94580000  0.69800000  0.90500000  1
  C  C20  1  0.66730000  0.96610000  0.63860000  1
  C  C21  1  0.96610000  0.66730000  0.13860000  1
  C  C22  1  0.71580000  0.88220000  0.67310000  1
  C  C23  1  0.88220000  0.71580000  0.17310000  1
  C  C24  1  0.69840000  0.82940000  0.40890000  1
  C  C25  1  0.82940000  0.69840000  0.90890000  1
  C  C26  1  0.55280000  0.96780000  0.63720000  1
  C  C27  1  0.96780000  0.55280000  0.13720000  1
  C  C28  1  0.54850000  0.96970000  0.92740000  1
  C  C29  1  0.96970000  0.54850000  0.42740000  1
  C  C30  1  0.31840000  0.18640000  0.00320000  1
  C  C31  1  0.18640000  0.31840000  0.50320000  1
  C  C32  1  0.46160000  0.04200000  0.95250000  1
  C  C33  1  0.04200000  0.46160000  0.45250000  1
  C  C34  1  0.25330000  0.23710000  0.54220000  1
  C  C35  1  0.23710000  0.25330000  0.04220000  1
  C  C36  1  0.63370000  0.79130000  0.70590000  1
  C  C37  1  0.79130000  0.63370000  0.20590000  1
  C  C38  1  0.49570000  0.89650000  0.39380000  1
  C  C39  1  0.89650000  0.49570000  0.89380000  1
  C  C40  1  0.59490000  0.74510000  0.40360000  1
  C  C41  1  0.74510000  0.59490000  0.90360000  1
  C  C42  1  0.33980000  0.99780000  0.93140000  1
  C  C43  1  0.99780000  0.33980000  0.43140000  1
  C  C44  1  0.26590000  0.06770000  0.95530000  1
  C  C45  1  0.06770000  0.26590000  0.45530000  1
  C  C46  1  0.52280000  0.80140000  0.70160000  1
  C  C47  1  0.80140000  0.52280000  0.20160000  1
  C  C48  1  0.49370000  0.78310000  0.39730000  1
  C  C49  1  0.78310000  0.49370000  0.89730000  1
  C  C50  1  0.58290000  0.67310000  0.96000000  1
  C  C51  1  0.67310000  0.58290000  0.46000000  1
  C  C52  1  0.59310000  0.61930000  0.40260000  1
  C  C53  1  0.61930000  0.59310000  0.90260000  1
  C  C54  1  0.28300000  0.86480000  0.88710000  1
  C  C55  1  0.86480000  0.28300000  0.38710000  1
  C  C56  1  0.12920000  0.01720000  0.93130000  1
  C  C57  1  0.01720000  0.12920000  0.43130000  1
  C  C58  1  0.46280000  0.66780000  0.95460000  1
  C  C59  1  0.66780000  0.46280000  0.45460000  1
  C  C60  1  0.50470000  0.52690000  0.34330000  1
  C  C61  1  0.52690000  0.50470000  0.84330000  1
  C  C62  1  0.04400000  0.98240000  0.67230000  1
  C  C63  1  0.98240000  0.04400000  0.17230000  1
  Cd  Cd64  1  0.59777000  0.17931000  0.38349000  1
  Cd  Cd65  1  0.17931000  0.59777000  0.88349000  1
  Cd  Cd66  1  0.28099000  0.89299000  0.67285000  1
  Cd  Cd67  1  0.89299000  0.28099000  0.17285000  1
  H  H68  1  0.54450000  0.44410000  0.80640000  1
  H  H69  1  0.44410000  0.54450000  0.30640000  1
  H  H70  1  0.90410000  0.05350000  0.66610000  1
  H  H71  1  0.05350000  0.90410000  0.16610000  1
  H  H72  1  0.54060000  0.40700000  0.03250000  1
  H  H73  1  0.40700000  0.54060000  0.53250000  1
  H  H74  1  0.54660000  0.36740000  0.12550000  1
  H  H75  1  0.36740000  0.54660000  0.62550000  1
  H  H76  1  0.43250000  0.39950000  0.08180000  1
  H  H77  1  0.39950000  0.43250000  0.58180000  1
  H  H78  1  0.45100000  0.34960000  0.29810000  1
  H  H79  1  0.34960000  0.45100000  0.79810000  1
  H  H80  1  0.77010000  0.00230000  0.40930000  1
  H  H81  1  0.00230000  0.77010000  0.90930000  1
  H  H82  1  0.71760000  0.02360000  0.18510000  1
  H  H83  1  0.02360000  0.71760000  0.68510000  1
  H  H84  1  0.71600000  0.02400000  0.61540000  1
  H  H85  1  0.02400000  0.71600000  0.11540000  1
  H  H86  1  0.62900000  0.01800000  0.94840000  1
  H  H87  1  0.01800000  0.62900000  0.44840000  1
  H  H88  1  0.77020000  0.80880000  0.41520000  1
  H  H89  1  0.80880000  0.77020000  0.91520000  1
  H  H90  1  0.52480000  0.02640000  0.61380000  1
  H  H91  1  0.02640000  0.52480000  0.11380000  1
  H  H92  1  0.70930000  0.82710000  0.18360000  1
  H  H93  1  0.82710000  0.70930000  0.68360000  1
  H  H94  1  0.53440000  0.94520000  0.86350000  1
  H  H95  1  0.94520000  0.53440000  0.36350000  1
  H  H96  1  0.53620000  0.90040000  0.95450000  1
  H  H97  1  0.90040000  0.53620000  0.45450000  1
  H  H98  1  0.65750000  0.72990000  0.72840000  1
  H  H99  1  0.72990000  0.65750000  0.22840000  1
  H  H100  1  0.63960000  0.73140000  0.00290000  1
  H  H101  1  0.73140000  0.63960000  0.50290000  1
  H  H102  1  0.42450000  0.91810000  0.39030000  1
  H  H103  1  0.91810000  0.42450000  0.89030000  1
  H  H104  1  0.47210000  0.74350000  0.72350000  1
  H  H105  1  0.74350000  0.47210000  0.22350000  1
  H  H106  1  0.09230000  0.07730000  0.95270000  1
  H  H107  1  0.07730000  0.09230000  0.45270000  1
  H  H108  1  0.44130000  0.72170000  0.99520000  1
  H  H109  1  0.72170000  0.44130000  0.49520000  1
  H  H110  1  0.09870000  0.05350000  0.67090000  1
  H  H111  1  0.05350000  0.09870000  0.17090000  1
  H  H112  1  0.42120000  0.72840000  0.39540000  1
  H  H113  1  0.72840000  0.42120000  0.89540000  1
  H  H114  1  0.10440000  0.99360000  0.86750000  1
  H  H115  1  0.99360000  0.10440000  0.36750000  1
  H  H116  1  0.10550000  0.94930000  0.95860000  1
  H  H117  1  0.94930000  0.10550000  0.45860000  1
  N  N118  1  0.88780000  0.08300000  0.17560000  1
  N  N119  1  0.08300000  0.88780000  0.67560000  1
  N  N120  1  0.59060000  0.37960000  0.39480000  1
  N  N121  1  0.37960000  0.59060000  0.89480000  1
  N  N122  1  0.59660000  0.98020000  0.39520000  1
  N  N123  1  0.98020000  0.59660000  0.89520000  1
  N  N124  1  0.47420000  0.87980000  0.67150000  1
  N  N125  1  0.87980000  0.47420000  0.17150000  1
  O  O126  1  0.70690000  0.23670000  0.96580000  1
  O  O127  1  0.23670000  0.70690000  0.46580000  1
  O  O128  1  0.69370000  0.21710000  0.10560000  1
  O  O129  1  0.21710000  0.69370000  0.60560000  1
  O  O130  1  0.31150000  0.18410000  0.49660000  1
  O  O131  1  0.18410000  0.31150000  0.99660000  1
  O  O132  1  0.24870000  0.22750000  0.62060000  1
  O  O133  1  0.22750000  0.24870000  0.12060000  1
  O  O134  1  0.29010000  0.83090000  0.80830000  1
  O  O135  1  0.83090000  0.29010000  0.30830000  1
  O  O136  1  0.24110000  0.79790000  0.93650000  1
  O  O137  1  0.79790000  0.24110000  0.43650000  1
