# generated using pymatgen
data_Zn4CoH18(C2N)18
_symmetry_space_group_name_H-M   'P 1'
_cell_length_a   17.77710000
_cell_length_b   17.77710000
_cell_length_c   19.11290000
_cell_angle_alpha   90.00000000
_cell_angle_beta   90.00000000
_cell_angle_gamma   120.00000000
_symmetry_Int_Tables_number   1
_chemical_formula_structural   Zn4CoH18(C2N)18
_chemical_formula_sum   'Zn8 Co2 H36 C72 N36'
_cell_volume   5230.93170709
_cell_formula_units_Z   2
loop_
 _symmetry_equiv_pos_site_id
 _symmetry_equiv_pos_as_xyz
  1  'x, y, z'
loop_
 _atom_site_type_symbol
 _atom_site_label
 _atom_site_symmetry_multiplicity
 _atom_site_fract_x
 _atom_site_fract_y
 _atom_site_fract_z
 _atom_site_occupancy
  Zn  Zn0  1  0.87250000  0.50440000  0.32850000  1
  Zn  Zn1  1  0.66666667  0.33333333  0.26500000  1
  Zn  Zn2  1  0.63190000  0.12750000  0.32850000  1
  Zn  Zn3  1  0.50440000  0.87250000  0.67150000  1
  Zn  Zn4  1  0.49560000  0.36810000  0.32850000  1
  Zn  Zn5  1  0.36810000  0.49560000  0.67150000  1
  Zn  Zn6  1  0.33333333  0.66666667  0.73500000  1
  Zn  Zn7  1  0.12750000  0.63190000  0.67150000  1
  Co  Co8  1  0.66666667  0.33333333  0.07630000  1
  Co  Co9  1  0.33333333  0.66666667  0.92370000  1
  H  H10  1  0.98010000  0.60939000  0.80177000  1
  H  H11  1  0.97942000  0.44229000  0.43944000  1
  H  H12  1  0.91671000  0.20069000  0.50293000  1
  H  H13  1  0.91448000  0.56665000  0.91080000  1
  H  H14  1  0.86203000  0.65206000  0.44037000  1
  H  H15  1  0.85922000  0.47045000  0.99937000  1
  H  H16  1  0.79931000  0.71602000  0.50293000  1
  H  H17  1  0.79003000  0.13797000  0.44037000  1
  H  H18  1  0.71602000  0.79931000  0.49707000  1
  H  H19  1  0.65217000  0.08552000  0.91080000  1
  H  H20  1  0.65206000  0.86203000  0.55963000  1
  H  H21  1  0.62929000  0.01990000  0.80177000  1
  H  H22  1  0.61123000  0.14078000  0.99937000  1
  H  H23  1  0.60939000  0.98010000  0.19823000  1
  H  H24  1  0.56665000  0.91448000  0.08920000  1
  H  H25  1  0.55771000  0.53713000  0.43944000  1
  H  H26  1  0.53713000  0.55771000  0.56056000  1
  H  H27  1  0.52955000  0.38877000  0.99937000  1
  H  H28  1  0.47045000  0.85922000  0.00063000  1
  H  H29  1  0.46287000  0.02058000  0.43944000  1
  H  H30  1  0.44229000  0.97942000  0.56056000  1
  H  H31  1  0.43335000  0.34783000  0.91080000  1
  H  H32  1  0.39061000  0.37071000  0.80177000  1
  H  H33  1  0.38877000  0.52955000  0.00063000  1
  H  H34  1  0.37071000  0.39061000  0.19823000  1
  H  H35  1  0.34794000  0.20997000  0.44037000  1
  H  H36  1  0.34783000  0.43335000  0.08920000  1
  H  H37  1  0.28398000  0.08329000  0.50293000  1
  H  H38  1  0.20997000  0.34794000  0.55963000  1
  H  H39  1  0.20069000  0.91671000  0.49707000  1
  H  H40  1  0.14078000  0.61123000  0.00063000  1
  H  H41  1  0.13797000  0.79003000  0.55963000  1
  H  H42  1  0.08552000  0.65217000  0.08920000  1
  H  H43  1  0.08329000  0.28398000  0.49707000  1
  H  H44  1  0.02058000  0.46287000  0.56056000  1
  H  H45  1  0.01990000  0.62929000  0.19823000  1
  C  C46  1  0.98900000  0.59600000  0.16000000  1
  C  C47  1  0.97400000  0.57200000  0.03430000  1
  C  C48  1  0.97400000  0.58700000  0.90564000  1
  C  C49  1  0.96100000  0.32817000  0.48100000  1
  C  C50  1  0.94000000  0.38300000  0.44300000  1
  C  C51  1  0.90400000  0.52800000  0.16660000  1
  C  C52  1  0.90200000  0.23658000  0.47800000  1
  C  C53  1  0.89000000  0.50220000  0.03840000  1
  C  C54  1  0.85900000  0.34500000  0.40900000  1
  C  C55  1  0.85472000  0.48272000  0.10740000  1
  C  C56  1  0.82700000  0.19800000  0.44000000  1
  C  C57  1  0.80800000  0.25251000  0.40000000  1
  C  C58  1  0.80200000  0.62900000  0.44000000  1
  C  C59  1  0.76342000  0.66542000  0.47800000  1
  C  C60  1  0.74749000  0.55549000  0.40000000  1
  C  C61  1  0.67183000  0.63283000  0.48100000  1
  C  C62  1  0.66542000  0.76342000  0.52200000  1
  C  C63  1  0.65500000  0.51400000  0.40900000  1
  C  C64  1  0.63283000  0.67183000  0.51900000  1
  C  C65  1  0.62900000  0.80200000  0.56000000  1
  C  C66  1  0.62800000  0.14528000  0.10740000  1
  C  C67  1  0.62400000  0.09600000  0.16660000  1
  C  C68  1  0.61700000  0.55700000  0.44300000  1
  C  C69  1  0.61300000  0.02600000  0.90564000  1
  C  C70  1  0.61220000  0.11000000  0.03840000  1
  C  C71  1  0.60700000  0.01100000  0.16000000  1
  C  C72  1  0.59800000  0.02600000  0.03430000  1
  C  C73  1  0.59600000  0.98900000  0.84000000  1
  C  C74  1  0.58700000  0.97400000  0.09436000  1
  C  C75  1  0.57200000  0.97400000  0.96570000  1
  C  C76  1  0.55700000  0.61700000  0.55700000  1
  C  C77  1  0.55549000  0.74749000  0.60000000  1
  C  C78  1  0.52800000  0.90400000  0.83340000  1
  C  C79  1  0.51728000  0.37200000  0.10740000  1
  C  C80  1  0.51400000  0.65500000  0.59100000  1
  C  C81  1  0.50220000  0.89000000  0.96160000  1
  C  C82  1  0.49780000  0.38780000  0.03840000  1
  C  C83  1  0.48600000  0.14100000  0.40900000  1
  C  C84  1  0.48272000  0.85472000  0.89260000  1
  C  C85  1  0.47200000  0.37600000  0.16660000  1
  C  C86  1  0.44451000  0.19200000  0.40000000  1
  C  C87  1  0.44300000  0.06000000  0.44300000  1
  C  C88  1  0.42800000  0.40200000  0.03430000  1
  C  C89  1  0.41300000  0.38700000  0.90564000  1
  C  C90  1  0.40400000  0.39300000  0.16000000  1
  C  C91  1  0.40200000  0.42800000  0.96570000  1
  C  C92  1  0.39300000  0.40400000  0.84000000  1
  C  C93  1  0.38780000  0.49780000  0.96160000  1
  C  C94  1  0.38700000  0.41300000  0.09436000  1
  C  C95  1  0.38300000  0.94000000  0.55700000  1
  C  C96  1  0.37600000  0.47200000  0.83340000  1
  C  C97  1  0.37200000  0.51728000  0.89260000  1
  C  C98  1  0.37100000  0.17300000  0.44000000  1
  C  C99  1  0.36717000  0.03900000  0.48100000  1
  C  C100  1  0.34500000  0.85900000  0.59100000  1
  C  C101  1  0.33458000  0.09800000  0.47800000  1
  C  C102  1  0.32817000  0.96100000  0.51900000  1
  C  C103  1  0.25251000  0.80800000  0.60000000  1
  C  C104  1  0.23658000  0.90200000  0.52200000  1
  C  C105  1  0.19800000  0.82700000  0.56000000  1
  C  C106  1  0.19200000  0.44451000  0.60000000  1
  C  C107  1  0.17300000  0.37100000  0.56000000  1
  C  C108  1  0.14528000  0.62800000  0.89260000  1
  C  C109  1  0.14100000  0.48600000  0.59100000  1
  C  C110  1  0.11000000  0.61220000  0.96160000  1
  C  C111  1  0.09800000  0.33458000  0.52200000  1
  C  C112  1  0.09600000  0.62400000  0.83340000  1
  C  C113  1  0.06000000  0.44300000  0.55700000  1
  C  C114  1  0.03900000  0.36717000  0.51900000  1
  C  C115  1  0.02600000  0.59800000  0.96570000  1
  C  C116  1  0.02600000  0.61300000  0.09436000  1
  C  C117  1  0.01100000  0.60700000  0.84000000  1
  N  N118  1  0.85300000  0.48600000  0.22350000  1
  N  N119  1  0.82700000  0.38200000  0.36600000  1
  N  N120  1  0.77800000  0.42200000  0.19920000  1
  N  N121  1  0.77601000  0.41701000  0.12930000  1
  N  N122  1  0.76110000  0.50010000  0.36000000  1
  N  N123  1  0.75400000  0.31534000  0.33600000  1
  N  N124  1  0.73900000  0.23890000  0.36000000  1
  N  N125  1  0.68466000  0.43866000  0.33600000  1
  N  N126  1  0.64400000  0.22200000  0.19920000  1
  N  N127  1  0.64100000  0.22399000  0.12930000  1
  N  N128  1  0.63300000  0.14700000  0.22350000  1
  N  N129  1  0.61800000  0.44500000  0.36600000  1
  N  N130  1  0.58299000  0.35900000  0.12930000  1
  N  N131  1  0.57800000  0.35600000  0.19920000  1
  N  N132  1  0.56134000  0.24600000  0.33600000  1
  N  N133  1  0.55500000  0.17300000  0.36600000  1
  N  N134  1  0.51400000  0.36700000  0.22350000  1
  N  N135  1  0.50010000  0.76110000  0.64000000  1
  N  N136  1  0.49990000  0.26100000  0.36000000  1
  N  N137  1  0.48600000  0.85300000  0.77650000  1
  N  N138  1  0.44500000  0.61800000  0.63400000  1
  N  N139  1  0.43866000  0.68466000  0.66400000  1
  N  N140  1  0.42200000  0.77800000  0.80080000  1
  N  N141  1  0.41701000  0.77601000  0.87070000  1
  N  N142  1  0.38200000  0.82700000  0.63400000  1
  N  N143  1  0.36700000  0.51400000  0.77650000  1
  N  N144  1  0.35900000  0.58299000  0.87070000  1
  N  N145  1  0.35600000  0.57800000  0.80080000  1
  N  N146  1  0.31534000  0.75400000  0.66400000  1
  N  N147  1  0.26100000  0.49990000  0.64000000  1
  N  N148  1  0.24600000  0.56134000  0.66400000  1
  N  N149  1  0.23890000  0.73900000  0.64000000  1
  N  N150  1  0.22399000  0.64100000  0.87070000  1
  N  N151  1  0.22200000  0.64400000  0.80080000  1
  N  N152  1  0.17300000  0.55500000  0.63400000  1
  N  N153  1  0.14700000  0.63300000  0.77650000  1
