# generated using pymatgen
data_Cu3H24C42(NO6)2
_symmetry_space_group_name_H-M   'P 1'
_cell_length_a   19.88430000
_cell_length_b   26.11098322
_cell_length_c   26.11098322
_cell_angle_alpha   81.66376151
_cell_angle_beta   67.61891993
_cell_angle_gamma   67.61891993
_symmetry_Int_Tables_number   1
_chemical_formula_structural   Cu3H24C42(NO6)2
_chemical_formula_sum   'Cu12 H96 C168 N8 O48'
_cell_volume   11591.29613786
_cell_formula_units_Z   4
loop_
 _symmetry_equiv_pos_site_id
 _symmetry_equiv_pos_as_xyz
  1  'x, y, z'
loop_
 _atom_site_type_symbol
 _atom_site_label
 _atom_site_symmetry_multiplicity
 _atom_site_fract_x
 _atom_site_fract_y
 _atom_site_fract_z
 _atom_site_occupancy
  C  C0  1  0.78660000  0.65770000  0.34230000  1
  C  C1  1  0.21340000  0.65770000  0.34230000  1
  C  C2  1  0.86850000  0.58970000  0.41030000  1
  C  C3  1  0.13150000  0.58970000  0.41030000  1
  C  C4  1  0.91260000  0.55320000  0.44680000  1
  C  C5  1  0.08740000  0.55320000  0.44680000  1
  C  C6  1  0.91260000  0.44680000  0.55320000  1
  C  C7  1  0.08740000  0.44680000  0.55320000  1
  C  C8  1  0.86850000  0.41030000  0.58970000  1
  C  C9  1  0.13150000  0.41030000  0.58970000  1
  C  C10  1  0.78660000  0.34230000  0.65770000  1
  C  C11  1  0.21340000  0.34230000  0.65770000  1
  C  C12  1  0.88365000  0.57209000  0.35861000  1
  C  C13  1  0.18565000  0.57209000  0.35861000  1
  C  C14  1  0.88365000  0.35861000  0.57209000  1
  C  C15  1  0.18565000  0.35861000  0.57209000  1
  C  C16  1  0.84561000  0.60469000  0.32349000  1
  C  C17  1  0.22621000  0.60469000  0.32349000  1
  C  C18  1  0.84561000  0.32349000  0.60469000  1
  C  C19  1  0.22621000  0.32349000  0.60469000  1
  C  C20  1  0.64370000  0.94690000  0.94690000  1
  C  C21  1  0.46250000  0.94690000  0.94690000  1
  C  C22  1  0.87198000  0.58465000  0.26679000  1
  C  C23  1  0.27658000  0.58465000  0.26679000  1
  C  C24  1  0.87198000  0.26679000  0.58465000  1
  C  C25  1  0.27658000  0.26679000  0.58465000  1
  C  C26  1  0.82590000  0.58150000  0.24510000  1
  C  C27  1  0.34750000  0.58150000  0.24510000  1
  C  C28  1  0.82590000  0.24510000  0.58150000  1
  C  C29  1  0.34750000  0.24510000  0.58150000  1
  C  C30  1  0.71980000  0.91160000  0.91160000  1
  C  C31  1  0.45700000  0.91160000  0.91160000  1
  C  C32  1  0.94670000  0.57100000  0.23340000  1
  C  C33  1  0.24890000  0.57100000  0.23340000  1
  C  C34  1  0.94670000  0.23340000  0.57100000  1
  C  C35  1  0.24890000  0.23340000  0.57100000  1
  C  C36  1  0.75533000  0.85879000  0.93035000  1
  C  C37  1  0.45553000  0.85879000  0.93035000  1
  C  C38  1  0.75533000  0.93035000  0.85879000  1
  C  C39  1  0.45553000  0.93035000  0.85879000  1
  C  C40  1  0.84359000  0.56191000  0.19171000  1
  C  C41  1  0.40279000  0.56191000  0.19171000  1
  C  C42  1  0.84359000  0.19171000  0.56191000  1
  C  C43  1  0.40279000  0.19171000  0.56191000  1
  C  C44  1  0.97770000  0.55300000  0.17780000  1
  C  C45  1  0.29150000  0.55300000  0.17780000  1
  C  C46  1  0.97770000  0.17780000  0.55300000  1
  C  C47  1  0.29150000  0.17780000  0.55300000  1
  C  C48  1  0.83340000  0.82418000  0.89522000  1
  C  C49  1  0.44720000  0.82418000  0.89522000  1
  C  C50  1  0.83340000  0.89522000  0.82418000  1
  C  C51  1  0.44720000  0.89522000  0.82418000  1
  C  C52  1  0.92023000  0.54906000  0.15928000  1
  C  C53  1  0.37143000  0.54906000  0.15928000  1
  C  C54  1  0.92023000  0.15928000  0.54906000  1
  C  C55  1  0.37143000  0.15928000  0.54906000  1
  C  C56  1  0.86720000  0.84250000  0.84250000  1
  C  C57  1  0.44780000  0.84250000  0.84250000  1
  C  C58  1  0.86216000  0.76864000  0.91404000  1
  C  C59  1  0.45516000  0.76864000  0.91404000  1
  C  C60  1  0.86216000  0.91404000  0.76864000  1
  C  C61  1  0.45516000  0.91404000  0.76864000  1
  C  C62  1  0.81950000  0.73530000  0.92830000  1
  C  C63  1  0.51690000  0.73530000  0.92830000  1
  C  C64  1  0.81950000  0.92830000  0.73530000  1
  C  C65  1  0.51690000  0.92830000  0.73530000  1
  C  C66  1  0.93480000  0.74480000  0.91760000  1
  C  C67  1  0.40280000  0.74480000  0.91760000  1
  C  C68  1  0.93480000  0.91760000  0.74480000  1
  C  C69  1  0.40280000  0.91760000  0.74480000  1
  C  C70  1  0.83860000  0.68020000  0.95100000  1
  C  C71  1  0.53020000  0.68020000  0.95100000  1
  C  C72  1  0.83860000  0.95100000  0.68020000  1
  C  C73  1  0.53020000  0.95100000  0.68020000  1
  C  C74  1  0.94426000  0.52950000  0.09818000  1
  C  C75  1  0.42806000  0.52950000  0.09818000  1
  C  C76  1  0.94426000  0.09818000  0.52950000  1
  C  C77  1  0.42806000  0.09818000  0.52950000  1
  C  C78  1  0.97170000  0.68880000  0.93740000  1
  C  C79  1  0.40210000  0.68880000  0.93740000  1
  C  C80  1  0.97170000  0.93740000  0.68880000  1
  C  C81  1  0.40210000  0.93740000  0.68880000  1
  C  C82  1  0.92510000  0.65850000  0.95170000  1
  C  C83  1  0.46470000  0.65850000  0.95170000  1
  C  C84  1  0.92510000  0.95170000  0.65850000  1
  C  C85  1  0.46470000  0.95170000  0.65850000  1
  C  C86  1  0.95340000  0.59950000  0.97090000  1
  C  C87  1  0.47620000  0.59950000  0.97090000  1
  C  C88  1  0.95340000  0.97090000  0.59950000  1
  C  C89  1  0.47620000  0.97090000  0.59950000  1
  C  C90  1  0.04660000  0.40050000  0.02910000  1
  C  C91  1  0.52380000  0.40050000  0.02910000  1
  C  C92  1  0.04660000  0.02910000  0.40050000  1
  C  C93  1  0.52380000  0.02910000  0.40050000  1
  C  C94  1  0.07490000  0.34150000  0.04830000  1
  C  C95  1  0.53530000  0.34150000  0.04830000  1
  C  C96  1  0.07490000  0.04830000  0.34150000  1
  C  C97  1  0.53530000  0.04830000  0.34150000  1
  C  C98  1  0.02830000  0.31120000  0.06260000  1
  C  C99  1  0.59790000  0.31120000  0.06260000  1
  C  C100  1  0.02830000  0.06260000  0.31120000  1
  C  C101  1  0.59790000  0.06260000  0.31120000  1
  C  C102  1  0.05574000  0.47050000  0.90182000  1
  C  C103  1  0.57194000  0.47050000  0.90182000  1
  C  C104  1  0.05574000  0.90182000  0.47050000  1
  C  C105  1  0.57194000  0.90182000  0.47050000  1
  C  C106  1  0.16140000  0.31980000  0.04900000  1
  C  C107  1  0.46980000  0.31980000  0.04900000  1
  C  C108  1  0.16140000  0.04900000  0.31980000  1
  C  C109  1  0.46980000  0.04900000  0.31980000  1
  C  C110  1  0.06520000  0.25520000  0.08240000  1
  C  C111  1  0.59720000  0.25520000  0.08240000  1
  C  C112  1  0.06520000  0.08240000  0.25520000  1
  C  C113  1  0.59720000  0.08240000  0.25520000  1
  C  C114  1  0.18050000  0.26470000  0.07170000  1
  C  C115  1  0.48310000  0.26470000  0.07170000  1
  C  C116  1  0.18050000  0.07170000  0.26470000  1
  C  C117  1  0.48310000  0.07170000  0.26470000  1
  C  C118  1  0.13784000  0.23136000  0.08596000  1
  C  C119  1  0.54484000  0.23136000  0.08596000  1
  C  C120  1  0.13784000  0.08596000  0.23136000  1
  C  C121  1  0.54484000  0.08596000  0.23136000  1
  C  C122  1  0.13280000  0.15750000  0.15750000  1
  C  C123  1  0.55220000  0.15750000  0.15750000  1
  C  C124  1  0.07977000  0.45094000  0.84072000  1
  C  C125  1  0.62857000  0.45094000  0.84072000  1
  C  C126  1  0.07977000  0.84072000  0.45094000  1
  C  C127  1  0.62857000  0.84072000  0.45094000  1
  C  C128  1  0.16660000  0.17582000  0.10478000  1
  C  C129  1  0.55280000  0.17582000  0.10478000  1
  C  C130  1  0.16660000  0.10478000  0.17582000  1
  C  C131  1  0.55280000  0.10478000  0.17582000  1
  C  C132  1  0.02230000  0.44700000  0.82220000  1
  C  C133  1  0.70850000  0.44700000  0.82220000  1
  C  C134  1  0.02230000  0.82220000  0.44700000  1
  C  C135  1  0.70850000  0.82220000  0.44700000  1
  C  C136  1  0.15641000  0.43809000  0.80829000  1
  C  C137  1  0.59721000  0.43809000  0.80829000  1
  C  C138  1  0.15641000  0.80829000  0.43809000  1
  C  C139  1  0.59721000  0.80829000  0.43809000  1
  C  C140  1  0.24467000  0.14121000  0.06965000  1
  C  C141  1  0.54447000  0.14121000  0.06965000  1
  C  C142  1  0.24467000  0.06965000  0.14121000  1
  C  C143  1  0.54447000  0.06965000  0.14121000  1
  C  C144  1  0.05330000  0.42900000  0.76660000  1
  C  C145  1  0.75110000  0.42900000  0.76660000  1
  C  C146  1  0.05330000  0.76660000  0.42900000  1
  C  C147  1  0.75110000  0.76660000  0.42900000  1
  C  C148  1  0.28020000  0.08840000  0.08840000  1
  C  C149  1  0.54300000  0.08840000  0.08840000  1
  C  C150  1  0.17410000  0.41850000  0.75490000  1
  C  C151  1  0.65250000  0.41850000  0.75490000  1
  C  C152  1  0.17410000  0.75490000  0.41850000  1
  C  C153  1  0.65250000  0.75490000  0.41850000  1
  C  C154  1  0.12802000  0.41535000  0.73321000  1
  C  C155  1  0.72342000  0.41535000  0.73321000  1
  C  C156  1  0.12802000  0.73321000  0.41535000  1
  C  C157  1  0.72342000  0.73321000  0.41535000  1
  C  C158  1  0.35630000  0.05310000  0.05310000  1
  C  C159  1  0.53750000  0.05310000  0.05310000  1
  C  C160  1  0.15439000  0.39531000  0.67651000  1
  C  C161  1  0.77379000  0.39531000  0.67651000  1
  C  C162  1  0.15439000  0.67651000  0.39531000  1
  C  C163  1  0.77379000  0.67651000  0.39531000  1
  C  C164  1  0.11635000  0.42791000  0.64139000  1
  C  C165  1  0.81435000  0.42791000  0.64139000  1
  C  C166  1  0.11635000  0.64139000  0.42791000  1
  C  C167  1  0.81435000  0.64139000  0.42791000  1
  Cu  Cu168  1  0.50000000  0.96178000  0.03822000  1
  Cu  Cu169  1  0.50000000  0.03822000  0.96178000  1
  Cu  Cu170  1  0.03829000  0.46171000  0.46171000  1
  Cu  Cu171  1  0.93196000  0.49884000  0.00800000  1
  Cu  Cu172  1  0.56120000  0.49884000  0.00800000  1
  Cu  Cu173  1  0.93196000  0.00800000  0.49884000  1
  Cu  Cu174  1  0.56120000  0.00800000  0.49884000  1
  Cu  Cu175  1  0.06804000  0.50116000  0.99200000  1
  Cu  Cu176  1  0.43880000  0.50116000  0.99200000  1
  Cu  Cu177  1  0.06804000  0.99200000  0.50116000  1
  Cu  Cu178  1  0.43880000  0.99200000  0.50116000  1
  Cu  Cu179  1  0.96171000  0.53829000  0.53829000  1
  H  H180  1  0.75600000  0.67100000  0.28500000  1
  H  H181  1  0.28800000  0.67100000  0.28500000  1
  H  H182  1  0.75600000  0.28500000  0.67100000  1
  H  H183  1  0.28800000  0.28500000  0.67100000  1
  H  H184  1  0.92050000  0.53720000  0.34660000  1
  H  H185  1  0.19570000  0.53720000  0.34660000  1
  H  H186  1  0.92050000  0.34660000  0.53720000  1
  H  H187  1  0.19570000  0.34660000  0.53720000  1
  H  H188  1  0.77360000  0.59350000  0.26730000  1
  H  H189  1  0.36560000  0.59350000  0.26730000  1
  H  H190  1  0.77360000  0.26730000  0.59350000  1
  H  H191  1  0.36560000  0.26730000  0.59350000  1
  H  H192  1  0.98130000  0.57350000  0.24810000  1
  H  H193  1  0.19710000  0.57350000  0.24810000  1
  H  H194  1  0.98130000  0.24810000  0.57350000  1
  H  H195  1  0.19710000  0.24810000  0.57350000  1
  H  H196  1  0.73690000  0.85230000  0.96790000  1
  H  H197  1  0.44290000  0.85230000  0.96790000  1
  H  H198  1  0.73690000  0.96790000  0.85230000  1
  H  H199  1  0.44290000  0.96790000  0.85230000  1
  H  H200  1  0.80680000  0.55840000  0.18000000  1
  H  H201  1  0.45480000  0.55840000  0.18000000  1
  H  H202  1  0.80680000  0.18000000  0.55840000  1
  H  H203  1  0.45480000  0.18000000  0.55840000  1
  H  H204  1  0.02990000  0.54450000  0.15550000  1
  H  H205  1  0.27010000  0.54450000  0.15550000  1
  H  H206  1  0.02990000  0.15550000  0.54450000  1
  H  H207  1  0.27010000  0.15550000  0.54450000  1
  H  H208  1  0.77210000  0.74990000  0.92290000  1
  H  H209  1  0.55510000  0.74990000  0.92290000  1
  H  H210  1  0.77210000  0.92290000  0.74990000  1
  H  H211  1  0.55510000  0.92290000  0.74990000  1
  H  H212  1  0.96520000  0.76680000  0.90580000  1
  H  H213  1  0.36220000  0.76680000  0.90580000  1
  H  H214  1  0.96520000  0.90580000  0.76680000  1
  H  H215  1  0.36220000  0.90580000  0.76680000  1
  H  H216  1  0.80560000  0.66010000  0.96330000  1
  H  H217  1  0.57100000  0.66010000  0.96330000  1
  H  H218  1  0.80560000  0.96330000  0.66010000  1
  H  H219  1  0.57100000  0.96330000  0.66010000  1
  H  H220  1  0.02100000  0.67600000  0.93980000  1
  H  H221  1  0.36320000  0.67600000  0.93980000  1
  H  H222  1  0.02100000  0.93980000  0.67600000  1
  H  H223  1  0.36320000  0.93980000  0.67600000  1
  H  H224  1  0.96800000  0.77900000  0.83300000  1
  H  H225  1  0.42000000  0.77900000  0.83300000  1
  H  H226  1  0.96800000  0.83300000  0.77900000  1
  H  H227  1  0.42000000  0.83300000  0.77900000  1
  H  H228  1  0.03200000  0.22100000  0.16700000  1
  H  H229  1  0.58000000  0.22100000  0.16700000  1
  H  H230  1  0.03200000  0.16700000  0.22100000  1
  H  H231  1  0.58000000  0.16700000  0.22100000  1
  H  H232  1  0.97900000  0.32400000  0.06020000  1
  H  H233  1  0.63680000  0.32400000  0.06020000  1
  H  H234  1  0.97900000  0.06020000  0.32400000  1
  H  H235  1  0.63680000  0.06020000  0.32400000  1
  H  H236  1  0.19440000  0.33990000  0.03670000  1
  H  H237  1  0.42900000  0.33990000  0.03670000  1
  H  H238  1  0.19440000  0.03670000  0.33990000  1
  H  H239  1  0.42900000  0.03670000  0.33990000  1
  H  H240  1  0.03480000  0.23320000  0.09420000  1
  H  H241  1  0.63780000  0.23320000  0.09420000  1
  H  H242  1  0.03480000  0.09420000  0.23320000  1
  H  H243  1  0.63780000  0.09420000  0.23320000  1
  H  H244  1  0.22790000  0.25010000  0.07710000  1
  H  H245  1  0.44490000  0.25010000  0.07710000  1
  H  H246  1  0.22790000  0.07710000  0.25010000  1
  H  H247  1  0.44490000  0.07710000  0.25010000  1
  H  H248  1  0.97010000  0.45550000  0.84450000  1
  H  H249  1  0.72990000  0.45550000  0.84450000  1
  H  H250  1  0.97010000  0.84450000  0.45550000  1
  H  H251  1  0.72990000  0.84450000  0.45550000  1
  H  H252  1  0.19320000  0.44160000  0.82000000  1
  H  H253  1  0.54520000  0.44160000  0.82000000  1
  H  H254  1  0.19320000  0.82000000  0.44160000  1
  H  H255  1  0.54520000  0.82000000  0.44160000  1
  H  H256  1  0.26310000  0.14770000  0.03210000  1
  H  H257  1  0.55710000  0.14770000  0.03210000  1
  H  H258  1  0.26310000  0.03210000  0.14770000  1
  H  H259  1  0.55710000  0.03210000  0.14770000  1
  H  H260  1  0.01870000  0.42650000  0.75190000  1
  H  H261  1  0.80290000  0.42650000  0.75190000  1
  H  H262  1  0.01870000  0.75190000  0.42650000  1
  H  H263  1  0.80290000  0.75190000  0.42650000  1
  H  H264  1  0.22640000  0.40650000  0.73270000  1
  H  H265  1  0.63440000  0.40650000  0.73270000  1
  H  H266  1  0.22640000  0.73270000  0.40650000  1
  H  H267  1  0.63440000  0.73270000  0.40650000  1
  H  H268  1  0.07950000  0.46280000  0.65340000  1
  H  H269  1  0.80430000  0.46280000  0.65340000  1
  H  H270  1  0.07950000  0.65340000  0.46280000  1
  H  H271  1  0.80430000  0.65340000  0.46280000  1
  H  H272  1  0.24400000  0.32900000  0.71500000  1
  H  H273  1  0.71200000  0.32900000  0.71500000  1
  H  H274  1  0.24400000  0.71500000  0.32900000  1
  H  H275  1  0.71200000  0.71500000  0.32900000  1
  N  N276  1  0.75140000  0.69130000  0.30870000  1
  N  N277  1  0.24860000  0.69130000  0.30870000  1
  N  N278  1  0.75140000  0.30870000  0.69130000  1
  N  N279  1  0.24860000  0.30870000  0.69130000  1
  N  N280  1  0.94370000  0.80830000  0.80830000  1
  N  N281  1  0.43970000  0.80830000  0.80830000  1
  N  N282  1  0.05630000  0.19170000  0.19170000  1
  N  N283  1  0.56030000  0.19170000  0.19170000  1
  O  O284  1  0.96542000  0.50764000  0.42612000  1
  O  O285  1  0.10082000  0.50764000  0.42612000  1
  O  O286  1  0.96542000  0.42612000  0.50764000  1
  O  O287  1  0.10082000  0.42612000  0.50764000  1
  O  O288  1  0.60758000  0.92543000  0.99141000  1
  O  O289  1  0.47558000  0.92543000  0.99141000  1
  O  O290  1  0.60758000  0.99141000  0.92543000  1
  O  O291  1  0.47558000  0.99141000  0.92543000  1
  O  O292  1  0.89715000  0.52167000  0.08263000  1
  O  O293  1  0.49855000  0.52167000  0.08263000  1
  O  O294  1  0.89715000  0.08263000  0.52167000  1
  O  O295  1  0.49855000  0.08263000  0.52167000  1
  O  O296  1  0.02087000  0.52356000  0.06830000  1
  O  O297  1  0.38727000  0.52356000  0.06830000  1
  O  O298  1  0.02087000  0.06830000  0.52356000  1
  O  O299  1  0.38727000  0.06830000  0.52356000  1
  O  O300  1  0.91009000  0.57922000  0.98400000  1
  O  O301  1  0.52669000  0.57922000  0.98400000  1
  O  O302  1  0.91009000  0.98400000  0.57922000  1
  O  O303  1  0.52669000  0.98400000  0.57922000  1
  O  O304  1  0.02981000  0.57688000  0.97090000  1
  O  O305  1  0.42241000  0.57688000  0.97090000  1
  O  O306  1  0.02981000  0.97090000  0.57688000  1
  O  O307  1  0.42241000  0.97090000  0.57688000  1
  O  O308  1  0.97019000  0.42312000  0.02910000  1
  O  O309  1  0.57759000  0.42312000  0.02910000  1
  O  O310  1  0.97019000  0.02910000  0.42312000  1
  O  O311  1  0.57759000  0.02910000  0.42312000  1
  O  O312  1  0.08991000  0.42078000  0.01600000  1
  O  O313  1  0.47331000  0.42078000  0.01600000  1
  O  O314  1  0.08991000  0.01600000  0.42078000  1
  O  O315  1  0.47331000  0.01600000  0.42078000  1
  O  O316  1  0.97913000  0.47644000  0.93170000  1
  O  O317  1  0.61273000  0.47644000  0.93170000  1
  O  O318  1  0.97913000  0.93170000  0.47644000  1
  O  O319  1  0.61273000  0.93170000  0.47644000  1
  O  O320  1  0.10285000  0.47833000  0.91737000  1
  O  O321  1  0.50145000  0.47833000  0.91737000  1
  O  O322  1  0.10285000  0.91737000  0.47833000  1
  O  O323  1  0.50145000  0.91737000  0.47833000  1
  O  O324  1  0.39242000  0.07457000  0.00859000  1
  O  O325  1  0.52442000  0.07457000  0.00859000  1
  O  O326  1  0.39242000  0.00859000  0.07457000  1
  O  O327  1  0.52442000  0.00859000  0.07457000  1
  O  O328  1  0.03458000  0.49236000  0.57388000  1
  O  O329  1  0.89918000  0.49236000  0.57388000  1
  O  O330  1  0.03458000  0.57388000  0.49236000  1
  O  O331  1  0.89918000  0.57388000  0.49236000  1
