# generated using pymatgen
data_NiH14C22N3O4
_symmetry_space_group_name_H-M   'P 1'
_cell_length_a   11.74366405
_cell_length_b   11.74366405
_cell_length_c   16.74000000
_cell_angle_alpha   76.61261733
_cell_angle_beta   76.61261733
_cell_angle_gamma   85.54508255
_symmetry_Int_Tables_number   1
_chemical_formula_structural   NiH14C22N3O4
_chemical_formula_sum   'Ni4 H56 C88 N12 O16'
_cell_volume   2184.20476951
_cell_formula_units_Z   4
loop_
 _symmetry_equiv_pos_site_id
 _symmetry_equiv_pos_as_xyz
  1  'x, y, z'
loop_
 _atom_site_type_symbol
 _atom_site_label
 _atom_site_symmetry_multiplicity
 _atom_site_fract_x
 _atom_site_fract_y
 _atom_site_fract_z
 _atom_site_occupancy
  C  C0  1  0.22530000  0.78430000  0.06060000  1
  C  C1  1  0.78430000  0.22530000  0.56060000  1
  C  C2  1  0.13790000  0.87630000  0.94500000  1
  C  C3  1  0.87630000  0.13790000  0.44500000  1
  C  C4  1  0.46440000  0.57540000  0.08940000  1
  C  C5  1  0.57540000  0.46440000  0.58940000  1
  C  C6  1  0.51440000  0.52600000  0.53300000  1
  C  C7  1  0.52600000  0.51440000  0.03300000  1
  C  C8  1  0.23690000  0.84990000  0.97890000  1
  C  C9  1  0.84990000  0.23690000  0.47890000  1
  C  C10  1  0.47880000  0.63580000  0.54200000  1
  C  C11  1  0.63580000  0.47880000  0.04200000  1
  C  C12  1  0.51060000  0.60500000  0.14950000  1
  C  C13  1  0.60500000  0.51060000  0.64950000  1
  C  C14  1  0.16220000  0.97180000  0.50840000  1
  C  C15  1  0.97180000  0.16220000  0.00840000  1
  C  C16  1  0.25820000  0.88120000  0.39270000  1
  C  C17  1  0.88120000  0.25820000  0.89270000  1
  C  C18  1  0.08290000  0.06030000  0.11810000  1
  C  C19  1  0.06030000  0.08290000  0.61810000  1
  C  C20  1  0.50750000  0.68390000  0.60320000  1
  C  C21  1  0.68390000  0.50750000  0.10320000  1
  C  C22  1  0.57120000  0.62180000  0.65620000  1
  C  C23  1  0.62180000  0.57120000  0.15620000  1
  C  C24  1  0.23050000  0.97850000  0.42740000  1
  C  C25  1  0.97850000  0.23050000  0.92740000  1
  C  C26  1  0.13280000  0.07940000  0.54300000  1
  C  C27  1  0.07940000  0.13280000  0.04300000  1
  C  C28  1  0.18430000  0.03830000  0.14590000  1
  C  C29  1  0.03830000  0.18430000  0.64590000  1
  C  C30  1  0.33310000  0.89270000  0.30540000  1
  C  C31  1  0.89270000  0.33310000  0.80540000  1
  C  C32  1  0.35750000  0.88630000  0.92890000  1
  C  C33  1  0.88630000  0.35750000  0.42890000  1
  C  C34  1  0.54130000  0.74850000  0.75960000  1
  C  C35  1  0.74850000  0.54130000  0.25960000  1
  C  C36  1  0.65000000  0.70420000  0.24580000  1
  C  C37  1  0.70420000  0.65000000  0.74580000  1
  C  C38  1  0.18430000  0.17990000  0.00090000  1
  C  C39  1  0.17990000  0.18430000  0.50090000  1
  C  C40  1  0.69720000  0.71600000  0.80350000  1
  C  C41  1  0.71600000  0.69720000  0.30350000  1
  C  C42  1  0.28260000  0.15300000  0.03260000  1
  C  C43  1  0.15300000  0.28260000  0.53260000  1
  C  C44  1  0.71740000  0.84700000  0.96740000  1
  C  C45  1  0.84700000  0.71740000  0.46740000  1
  C  C46  1  0.30280000  0.28400000  0.19650000  1
  C  C47  1  0.28400000  0.30280000  0.69650000  1
  C  C48  1  0.81570000  0.82010000  0.99910000  1
  C  C49  1  0.82010000  0.81570000  0.49910000  1
  C  C50  1  0.35000000  0.29580000  0.75420000  1
  C  C51  1  0.29580000  0.35000000  0.25420000  1
  C  C52  1  0.45870000  0.25150000  0.24040000  1
  C  C53  1  0.25150000  0.45870000  0.74040000  1
  C  C54  1  0.64250000  0.11370000  0.07110000  1
  C  C55  1  0.11370000  0.64250000  0.57110000  1
  C  C56  1  0.66690000  0.10730000  0.69460000  1
  C  C57  1  0.10730000  0.66690000  0.19460000  1
  C  C58  1  0.81570000  0.96170000  0.85410000  1
  C  C59  1  0.96170000  0.81570000  0.35410000  1
  C  C60  1  0.86720000  0.92060000  0.45700000  1
  C  C61  1  0.92060000  0.86720000  0.95700000  1
  C  C62  1  0.76950000  0.02150000  0.57260000  1
  C  C63  1  0.02150000  0.76950000  0.07260000  1
  C  C64  1  0.42880000  0.37820000  0.34380000  1
  C  C65  1  0.37820000  0.42880000  0.84380000  1
  C  C66  1  0.49250000  0.31610000  0.39680000  1
  C  C67  1  0.31610000  0.49250000  0.89680000  1
  C  C68  1  0.91710000  0.93970000  0.88190000  1
  C  C69  1  0.93970000  0.91710000  0.38190000  1
  C  C70  1  0.74180000  0.11880000  0.60730000  1
  C  C71  1  0.11880000  0.74180000  0.10730000  1
  C  C72  1  0.83780000  0.02820000  0.49160000  1
  C  C73  1  0.02820000  0.83780000  0.99160000  1
  C  C74  1  0.48940000  0.39500000  0.85050000  1
  C  C75  1  0.39500000  0.48940000  0.35050000  1
  C  C76  1  0.52120000  0.36420000  0.45800000  1
  C  C77  1  0.36420000  0.52120000  0.95800000  1
  C  C78  1  0.76310000  0.15010000  0.02110000  1
  C  C79  1  0.15010000  0.76310000  0.52110000  1
  C  C80  1  0.48560000  0.47400000  0.46700000  1
  C  C81  1  0.47400000  0.48560000  0.96700000  1
  C  C82  1  0.53560000  0.42460000  0.91060000  1
  C  C83  1  0.42460000  0.53560000  0.41060000  1
  C  C84  1  0.86210000  0.12370000  0.05500000  1
  C  C85  1  0.12370000  0.86210000  0.55500000  1
  C  C86  1  0.77470000  0.21570000  0.93940000  1
  C  C87  1  0.21570000  0.77470000  0.43940000  1
  H  H88  1  0.40200000  0.61260000  0.41300000  1
  H  H89  1  0.61260000  0.40200000  0.91300000  1
  H  H90  1  0.02460000  0.01460000  0.65130000  1
  H  H91  1  0.01460000  0.02460000  0.15130000  1
  H  H92  1  0.29070000  0.76890000  0.08410000  1
  H  H93  1  0.76890000  0.29070000  0.58410000  1
  H  H94  1  0.14530000  0.92030000  0.89020000  1
  H  H95  1  0.92030000  0.14530000  0.39020000  1
  H  H96  1  0.46560000  0.64840000  0.18590000  1
  H  H97  1  0.64840000  0.46560000  0.68590000  1
  H  H98  1  0.43410000  0.68030000  0.50630000  1
  H  H99  1  0.68030000  0.43410000  0.00630000  1
  H  H100  1  0.18180000  0.98680000  0.19770000  1
  H  H101  1  0.98680000  0.18180000  0.69770000  1
  H  H102  1  0.48230000  0.75990000  0.60740000  1
  H  H103  1  0.75990000  0.48230000  0.10740000  1
  H  H104  1  0.46830000  0.77910000  0.75140000  1
  H  H105  1  0.77910000  0.46830000  0.25140000  1
  H  H106  1  0.25830000  0.05090000  0.39570000  1
  H  H107  1  0.05090000  0.25830000  0.89570000  1
  H  H108  1  0.60070000  0.76610000  0.22820000  1
  H  H109  1  0.76610000  0.60070000  0.72820000  1
  H  H110  1  0.23200000  0.18920000  0.44910000  1
  H  H111  1  0.18920000  0.23200000  0.94910000  1
  H  H112  1  0.64780000  0.81380000  0.00030000  1
  H  H113  1  0.81380000  0.64780000  0.50030000  1
  H  H114  1  0.71860000  0.75480000  0.33290000  1
  H  H115  1  0.75480000  0.71860000  0.83290000  1
  H  H116  1  0.28140000  0.24520000  0.66710000  1
  H  H117  1  0.24520000  0.28140000  0.16710000  1
  H  H118  1  0.35220000  0.18620000  0.99970000  1
  H  H119  1  0.18620000  0.35220000  0.49970000  1
  H  H120  1  0.76800000  0.81080000  0.55090000  1
  H  H121  1  0.81080000  0.76800000  0.05090000  1
  H  H122  1  0.39930000  0.23390000  0.77180000  1
  H  H123  1  0.23390000  0.39930000  0.27180000  1
  H  H124  1  0.74170000  0.94910000  0.60430000  1
  H  H125  1  0.94910000  0.74170000  0.10430000  1
  H  H126  1  0.53170000  0.22090000  0.24860000  1
  H  H127  1  0.22090000  0.53170000  0.74860000  1
  H  H128  1  0.51770000  0.24010000  0.39260000  1
  H  H129  1  0.24010000  0.51770000  0.89260000  1
  H  H130  1  0.81820000  0.01320000  0.80230000  1
  H  H131  1  0.01320000  0.81820000  0.30230000  1
  H  H132  1  0.56590000  0.31970000  0.49370000  1
  H  H133  1  0.31970000  0.56590000  0.99370000  1
  H  H134  1  0.53440000  0.35160000  0.81410000  1
  H  H135  1  0.35160000  0.53440000  0.31410000  1
  H  H136  1  0.85470000  0.07970000  0.10980000  1
  H  H137  1  0.07970000  0.85470000  0.60980000  1
  H  H138  1  0.70930000  0.23110000  0.91590000  1
  H  H139  1  0.23110000  0.70930000  0.41590000  1
  H  H140  1  0.97540000  0.98540000  0.34870000  1
  H  H141  1  0.98540000  0.97540000  0.84870000  1
  H  H142  1  0.59800000  0.38740000  0.58700000  1
  H  H143  1  0.38740000  0.59800000  0.08700000  1
  N  N144  1  0.60240000  0.67060000  0.71910000  1
  N  N145  1  0.67060000  0.60240000  0.21910000  1
  N  N146  1  0.28660000  0.08500000  0.10460000  1
  N  N147  1  0.08500000  0.28660000  0.60460000  1
  N  N148  1  0.59450000  0.77750000  0.81200000  1
  N  N149  1  0.77750000  0.59450000  0.31200000  1
  N  N150  1  0.40550000  0.22250000  0.18800000  1
  N  N151  1  0.22250000  0.40550000  0.68800000  1
  N  N152  1  0.71340000  0.91500000  0.89540000  1
  N  N153  1  0.91500000  0.71340000  0.39540000  1
  N  N154  1  0.39760000  0.32940000  0.28090000  1
  N  N155  1  0.32940000  0.39760000  0.78090000  1
  Ni  Ni156  1  0.56075000  0.93445000  0.85150000  1
  Ni  Ni157  1  0.93445000  0.56075000  0.35150000  1
  Ni  Ni158  1  0.43925000  0.06555000  0.14850000  1
  Ni  Ni159  1  0.06555000  0.43925000  0.64850000  1
  O  O160  1  0.35120000  0.80640000  0.27380000  1
  O  O161  1  0.80640000  0.35120000  0.77380000  1
  O  O162  1  0.37470000  0.92830000  0.85065000  1
  O  O163  1  0.92830000  0.37470000  0.35065000  1
  O  O164  1  0.44190000  0.87150000  0.96587000  1
  O  O165  1  0.87150000  0.44190000  0.46587000  1
  O  O166  1  0.37170000  0.99370000  0.27022000  1
  O  O167  1  0.99370000  0.37170000  0.77022000  1
  O  O168  1  0.62830000  0.00630000  0.72978000  1
  O  O169  1  0.00630000  0.62830000  0.22978000  1
  O  O170  1  0.55810000  0.12850000  0.03413000  1
  O  O171  1  0.12850000  0.55810000  0.53413000  1
  O  O172  1  0.62530000  0.07170000  0.14935000  1
  O  O173  1  0.07170000  0.62530000  0.64935000  1
  O  O174  1  0.64880000  0.19360000  0.72620000  1
  O  O175  1  0.19360000  0.64880000  0.22620000  1
