# generated using pymatgen
data_Zn4H36C60O13
_symmetry_space_group_name_H-M   'P 1'
_cell_length_a   23.45200000
_cell_length_b   23.45200000
_cell_length_c   29.69048073
_cell_angle_alpha   66.73768067
_cell_angle_beta   66.73768067
_cell_angle_gamma   60.00000000
_symmetry_Int_Tables_number   1
_chemical_formula_structural   Zn4H36C60O13
_chemical_formula_sum   'Zn16 H144 C240 O52'
_cell_volume   12585.71827904
_cell_formula_units_Z   4
loop_
 _symmetry_equiv_pos_site_id
 _symmetry_equiv_pos_as_xyz
  1  'x, y, z'
loop_
 _atom_site_type_symbol
 _atom_site_label
 _atom_site_symmetry_multiplicity
 _atom_site_fract_x
 _atom_site_fract_y
 _atom_site_fract_z
 _atom_site_occupancy
  C  C0  1  0.75336000  0.37826000  0.79932000  1
  C  C1  1  0.87826000  0.25336000  0.29932000  1
  C  C2  1  0.97575000  0.61194000  0.11240000  1
  C  C3  1  0.11194000  0.47575000  0.61240000  1
  C  C4  1  0.35614000  0.86421000  0.16115000  1
  C  C5  1  0.36421000  0.85614000  0.66115000  1
  C  C6  1  0.57363000  0.36264000  0.08333000  1
  C  C7  1  0.86264000  0.07363000  0.58333000  1
  C  C8  1  0.06693000  0.69483000  0.83841000  1
  C  C9  1  0.19483000  0.56693000  0.33841000  1
  C  C10  1  0.91812000  0.63441000  0.15182000  1
  C  C11  1  0.13441000  0.41812000  0.65182000  1
  C  C12  1  0.69483000  0.39983000  0.83841000  1
  C  C13  1  0.89983000  0.19483000  0.33841000  1
  C  C14  1  0.61194000  0.29991000  0.11240000  1
  C  C15  1  0.79991000  0.11194000  0.61240000  1
  C  C16  1  0.00403000  0.23913000  0.61501000  1
  C  C17  1  0.73913000  0.50403000  0.11501000  1
  C  C18  1  0.29565000  0.91812000  0.15182000  1
  C  C19  1  0.41812000  0.79565000  0.65182000  1
  C  C20  1  0.33645000  0.13045000  0.77155000  1
  C  C21  1  0.63045000  0.83645000  0.27155000  1
  C  C22  1  0.22762000  0.46305000  0.93429000  1
  C  C23  1  0.37826000  0.06906000  0.79932000  1
  C  C24  1  0.56906000  0.87826000  0.29932000  1
  C  C25  1  0.96305000  0.72762000  0.43429000  1
  C  C26  1  0.93802000  0.26952000  0.65464000  1
  C  C27  1  0.76952000  0.43802000  0.15464000  1
  C  C28  1  0.16502000  0.49198000  0.97233000  1
  C  C29  1  0.99198000  0.66502000  0.47233000  1
  C  C30  1  0.82614000  0.31014000  0.73198000  1
  C  C31  1  0.81014000  0.32614000  0.23198000  1
  C  C32  1  0.04402000  0.54662000  0.04478000  1
  C  C33  1  0.04662000  0.54402000  0.54478000  1
  C  C34  1  0.76155000  0.33645000  0.77155000  1
  C  C35  1  0.83645000  0.26155000  0.27155000  1
  C  C36  1  0.98040000  0.57363000  0.08333000  1
  C  C37  1  0.07363000  0.48040000  0.58333000  1
  C  C38  1  0.54662000  0.36458000  0.04478000  1
  C  C39  1  0.86458000  0.04662000  0.54478000  1
  C  C40  1  0.00317000  0.69037000  0.86949000  1
  C  C41  1  0.19037000  0.50317000  0.36949000  1
  C  C42  1  0.49141000  0.42099000  0.03005000  1
  C  C43  1  0.92099000  0.99141000  0.53005000  1
  C  C44  1  0.22912000  0.91447000  0.18284000  1
  C  C45  1  0.41447000  0.72912000  0.68284000  1
  C  C46  1  0.98979000  0.66159000  0.91923000  1
  C  C47  1  0.16159000  0.48979000  0.41923000  1
  C  C48  1  0.31014000  0.13174000  0.73198000  1
  C  C49  1  0.63174000  0.81014000  0.23198000  1
  C  C50  1  0.21911000  0.88213000  0.23417000  1
  C  C51  1  0.38213000  0.71911000  0.73417000  1
  C  C52  1  0.86421000  0.61850000  0.16115000  1
  C  C53  1  0.11850000  0.36421000  0.66115000  1
  C  C54  1  0.64252000  0.38142000  0.84744000  1
  C  C55  1  0.88142000  0.14252000  0.34744000  1
  C  C56  1  0.89649000  0.23259000  0.68383000  1
  C  C57  1  0.73259000  0.39649000  0.18383000  1
  C  C58  1  0.25242000  0.18132000  0.72244000  1
  C  C59  1  0.68132000  0.75242000  0.22244000  1
  C  C60  1  0.11653000  0.46691000  0.99351000  1
  C  C61  1  0.96691000  0.61653000  0.49351000  1
  C  C62  1  0.84382000  0.25242000  0.72244000  1
  C  C63  1  0.75242000  0.34382000  0.22244000  1
  C  C64  1  0.35233000  0.08883000  0.69961000  1
  C  C65  1  0.58883000  0.85233000  0.19961000  1
  C  C66  1  0.57632000  0.31429000  0.02096000  1
  C  C67  1  0.81429000  0.07632000  0.52096000  1
  C  C68  1  0.05755000  0.49141000  0.03005000  1
  C  C69  1  0.99141000  0.55755000  0.53005000  1
  C  C70  1  0.17481000  0.94461000  0.15947000  1
  C  C71  1  0.44461000  0.67481000  0.65947000  1
  C  C72  1  0.72762000  0.87504000  0.43429000  1
  C  C73  1  0.37504000  0.22762000  0.93429000  1
  C  C74  1  0.95144000  0.70974000  0.84558000  1
  C  C75  1  0.20974000  0.45144000  0.34558000  1
  C  C76  1  0.50403000  0.64183000  0.11501000  1
  C  C77  1  0.14183000  0.00403000  0.61501000  1
  C  C78  1  0.46691000  0.42305000  0.99351000  1
  C  C79  1  0.92305000  0.96691000  0.49351000  1
  C  C80  1  0.93113000  0.65613000  0.94611000  1
  C  C81  1  0.15613000  0.43113000  0.44611000  1
  C  C82  1  0.92341000  0.56286000  0.09230000  1
  C  C83  1  0.06286000  0.42341000  0.59230000  1
  C  C84  1  0.71268000  0.30958000  0.78766000  1
  C  C85  1  0.80958000  0.21268000  0.28766000  1
  C  C86  1  0.23259000  0.18709000  0.68383000  1
  C  C87  1  0.68709000  0.73259000  0.18383000  1
  C  C88  1  0.65320000  0.33820000  0.82560000  1
  C  C89  1  0.83820000  0.15320000  0.32560000  1
  C  C90  1  0.16062000  0.87392000  0.26024000  1
  C  C91  1  0.37392000  0.66062000  0.76024000  1
  C  C92  1  0.39649000  0.68709000  0.18383000  1
  C  C93  1  0.18709000  0.89649000  0.68383000  1
  C  C94  1  0.86630000  0.58566000  0.13067000  1
  C  C95  1  0.08566000  0.36630000  0.63067000  1
  C  C96  1  0.61653000  0.92305000  0.49351000  1
  C  C97  1  0.42305000  0.11653000  0.99351000  1
  C  C98  1  0.67200000  0.55640000  0.96000000  1
  C  C99  1  0.05640000  0.17200000  0.46000000  1
  C  C100  1  0.89252000  0.79702000  0.26744000  1
  C  C101  1  0.29702000  0.39252000  0.76744000  1
  C  C102  1  0.33194000  0.08814000  0.66148000  1
  C  C103  1  0.58814000  0.83194000  0.16148000  1
  C  C104  1  0.54826000  0.31652000  0.98682000  1
  C  C105  1  0.81652000  0.04826000  0.48682000  1
  C  C106  1  0.66502000  0.87067000  0.47233000  1
  C  C107  1  0.37067000  0.16502000  0.97233000  1
  C  C108  1  0.89087000  0.70377000  0.87699000  1
  C  C109  1  0.20377000  0.39087000  0.37699000  1
  C  C110  1  0.43802000  0.63782000  0.15464000  1
  C  C111  1  0.13782000  0.93802000  0.65464000  1
  C  C112  1  0.49198000  0.37067000  0.97233000  1
  C  C113  1  0.87067000  0.99198000  0.47233000  1
  C  C114  1  0.26952000  0.13782000  0.65464000  1
  C  C115  1  0.63782000  0.76952000  0.15464000  1
  C  C116  1  0.88000000  0.67840000  0.92790000  1
  C  C117  1  0.17840000  0.38000000  0.42790000  1
  C  C118  1  0.11447000  0.93527000  0.18629000  1
  C  C119  1  0.43527000  0.61447000  0.68629000  1
  C  C120  1  0.34382000  0.68132000  0.22244000  1
  C  C121  1  0.18132000  0.84382000  0.72244000  1
  C  C122  1  0.10763000  0.90003000  0.23891000  1
  C  C123  1  0.40003000  0.60763000  0.73891000  1
  C  C124  1  0.55755000  0.92099000  0.53005000  1
  C  C125  1  0.42099000  0.05755000  0.03005000  1
  C  C126  1  0.93527000  0.76397000  0.18629000  1
  C  C127  1  0.26397000  0.43527000  0.68629000  1
  C  C128  1  0.70377000  0.52837000  0.87699000  1
  C  C129  1  0.02837000  0.20377000  0.37699000  1
  C  C130  1  0.90003000  0.75343000  0.23891000  1
  C  C131  1  0.25343000  0.40003000  0.73891000  1
  C  C132  1  0.67840000  0.51370000  0.92790000  1
  C  C133  1  0.01370000  0.17840000  0.42790000  1
  C  C134  1  0.46305000  0.37504000  0.93429000  1
  C  C135  1  0.87504000  0.96305000  0.43429000  1
  C  C136  1  0.23913000  0.14183000  0.61501000  1
  C  C137  1  0.64183000  0.73913000  0.11501000  1
  C  C138  1  0.81160000  0.67200000  0.96000000  1
  C  C139  1  0.17200000  0.31160000  0.46000000  1
  C  C140  1  0.31652000  0.14840000  0.98682000  1
  C  C141  1  0.64840000  0.81652000  0.48682000  1
  C  C142  1  0.08814000  0.91844000  0.66148000  1
  C  C143  1  0.41844000  0.58814000  0.16148000  1
  C  C144  1  0.04302000  0.89252000  0.26744000  1
  C  C145  1  0.39252000  0.54302000  0.76744000  1
  C  C146  1  0.32614000  0.63174000  0.23198000  1
  C  C147  1  0.13174000  0.82614000  0.73198000  1
  C  C148  1  0.94461000  0.72111000  0.15947000  1
  C  C149  1  0.22111000  0.44461000  0.65947000  1
  C  C150  1  0.54402000  0.86458000  0.54478000  1
  C  C151  1  0.36458000  0.04402000  0.04478000  1
  C  C152  1  0.70974000  0.49324000  0.84558000  1
  C  C153  1  0.99324000  0.20974000  0.34558000  1
  C  C154  1  0.21268000  0.69008000  0.28766000  1
  C  C155  1  0.19008000  0.71268000  0.78766000  1
  C  C156  1  0.58566000  0.41737000  0.13067000  1
  C  C157  1  0.91737000  0.08566000  0.63067000  1
  C  C158  1  0.65613000  0.46663000  0.94611000  1
  C  C159  1  0.96663000  0.15613000  0.44611000  1
  C  C160  1  0.87392000  0.70522000  0.26024000  1
  C  C161  1  0.20522000  0.37392000  0.76024000  1
  C  C162  1  0.31429000  0.08843000  0.02096000  1
  C  C163  1  0.58843000  0.81429000  0.52096000  1
  C  C164  1  0.85614000  0.11850000  0.66115000  1
  C  C165  1  0.61850000  0.35614000  0.16115000  1
  C  C166  1  0.08883000  0.85923000  0.69961000  1
  C  C167  1  0.35923000  0.58883000  0.19961000  1
  C  C168  1  0.38142000  0.12862000  0.84744000  1
  C  C169  1  0.62862000  0.88142000  0.34744000  1
  C  C170  1  0.42341000  0.92143000  0.59230000  1
  C  C171  1  0.42143000  0.92341000  0.09230000  1
  C  C172  1  0.26155000  0.63045000  0.27155000  1
  C  C173  1  0.13045000  0.76155000  0.77155000  1
  C  C174  1  0.33820000  0.18300000  0.82560000  1
  C  C175  1  0.68300000  0.83820000  0.32560000  1
  C  C176  1  0.48040000  0.86264000  0.58333000  1
  C  C177  1  0.36264000  0.98040000  0.08333000  1
  C  C178  1  0.15320000  0.68300000  0.32560000  1
  C  C179  1  0.18300000  0.65320000  0.82560000  1
  C  C180  1  0.56286000  0.42143000  0.09230000  1
  C  C181  1  0.92143000  0.06286000  0.59230000  1
  C  C182  1  0.91447000  0.67357000  0.18284000  1
  C  C183  1  0.17357000  0.41447000  0.68284000  1
  C  C184  1  0.69037000  0.43697000  0.86949000  1
  C  C185  1  0.93697000  0.19037000  0.36949000  1
  C  C186  1  0.71911000  0.16459000  0.73417000  1
  C  C187  1  0.66459000  0.21911000  0.23417000  1
  C  C188  1  0.66062000  0.20522000  0.76024000  1
  C  C189  1  0.70522000  0.16062000  0.26024000  1
  C  C190  1  0.36630000  0.91737000  0.63067000  1
  C  C191  1  0.41737000  0.86630000  0.13067000  1
  C  C192  1  0.66159000  0.42939000  0.91923000  1
  C  C193  1  0.92939000  0.16159000  0.41923000  1
  C  C194  1  0.88213000  0.66459000  0.23417000  1
  C  C195  1  0.16459000  0.38213000  0.73417000  1
  C  C196  1  0.48979000  0.92939000  0.41923000  1
  C  C197  1  0.42939000  0.98979000  0.91923000  1
  C  C198  1  0.79565000  0.13441000  0.65182000  1
  C  C199  1  0.63441000  0.29565000  0.15182000  1
  C  C200  1  0.43113000  0.96663000  0.44611000  1
  C  C201  1  0.46663000  0.93113000  0.94611000  1
  C  C202  1  0.56693000  0.89983000  0.33841000  1
  C  C203  1  0.39983000  0.06693000  0.83841000  1
  C  C204  1  0.30958000  0.19008000  0.78766000  1
  C  C205  1  0.69008000  0.80958000  0.28766000  1
  C  C206  1  0.83194000  0.41844000  0.16148000  1
  C  C207  1  0.91844000  0.33194000  0.66148000  1
  C  C208  1  0.72912000  0.17357000  0.68284000  1
  C  C209  1  0.67357000  0.22912000  0.18284000  1
  C  C210  1  0.25336000  0.56906000  0.29932000  1
  C  C211  1  0.06906000  0.75336000  0.79932000  1
  C  C212  1  0.04826000  0.64840000  0.48682000  1
  C  C213  1  0.14840000  0.54826000  0.98682000  1
  C  C214  1  0.60763000  0.25343000  0.73891000  1
  C  C215  1  0.75343000  0.10763000  0.23891000  1
  C  C216  1  0.50317000  0.93697000  0.36949000  1
  C  C217  1  0.43697000  0.00317000  0.86949000  1
  C  C218  1  0.54302000  0.29702000  0.76744000  1
  C  C219  1  0.79702000  0.04302000  0.26744000  1
  C  C220  1  0.47575000  0.79991000  0.61240000  1
  C  C221  1  0.29991000  0.97575000  0.11240000  1
  C  C222  1  0.38000000  0.01370000  0.42790000  1
  C  C223  1  0.51370000  0.88000000  0.92790000  1
  C  C224  1  0.07632000  0.58843000  0.52096000  1
  C  C225  1  0.08843000  0.57632000  0.02096000  1
  C  C226  1  0.85233000  0.35923000  0.19961000  1
  C  C227  1  0.85923000  0.35233000  0.69961000  1
  C  C228  1  0.45144000  0.99324000  0.34558000  1
  C  C229  1  0.49324000  0.95144000  0.84558000  1
  C  C230  1  0.31160000  0.05640000  0.46000000  1
  C  C231  1  0.55640000  0.81160000  0.96000000  1
  C  C232  1  0.39087000  0.02837000  0.37699000  1
  C  C233  1  0.52837000  0.89087000  0.87699000  1
  C  C234  1  0.14252000  0.62862000  0.34744000  1
  C  C235  1  0.12862000  0.64252000  0.84744000  1
  C  C236  1  0.61447000  0.26397000  0.68629000  1
  C  C237  1  0.76397000  0.11447000  0.18629000  1
  C  C238  1  0.67481000  0.22111000  0.65947000  1
  C  C239  1  0.72111000  0.17481000  0.15947000  1
  H  H240  1  0.64420000  0.39630000  0.93600000  1
  H  H241  1  0.89630000  0.14420000  0.43600000  1
  H  H242  1  0.86610000  0.63040000  0.25070000  1
  H  H243  1  0.13040000  0.36610000  0.75070000  1
  H  H244  1  0.56380000  0.85620000  0.86220000  1
  H  H245  1  0.35620000  0.06380000  0.36220000  1
  H  H246  1  0.79800000  0.08000000  0.17060000  1
  H  H247  1  0.58000000  0.29800000  0.67060000  1
  H  H248  1  0.72390000  0.17930000  0.12620000  1
  H  H249  1  0.67930000  0.22390000  0.62620000  1
  H  H250  1  0.13040000  0.60030000  0.86910000  1
  H  H251  1  0.10030000  0.63040000  0.36910000  1
  H  H252  1  0.35530000  0.82660000  0.18800000  1
  H  H253  1  0.32660000  0.85530000  0.68800000  1
  H  H254  1  0.02350000  0.64420000  0.93600000  1
  H  H255  1  0.14420000  0.52350000  0.43600000  1
  H  H256  1  0.47050000  0.45750000  0.04460000  1
  H  H257  1  0.95750000  0.97050000  0.54460000  1
  H  H258  1  0.62280000  0.25990000  0.10520000  1
  H  H259  1  0.75990000  0.12280000  0.60520000  1
  H  H260  1  0.25280000  0.86610000  0.25070000  1
  H  H261  1  0.36610000  0.75280000  0.75070000  1
  H  H262  1  0.39220000  0.02860000  0.79140000  1
  H  H263  1  0.52860000  0.89220000  0.29140000  1
  H  H264  1  0.22550000  0.21210000  0.74260000  1
  H  H265  1  0.71210000  0.72550000  0.24260000  1
  H  H266  1  0.39600000  0.05920000  0.70360000  1
  H  H267  1  0.55920000  0.89600000  0.20360000  1
  H  H268  1  0.82660000  0.63010000  0.18800000  1
  H  H269  1  0.13010000  0.32660000  0.68800000  1
  H  H270  1  0.40640000  0.72430000  0.17570000  1
  H  H271  1  0.22430000  0.90640000  0.67570000  1
  H  H272  1  0.60030000  0.40020000  0.86910000  1
  H  H273  1  0.90020000  0.10030000  0.36910000  1
  H  H274  1  0.61630000  0.27760000  0.02750000  1
  H  H275  1  0.77760000  0.11630000  0.52750000  1
  H  H276  1  0.62330000  0.96280000  0.48280000  1
  H  H277  1  0.46280000  0.12330000  0.98280000  1
  H  H278  1  0.17930000  0.97060000  0.12620000  1
  H  H279  1  0.47060000  0.67930000  0.62620000  1
  H  H280  1  0.95790000  0.72560000  0.81060000  1
  H  H281  1  0.22560000  0.45790000  0.31060000  1
  H  H282  1  0.90640000  0.19360000  0.67570000  1
  H  H283  1  0.69360000  0.40640000  0.17570000  1
  H  H284  1  0.96280000  0.93110000  0.48280000  1
  H  H285  1  0.43110000  0.46280000  0.98280000  1
  H  H286  1  0.92680000  0.63460000  0.98040000  1
  H  H287  1  0.13460000  0.42680000  0.48040000  1
  H  H288  1  0.12330000  0.43110000  0.98280000  1
  H  H289  1  0.93110000  0.62330000  0.48280000  1
  H  H290  1  0.81980000  0.22550000  0.74260000  1
  H  H291  1  0.72550000  0.31980000  0.24260000  1
  H  H292  1  0.15620000  0.84960000  0.29390000  1
  H  H293  1  0.34960000  0.65620000  0.79390000  1
  H  H294  1  0.72430000  0.69360000  0.17570000  1
  H  H295  1  0.19360000  0.22430000  0.67570000  1
  H  H296  1  0.29800000  0.45140000  0.67060000  1
  H  H297  1  0.95140000  0.79800000  0.17060000  1
  H  H298  1  0.02740000  0.47050000  0.04460000  1
  H  H299  1  0.97050000  0.52740000  0.54460000  1
  H  H300  1  0.31980000  0.71210000  0.24260000  1
  H  H301  1  0.21210000  0.81980000  0.74260000  1
  H  H302  1  0.06380000  0.21780000  0.36220000  1
  H  H303  1  0.71780000  0.56380000  0.86220000  1
  H  H304  1  0.52740000  0.95750000  0.54460000  1
  H  H305  1  0.45750000  0.02740000  0.04460000  1
  H  H306  1  0.92340000  0.54040000  0.07250000  1
  H  H307  1  0.04040000  0.42340000  0.57250000  1
  H  H308  1  0.71840000  0.27610000  0.77500000  1
  H  H309  1  0.77610000  0.21840000  0.27500000  1
  H  H310  1  0.35880000  0.05640000  0.64210000  1
  H  H311  1  0.55640000  0.85880000  0.14210000  1
  H  H312  1  0.61880000  0.32370000  0.83520000  1
  H  H313  1  0.82370000  0.11880000  0.33520000  1
  H  H314  1  0.82840000  0.57850000  0.13580000  1
  H  H315  1  0.07850000  0.32840000  0.63580000  1
  H  H316  1  0.56860000  0.27950000  0.97290000  1
  H  H317  1  0.77950000  0.06860000  0.47290000  1
  H  H318  1  0.85620000  0.71780000  0.86220000  1
  H  H319  1  0.21780000  0.35620000  0.36220000  1
  H  H320  1  0.08000000  0.95140000  0.17060000  1
  H  H321  1  0.45140000  0.58000000  0.67060000  1
  H  H322  1  0.21840000  0.73050000  0.27500000  1
  H  H323  1  0.23050000  0.71840000  0.77500000  1
  H  H324  1  0.57850000  0.45730000  0.13580000  1
  H  H325  1  0.95730000  0.07850000  0.63580000  1
  H  H326  1  0.22390000  0.47060000  0.62620000  1
  H  H327  1  0.97060000  0.72390000  0.12620000  1
  H  H328  1  0.85530000  0.13010000  0.68800000  1
  H  H329  1  0.63010000  0.35530000  0.18800000  1
  H  H330  1  0.63040000  0.90020000  0.36910000  1
  H  H331  1  0.40020000  0.13040000  0.86910000  1
  H  H332  1  0.27950000  0.17900000  0.97290000  1
  H  H333  1  0.67900000  0.77950000  0.47290000  1
  H  H334  1  0.72560000  0.50590000  0.81060000  1
  H  H335  1  0.00590000  0.22560000  0.31060000  1
  H  H336  1  0.32370000  0.22230000  0.83520000  1
  H  H337  1  0.72230000  0.82370000  0.33520000  1
  H  H338  1  0.42340000  0.96370000  0.57250000  1
  H  H339  1  0.46370000  0.92340000  0.07250000  1
  H  H340  1  0.05640000  0.94270000  0.64210000  1
  H  H341  1  0.44270000  0.55640000  0.14210000  1
  H  H342  1  0.63460000  0.45820000  0.98040000  1
  H  H343  1  0.95820000  0.13460000  0.48040000  1
  H  H344  1  0.84960000  0.70030000  0.29390000  1
  H  H345  1  0.20030000  0.34960000  0.79390000  1
  H  H346  1  0.11880000  0.72230000  0.33520000  1
  H  H347  1  0.22230000  0.61880000  0.83520000  1
  H  H348  1  0.85880000  0.44270000  0.14210000  1
  H  H349  1  0.94270000  0.35880000  0.64210000  1
  H  H350  1  0.06860000  0.67900000  0.47290000  1
  H  H351  1  0.17900000  0.56860000  0.97290000  1
  H  H352  1  0.54040000  0.46370000  0.07250000  1
  H  H353  1  0.96370000  0.04040000  0.57250000  1
  H  H354  1  0.65620000  0.20030000  0.79390000  1
  H  H355  1  0.70030000  0.15620000  0.29390000  1
  H  H356  1  0.75280000  0.13040000  0.75070000  1
  H  H357  1  0.63040000  0.25280000  0.25070000  1
  H  H358  1  0.11630000  0.57860000  0.52750000  1
  H  H359  1  0.07860000  0.61630000  0.02750000  1
  H  H360  1  0.52350000  0.89630000  0.43600000  1
  H  H361  1  0.39630000  0.02350000  0.93600000  1
  H  H362  1  0.32840000  0.95730000  0.63580000  1
  H  H363  1  0.45730000  0.82840000  0.13580000  1
  H  H364  1  0.27760000  0.07860000  0.02750000  1
  H  H365  1  0.57860000  0.77760000  0.52750000  1
  H  H366  1  0.89220000  0.28780000  0.29140000  1
  H  H367  1  0.78780000  0.39220000  0.79140000  1
  H  H368  1  0.89600000  0.34120000  0.20360000  1
  H  H369  1  0.84120000  0.39600000  0.70360000  1
  H  H370  1  0.42680000  0.95820000  0.48040000  1
  H  H371  1  0.45820000  0.92680000  0.98040000  1
  H  H372  1  0.12280000  0.51210000  0.60520000  1
  H  H373  1  0.01210000  0.62280000  0.10520000  1
  H  H374  1  0.05920000  0.84120000  0.70360000  1
  H  H375  1  0.34120000  0.55920000  0.20360000  1
  H  H376  1  0.27610000  0.23050000  0.77500000  1
  H  H377  1  0.73050000  0.77610000  0.27500000  1
  H  H378  1  0.02860000  0.78780000  0.79140000  1
  H  H379  1  0.28780000  0.52860000  0.29140000  1
  H  H380  1  0.25990000  0.01210000  0.10520000  1
  H  H381  1  0.51210000  0.75990000  0.60520000  1
  H  H382  1  0.45790000  0.00590000  0.31060000  1
  H  H383  1  0.50590000  0.95790000  0.81060000  1
  O  O384  1  0.15756000  0.15756000  0.52732000  1
  O  O385  1  0.38389667  0.38389667  0.84831000  1
  O  O386  1  0.65756000  0.65756000  0.02732000  1
  O  O387  1  0.88389667  0.88389667  0.34831000  1
  O  O388  1  0.60091000  0.76651000  0.94047000  1
  O  O389  1  0.26651000  0.10091000  0.44047000  1
  O  O390  1  0.51403000  0.69353000  0.10856000  1
  O  O391  1  0.19353000  0.01403000  0.60856000  1
  O  O392  1  0.73382000  0.92888000  0.42076000  1
  O  O393  1  0.42888000  0.23382000  0.92076000  1
  O  O394  1  0.01403000  0.18388000  0.60856000  1
  O  O395  1  0.68388000  0.51403000  0.10856000  1
  O  O396  1  0.23382000  0.41654000  0.92076000  1
  O  O397  1  0.91654000  0.73382000  0.42076000  1
  O  O398  1  0.91669000  0.84315000  0.24455000  1
  O  O399  1  0.34315000  0.41669000  0.74455000  1
  O  O400  1  0.10091000  0.19211000  0.44047000  1
  O  O401  1  0.69211000  0.60091000  0.94047000  1
  O  O402  1  0.32313000  0.26828000  0.91542000  1
  O  O403  1  0.76828000  0.82313000  0.41542000  1
  O  O404  1  0.09322000  0.04228000  0.59653000  1
  O  O405  1  0.54228000  0.59322000  0.09653000  1
  O  O406  1  0.86767000  0.78018000  0.31643000  1
  O  O407  1  0.28018000  0.36767000  0.81643000  1
  O  O408  1  0.65159000  0.53316000  0.00914000  1
  O  O409  1  0.03316000  0.15159000  0.50914000  1
  O  O410  1  0.80611000  0.65159000  0.00914000  1
  O  O411  1  0.15159000  0.30611000  0.50914000  1
  O  O412  1  0.92888000  0.91654000  0.42076000  1
  O  O413  1  0.41654000  0.42888000  0.92076000  1
  O  O414  1  0.69353000  0.68388000  0.10856000  1
  O  O415  1  0.18388000  0.19353000  0.60856000  1
  O  O416  1  0.03572000  0.86767000  0.31643000  1
  O  O417  1  0.36767000  0.53572000  0.81643000  1
  O  O418  1  0.49317000  0.32313000  0.91542000  1
  O  O419  1  0.82313000  0.99317000  0.41542000  1
  O  O420  1  0.26797000  0.09322000  0.59653000  1
  O  O421  1  0.59322000  0.76797000  0.09653000  1
  O  O422  1  0.76651000  0.69211000  0.94047000  1
  O  O423  1  0.19211000  0.26651000  0.44047000  1
  O  O424  1  0.99561000  0.91669000  0.24455000  1
  O  O425  1  0.41669000  0.49561000  0.74455000  1
  O  O426  1  0.76797000  0.54228000  0.09653000  1
  O  O427  1  0.04228000  0.26797000  0.59653000  1
  O  O428  1  0.99317000  0.76828000  0.41542000  1
  O  O429  1  0.26828000  0.49317000  0.91542000  1
  O  O430  1  0.53572000  0.28018000  0.81643000  1
  O  O431  1  0.78018000  0.03572000  0.31643000  1
  O  O432  1  0.30611000  0.03316000  0.50914000  1
  O  O433  1  0.53316000  0.80611000  0.00914000  1
  O  O434  1  0.49561000  0.34315000  0.74455000  1
  O  O435  1  0.84315000  0.99561000  0.24455000  1
  Zn  Zn436  1  0.18239333  0.18239333  0.45282000  1
  Zn  Zn437  1  0.40855333  0.40855333  0.77434000  1
  Zn  Zn438  1  0.68239333  0.68239333  0.95282000  1
  Zn  Zn439  1  0.90855333  0.90855333  0.27434000  1
  Zn  Zn440  1  0.63579333  0.57823000  0.05510000  1
  Zn  Zn441  1  0.07823000  0.13579333  0.55510000  1
  Zn  Zn442  1  0.86265667  0.80470667  0.37272000  1
  Zn  Zn443  1  0.30470667  0.36265667  0.87272000  1
  Zn  Zn444  1  0.95991667  0.86265667  0.37272000  1
  Zn  Zn445  1  0.36265667  0.45991667  0.87272000  1
  Zn  Zn446  1  0.73087667  0.63579333  0.05510000  1
  Zn  Zn447  1  0.13579333  0.23087667  0.55510000  1
  Zn  Zn448  1  0.45991667  0.30470667  0.87272000  1
  Zn  Zn449  1  0.80470667  0.95991667  0.37272000  1
  Zn  Zn450  1  0.23087667  0.07823000  0.55510000  1
  Zn  Zn451  1  0.57823000  0.73087667  0.05510000  1
