# generated using pymatgen
data_ZnH11C14NO3
_symmetry_space_group_name_H-M   'P 1'
_cell_length_a   12.84600000
_cell_length_b   18.88845386
_cell_length_c   18.88845386
_cell_angle_alpha   115.01851524
_cell_angle_beta   103.10282554
_cell_angle_gamma   103.10282554
_symmetry_Int_Tables_number   1
_chemical_formula_structural   ZnH11C14NO3
_chemical_formula_sum   'Zn6 H66 C84 N6 O18'
_cell_volume   3765.11184274
_cell_formula_units_Z   6
loop_
 _symmetry_equiv_pos_site_id
 _symmetry_equiv_pos_as_xyz
  1  'x, y, z'
loop_
 _atom_site_type_symbol
 _atom_site_label
 _atom_site_symmetry_multiplicity
 _atom_site_fract_x
 _atom_site_fract_y
 _atom_site_fract_z
 _atom_site_occupancy
  C  C0  1  0.98701000  0.48390000  0.52793000  1
  C  C1  1  0.85595000  0.43072000  0.58183000  1
  C  C2  1  0.12322000  0.54150000  0.47226000  1
  C  C3  1  0.07211000  0.47845000  0.58438000  1
  C  C4  1  0.05559000  0.74906000  0.31571000  1
  C  C5  1  0.04446000  0.45047000  0.63651000  1
  C  C6  1  0.73988000  0.68429000  0.43335000  1
  C  C7  1  0.18693000  0.24816000  0.87253000  1
  C  C8  1  0.07816000  0.83565000  0.33073000  1
  C  C9  1  0.74743000  0.66927000  0.50492000  1
  C  C10  1  0.40795000  0.36349000  0.81396000  1
  C  C11  1  0.11023000  0.28613000  0.89576000  1
  C  C12  1  0.69347000  0.43335000  0.74906000  1
  C  C13  1  0.16973000  0.87622000  0.32307000  1
  C  C14  1  0.29210000  0.27120000  0.93040000  1
  C  C15  1  0.84666000  0.67693000  0.55315000  1
  C  C16  1  0.40601000  0.81396000  0.45047000  1
  C  C17  1  0.27412000  0.41817000  0.84889000  1
  C  C18  1  0.79154000  0.62843000  0.65019000  1
  C  C19  1  0.57477000  0.84889000  0.43072000  1
  C  C20  1  0.87237000  0.66145000  0.62326000  1
  C  C21  1  0.21092000  0.96181000  0.33855000  1
  C  C22  1  0.48773000  0.41562000  0.89407000  1
  C  C23  1  0.31083000  0.98802000  0.32257000  1
  C  C24  1  0.82410000  0.60963000  0.71387000  1
  C  C25  1  0.14135000  0.34981000  0.97824000  1
  C  C26  1  0.75749000  0.50492000  0.83565000  1
  C  C27  1  0.98826000  0.67743000  0.66545000  1
  C  C28  1  0.32281000  0.33455000  0.01198000  1
  C  C29  1  0.40634000  0.89407000  0.47845000  1
  C  C30  1  0.93877000  0.62437000  0.75184000  1
  C  C31  1  0.02090000  0.65920000  0.72880000  1
  C  C32  1  0.58172000  0.93076000  0.45850000  1
  C  C33  1  0.16311000  0.02176000  0.37157000  1
  C  C34  1  0.34904000  0.47226000  0.93076000  1
  C  C35  1  0.36170000  0.06960000  0.34080000  1
  C  C36  1  0.24911000  0.37674000  0.03819000  1
  C  C37  1  0.45908000  0.47207000  0.95597000  1
  C  C38  1  0.70649000  0.55315000  0.87622000  1
  C  C39  1  0.49689000  0.95597000  0.48390000  1
  C  C40  1  0.21447000  0.10424000  0.39037000  1
  C  C41  1  0.68560000  0.87253000  0.62437000  1
  C  C42  1  0.31440000  0.12747000  0.37563000  1
  C  C43  1  0.78553000  0.89576000  0.60963000  1
  C  C44  1  0.50311000  0.04403000  0.51610000  1
  C  C45  1  0.29351000  0.44685000  0.12378000  1
  C  C46  1  0.54092000  0.52793000  0.04403000  1
  C  C47  1  0.75089000  0.62326000  0.96181000  1
  C  C48  1  0.63830000  0.93040000  0.65920000  1
  C  C49  1  0.65096000  0.52774000  0.06924000  1
  C  C50  1  0.83689000  0.97824000  0.62843000  1
  C  C51  1  0.41828000  0.06924000  0.54150000  1
  C  C52  1  0.97910000  0.34080000  0.27120000  1
  C  C53  1  0.06123000  0.37563000  0.24816000  1
  C  C54  1  0.59366000  0.10593000  0.52155000  1
  C  C55  1  0.67719000  0.66545000  0.98802000  1
  C  C56  1  0.01174000  0.32257000  0.33455000  1
  C  C57  1  0.24251000  0.49508000  0.16435000  1
  C  C58  1  0.85865000  0.65019000  0.02176000  1
  C  C59  1  0.17590000  0.39037000  0.28613000  1
  C  C60  1  0.68917000  0.01198000  0.67743000  1
  C  C61  1  0.51227000  0.58438000  0.10593000  1
  C  C62  1  0.78908000  0.03819000  0.66145000  1
  C  C63  1  0.12763000  0.33855000  0.37674000  1
  C  C64  1  0.42523000  0.15111000  0.56928000  1
  C  C65  1  0.20846000  0.37157000  0.34981000  1
  C  C66  1  0.72588000  0.58183000  0.15111000  1
  C  C67  1  0.59399000  0.18604000  0.54953000  1
  C  C68  1  0.15334000  0.32307000  0.44685000  1
  C  C69  1  0.70790000  0.72880000  0.06960000  1
  C  C70  1  0.83027000  0.12378000  0.67693000  1
  C  C71  1  0.30653000  0.56665000  0.25094000  1
  C  C72  1  0.88977000  0.71387000  0.10424000  1
  C  C73  1  0.59205000  0.63651000  0.18604000  1
  C  C74  1  0.25257000  0.33073000  0.49508000  1
  C  C75  1  0.92184000  0.16435000  0.66927000  1
  C  C76  1  0.81307000  0.75184000  0.12747000  1
  C  C77  1  0.26012000  0.31571000  0.56665000  1
  C  C78  1  0.95554000  0.54953000  0.36349000  1
  C  C79  1  0.94441000  0.25094000  0.68429000  1
  C  C80  1  0.92789000  0.52155000  0.41562000  1
  C  C81  1  0.87678000  0.45850000  0.52774000  1
  C  C82  1  0.14405000  0.56928000  0.41817000  1
  C  C83  1  0.01299000  0.51610000  0.47207000  1
  H  H84  1  0.21880000  0.58610000  0.41980000  1
  H  H85  1  0.16650000  0.20650000  0.81720000  1
  H  H86  1  0.18340000  0.53980000  0.50900000  1
  H  H87  1  0.14750000  0.49380000  0.58670000  1
  H  H88  1  0.42880000  0.32620000  0.77400000  1
  H  H89  1  0.10260000  0.44780000  0.67380000  1
  H  H90  1  0.03810000  0.26910000  0.85630000  1
  H  H91  1  0.21470000  0.84530000  0.30500000  1
  H  H92  1  0.34260000  0.24470000  0.91520000  1
  H  H93  1  0.68160000  0.65430000  0.51620000  1
  H  H94  1  0.63980000  0.57310000  0.61270000  1
  H  H95  1  0.02730000  0.86190000  0.34570000  1
  H  H96  1  0.34520000  0.77400000  0.44780000  1
  H  H97  1  0.90970000  0.69500000  0.54030000  1
  H  H98  1  0.63270000  0.83370000  0.41390000  1
  H  H99  1  0.34350000  0.94900000  0.29880000  1
  H  H100  1  0.20100000  0.41980000  0.83370000  1
  H  H101  1  0.76900000  0.58720000  0.73090000  1
  H  H102  1  0.56080000  0.41330000  0.90710000  1
  H  H103  1  0.02710000  0.38730000  0.96040000  1
  H  H104  1  0.04470000  0.70120000  0.65020000  1
  H  H105  1  0.83460000  0.51620000  0.86190000  1
  H  H106  1  0.63060000  0.54030000  0.84530000  1
  H  H107  1  0.39450000  0.34980000  0.05100000  1
  H  H108  1  0.34630000  0.90710000  0.49380000  1
  H  H109  1  0.96000000  0.61070000  0.79350000  1
  H  H110  1  0.42740000  0.08480000  0.32950000  1
  H  H111  1  0.09790000  0.67050000  0.75530000  1
  H  H112  1  0.65070000  0.81720000  0.61070000  1
  H  H113  1  0.64360000  0.96920000  0.46020000  1
  H  H114  1  0.81820000  0.85630000  0.58720000  1
  H  H115  1  0.06670000  0.03960000  0.42690000  1
  H  H116  1  0.32560000  0.50900000  0.96920000  1
  H  H117  1  0.67440000  0.49100000  0.03080000  1
  H  H118  1  0.93330000  0.96040000  0.57310000  1
  H  H119  1  0.18180000  0.14370000  0.41280000  1
  H  H120  1  0.35640000  0.03080000  0.53980000  1
  H  H121  1  0.34930000  0.18280000  0.38930000  1
  H  H122  1  0.90210000  0.32950000  0.24470000  1
  H  H123  1  0.57260000  0.91520000  0.67050000  1
  H  H124  1  0.04000000  0.38930000  0.20650000  1
  H  H125  1  0.65370000  0.09290000  0.50620000  1
  H  H126  1  0.60550000  0.65020000  0.94900000  1
  H  H127  1  0.36940000  0.45970000  0.15470000  1
  H  H128  1  0.16540000  0.48380000  0.13810000  1
  H  H129  1  0.95530000  0.29880000  0.34980000  1
  H  H130  1  0.97290000  0.61270000  0.03960000  1
  H  H131  1  0.43920000  0.58670000  0.09290000  1
  H  H132  1  0.23100000  0.41280000  0.26910000  1
  H  H133  1  0.79900000  0.58020000  0.16630000  1
  H  H134  1  0.65650000  0.05100000  0.70120000  1
  H  H135  1  0.36730000  0.16630000  0.58610000  1
  H  H136  1  0.09030000  0.30500000  0.45970000  1
  H  H137  1  0.65480000  0.22600000  0.55220000  1
  H  H138  1  0.97270000  0.13810000  0.65430000  1
  H  H139  1  0.36020000  0.42690000  0.38730000  1
  H  H140  1  0.31840000  0.34570000  0.48380000  1
  H  H141  1  0.65740000  0.75530000  0.08480000  1
  H  H142  1  0.78530000  0.15470000  0.69500000  1
  H  H143  1  0.96190000  0.73090000  0.14370000  1
  H  H144  1  0.89740000  0.55220000  0.32620000  1
  H  H145  1  0.57120000  0.67380000  0.22600000  1
  H  H146  1  0.85250000  0.50620000  0.41330000  1
  H  H147  1  0.81660000  0.46020000  0.49100000  1
  H  H148  1  0.83350000  0.79350000  0.18280000  1
  H  H149  1  0.78120000  0.41390000  0.58020000  1
  N  N150  1  0.93756000  0.42680000  0.63618000  1
  N  N151  1  0.30138000  0.36382000  0.79062000  1
  N  N152  1  0.48924000  0.79062000  0.42680000  1
  N  N153  1  0.51076000  0.20938000  0.57320000  1
  N  N154  1  0.69862000  0.63618000  0.20938000  1
  N  N155  1  0.06244000  0.57320000  0.36382000  1
  O  O156  1  0.95924000  0.70532000  0.30830000  1
  O  O157  1  0.13494000  0.72053000  0.31079000  1
  O  O158  1  0.65094000  0.69170000  0.39702000  1
  O  O159  1  0.82415000  0.68921000  0.40974000  1
  O  O160  1  0.74608000  0.39702000  0.70532000  1
  O  O161  1  0.58559000  0.40974000  0.72053000  1
  O  O162  1  0.68034000  0.61357000  0.61285000  1
  O  O163  1  0.06677000  0.99928000  0.38643000  1
  O  O164  1  0.06749000  0.38715000  0.00072000  1
  O  O165  1  0.93251000  0.61285000  0.99928000  1
  O  O166  1  0.93323000  0.00072000  0.61357000  1
  O  O167  1  0.31966000  0.38643000  0.38715000  1
  O  O168  1  0.41441000  0.59026000  0.27947000  1
  O  O169  1  0.25392000  0.60298000  0.29468000  1
  O  O170  1  0.17585000  0.31079000  0.59026000  1
  O  O171  1  0.34906000  0.30830000  0.60298000  1
  O  O172  1  0.86506000  0.27947000  0.68921000  1
  O  O173  1  0.04076000  0.29468000  0.69170000  1
  Zn  Zn174  1  0.81958667  0.72419000  0.32599000  1
  Zn  Zn175  1  0.49359667  0.67401000  0.39820000  1
  Zn  Zn176  1  0.90460333  0.39820000  0.72419000  1
  Zn  Zn177  1  0.09539667  0.60180000  0.27581000  1
  Zn  Zn178  1  0.50640333  0.32599000  0.60180000  1
  Zn  Zn179  1  0.18041333  0.27581000  0.67401000  1
