# generated using pymatgen
data_MnH2C10(SO2)2
_symmetry_space_group_name_H-M   'P 1'
_cell_length_a   27.71901009
_cell_length_b   27.71901009
_cell_length_c   27.71901009
_cell_angle_alpha   60.00000000
_cell_angle_beta   60.00000000
_cell_angle_gamma   60.00000000
_symmetry_Int_Tables_number   1
_chemical_formula_structural   MnH2C10(SO2)2
_chemical_formula_sum   'Mn24 H48 C240 S48 O96'
_cell_volume   15059.76349858
_cell_formula_units_Z   24
loop_
 _symmetry_equiv_pos_site_id
 _symmetry_equiv_pos_as_xyz
  1  'x, y, z'
loop_
 _atom_site_type_symbol
 _atom_site_label
 _atom_site_symmetry_multiplicity
 _atom_site_fract_x
 _atom_site_fract_y
 _atom_site_fract_z
 _atom_site_occupancy
  C  C0  1  0.99710000  0.90506000  0.64986000  1
  C  C1  1  0.55202000  0.35014000  0.09494000  1
  C  C2  1  0.05202000  0.85014000  0.50290000  1
  C  C3  1  0.40506000  0.49710000  0.14986000  1
  C  C4  1  0.85014000  0.05202000  0.59494000  1
  C  C5  1  0.49710000  0.40506000  0.94798000  1
  C  C6  1  0.90506000  0.99710000  0.44798000  1
  C  C7  1  0.35014000  0.55202000  0.00290000  1
  C  C8  1  0.95584000  0.88904000  0.71112000  1
  C  C9  1  0.55600000  0.28888000  0.11096000  1
  C  C10  1  0.05600000  0.78888000  0.54416000  1
  C  C11  1  0.38904000  0.45584000  0.21112000  1
  C  C12  1  0.78888000  0.05600000  0.61096000  1
  C  C13  1  0.45584000  0.38904000  0.94400000  1
  C  C14  1  0.88904000  0.95584000  0.44400000  1
  C  C15  1  0.28888000  0.55600000  0.04416000  1
  C  C16  1  0.05535000  0.76711000  0.60379000  1
  C  C17  1  0.42625000  0.39621000  0.23289000  1
  C  C18  1  0.89621000  0.92625000  0.73289000  1
  C  C19  1  0.55535000  0.26711000  0.07375000  1
  C  C20  1  0.92625000  0.89621000  0.44465000  1
  C  C21  1  0.26711000  0.55535000  0.10379000  1
  C  C22  1  0.76711000  0.05535000  0.57375000  1
  C  C23  1  0.39621000  0.42625000  0.94465000  1
  C  C24  1  0.05871667  0.70500333  0.62836333  1
  C  C25  1  0.39208333  0.37163667  0.29499667  1
  C  C26  1  0.87163667  0.89208333  0.79499667  1
  C  C27  1  0.55871667  0.20500333  0.10791667  1
  C  C28  1  0.89208333  0.87163667  0.44128333  1
  C  C29  1  0.20500333  0.55871667  0.12836333  1
  C  C30  1  0.70500333  0.05871667  0.60791667  1
  C  C31  1  0.37163667  0.39208333  0.94128333  1
  C  C32  1  0.91033000  0.83479000  0.81427000  1
  C  C33  1  0.55939000  0.18573000  0.16521000  1
  C  C34  1  0.05939000  0.68573000  0.58967000  1
  C  C35  1  0.33479000  0.41033000  0.31427000  1
  C  C36  1  0.68573000  0.05939000  0.66521000  1
  C  C37  1  0.41033000  0.33479000  0.94061000  1
  C  C38  1  0.83479000  0.91033000  0.44061000  1
  C  C39  1  0.18573000  0.55939000  0.08967000  1
  C  C40  1  0.05939000  0.66521000  0.68573000  1
  C  C41  1  0.41033000  0.31427000  0.33479000  1
  C  C42  1  0.81427000  0.91033000  0.83479000  1
  C  C43  1  0.55939000  0.16521000  0.08967000  1
  C  C44  1  0.91033000  0.81427000  0.44061000  1
  C  C45  1  0.16521000  0.55939000  0.18573000  1
  C  C46  1  0.66521000  0.05939000  0.58967000  1
  C  C47  1  0.31427000  0.41033000  0.94061000  1
  C  C48  1  0.89208333  0.79499667  0.87163667  1
  C  C49  1  0.55871667  0.12836333  0.20500333  1
  C  C50  1  0.05871667  0.62836333  0.60791667  1
  C  C51  1  0.29499667  0.39208333  0.37163667  1
  C  C52  1  0.62836333  0.05871667  0.70500333  1
  C  C53  1  0.39208333  0.29499667  0.94128333  1
  C  C54  1  0.79499667  0.89208333  0.44128333  1
  C  C55  1  0.12836333  0.55871667  0.10791667  1
  C  C56  1  0.05600000  0.61096000  0.78888000  1
  C  C57  1  0.45584000  0.21112000  0.38904000  1
  C  C58  1  0.71112000  0.95584000  0.88904000  1
  C  C59  1  0.55600000  0.11096000  0.04416000  1
  C  C60  1  0.95584000  0.71112000  0.44400000  1
  C  C61  1  0.11096000  0.55600000  0.28888000  1
  C  C62  1  0.61096000  0.05600000  0.54416000  1
  C  C63  1  0.21112000  0.45584000  0.94400000  1
  C  C64  1  0.05871667  0.60791667  0.70500333  1
  C  C65  1  0.37163667  0.29499667  0.39208333  1
  C  C66  1  0.79499667  0.87163667  0.89208333  1
  C  C67  1  0.55871667  0.10791667  0.12836333  1
  C  C68  1  0.87163667  0.79499667  0.44128333  1
  C  C69  1  0.10791667  0.55871667  0.20500333  1
  C  C70  1  0.60791667  0.05871667  0.62836333  1
  C  C71  1  0.29499667  0.37163667  0.94128333  1
  C  C72  1  0.92625000  0.73289000  0.89621000  1
  C  C73  1  0.55535000  0.10379000  0.26711000  1
  C  C74  1  0.05535000  0.60379000  0.57375000  1
  C  C75  1  0.23289000  0.42625000  0.39621000  1
  C  C76  1  0.60379000  0.05535000  0.76711000  1
  C  C77  1  0.42625000  0.23289000  0.94465000  1
  C  C78  1  0.73289000  0.92625000  0.44465000  1
  C  C79  1  0.10379000  0.55535000  0.07375000  1
  C  C80  1  0.83479000  0.81427000  0.91033000  1
  C  C81  1  0.55939000  0.08967000  0.18573000  1
  C  C82  1  0.05939000  0.58967000  0.66521000  1
  C  C83  1  0.31427000  0.33479000  0.41033000  1
  C  C84  1  0.58967000  0.05939000  0.68573000  1
  C  C85  1  0.33479000  0.31427000  0.94061000  1
  C  C86  1  0.81427000  0.83479000  0.44061000  1
  C  C87  1  0.08967000  0.55939000  0.16521000  1
  C  C88  1  0.05202000  0.59494000  0.85014000  1
  C  C89  1  0.49710000  0.14986000  0.40506000  1
  C  C90  1  0.64986000  0.99710000  0.90506000  1
  C  C91  1  0.55202000  0.09494000  0.00290000  1
  C  C92  1  0.99710000  0.64986000  0.44798000  1
  C  C93  1  0.09494000  0.55202000  0.35014000  1
  C  C94  1  0.59494000  0.05202000  0.50290000  1
  C  C95  1  0.14986000  0.49710000  0.94798000  1
  C  C96  1  0.05535000  0.57375000  0.76711000  1
  C  C97  1  0.39621000  0.23289000  0.42625000  1
  C  C98  1  0.73289000  0.89621000  0.92625000  1
  C  C99  1  0.55535000  0.07375000  0.10379000  1
  C  C100  1  0.89621000  0.73289000  0.44465000  1
  C  C101  1  0.07375000  0.55535000  0.26711000  1
  C  C102  1  0.57375000  0.05535000  0.60379000  1
  C  C103  1  0.23289000  0.39621000  0.94465000  1
  C  C104  1  0.88904000  0.71112000  0.95584000  1
  C  C105  1  0.55600000  0.04416000  0.28888000  1
  C  C106  1  0.05600000  0.54416000  0.61096000  1
  C  C107  1  0.21112000  0.38904000  0.45584000  1
  C  C108  1  0.54416000  0.05600000  0.78888000  1
  C  C109  1  0.38904000  0.21112000  0.94400000  1
  C  C110  1  0.71112000  0.88904000  0.44400000  1
  C  C111  1  0.04416000  0.55600000  0.11096000  1
  C  C112  1  0.90506000  0.64986000  0.99710000  1
  C  C113  1  0.55202000  0.00290000  0.35014000  1
  C  C114  1  0.05202000  0.50290000  0.59494000  1
  C  C115  1  0.14986000  0.40506000  0.49710000  1
  C  C116  1  0.50290000  0.05202000  0.85014000  1
  C  C117  1  0.40506000  0.14986000  0.94798000  1
  C  C118  1  0.64986000  0.90506000  0.44798000  1
  C  C119  1  0.00290000  0.55202000  0.09494000  1
  C  C120  1  0.99710000  0.44798000  0.90506000  1
  C  C121  1  0.35014000  0.09494000  0.55202000  1
  C  C122  1  0.59494000  0.85014000  0.05202000  1
  C  C123  1  0.49710000  0.94798000  0.14986000  1
  C  C124  1  0.85014000  0.59494000  0.50290000  1
  C  C125  1  0.94798000  0.49710000  0.40506000  1
  C  C126  1  0.44798000  0.99710000  0.64986000  1
  C  C127  1  0.09494000  0.35014000  0.00290000  1
  C  C128  1  0.95584000  0.44400000  0.88904000  1
  C  C129  1  0.28888000  0.11096000  0.55600000  1
  C  C130  1  0.61096000  0.78888000  0.05600000  1
  C  C131  1  0.45584000  0.94400000  0.21112000  1
  C  C132  1  0.78888000  0.61096000  0.54416000  1
  C  C133  1  0.94400000  0.45584000  0.38904000  1
  C  C134  1  0.44400000  0.95584000  0.71112000  1
  C  C135  1  0.11096000  0.28888000  0.04416000  1
  C  C136  1  0.76711000  0.60379000  0.05535000  1
  C  C137  1  0.42625000  0.94465000  0.39621000  1
  C  C138  1  0.92625000  0.44465000  0.73289000  1
  C  C139  1  0.10379000  0.26711000  0.55535000  1
  C  C140  1  0.44465000  0.92625000  0.89621000  1
  C  C141  1  0.26711000  0.10379000  0.07375000  1
  C  C142  1  0.60379000  0.76711000  0.57375000  1
  C  C143  1  0.94465000  0.42625000  0.23289000  1
  C  C144  1  0.85014000  0.50290000  0.05202000  1
  C  C145  1  0.40506000  0.94798000  0.49710000  1
  C  C146  1  0.90506000  0.44798000  0.64986000  1
  C  C147  1  0.00290000  0.35014000  0.55202000  1
  C  C148  1  0.44798000  0.90506000  0.99710000  1
  C  C149  1  0.35014000  0.00290000  0.09494000  1
  C  C150  1  0.50290000  0.85014000  0.59494000  1
  C  C151  1  0.94798000  0.40506000  0.14986000  1
  C  C152  1  0.91033000  0.44061000  0.83479000  1
  C  C153  1  0.18573000  0.16521000  0.55939000  1
  C  C154  1  0.66521000  0.68573000  0.05939000  1
  C  C155  1  0.41033000  0.94061000  0.31427000  1
  C  C156  1  0.68573000  0.66521000  0.58967000  1
  C  C157  1  0.94061000  0.41033000  0.33479000  1
  C  C158  1  0.44061000  0.91033000  0.81427000  1
  C  C159  1  0.16521000  0.18573000  0.08967000  1
  C  C160  1  0.89621000  0.44465000  0.92625000  1
  C  C161  1  0.26711000  0.07375000  0.55535000  1
  C  C162  1  0.57375000  0.76711000  0.05535000  1
  C  C163  1  0.39621000  0.94465000  0.23289000  1
  C  C164  1  0.76711000  0.57375000  0.60379000  1
  C  C165  1  0.94465000  0.39621000  0.42625000  1
  C  C166  1  0.44465000  0.89621000  0.73289000  1
  C  C167  1  0.07375000  0.26711000  0.10379000  1
  C  C168  1  0.70500333  0.62836333  0.05871667  1
  C  C169  1  0.39208333  0.94128333  0.37163667  1
  C  C170  1  0.89208333  0.44128333  0.79499667  1
  C  C171  1  0.12836333  0.20500333  0.55871667  1
  C  C172  1  0.44128333  0.89208333  0.87163667  1
  C  C173  1  0.20500333  0.12836333  0.10791667  1
  C  C174  1  0.62836333  0.70500333  0.60791667  1
  C  C175  1  0.94128333  0.39208333  0.29499667  1
  C  C176  1  0.78888000  0.54416000  0.05600000  1
  C  C177  1  0.38904000  0.94400000  0.45584000  1
  C  C178  1  0.88904000  0.44400000  0.71112000  1
  C  C179  1  0.04416000  0.28888000  0.55600000  1
  C  C180  1  0.44400000  0.88904000  0.95584000  1
  C  C181  1  0.28888000  0.04416000  0.11096000  1
  C  C182  1  0.54416000  0.78888000  0.61096000  1
  C  C183  1  0.94400000  0.38904000  0.21112000  1
  C  C184  1  0.87163667  0.44128333  0.89208333  1
  C  C185  1  0.20500333  0.10791667  0.55871667  1
  C  C186  1  0.60791667  0.70500333  0.05871667  1
  C  C187  1  0.37163667  0.94128333  0.29499667  1
  C  C188  1  0.70500333  0.60791667  0.62836333  1
  C  C189  1  0.94128333  0.37163667  0.39208333  1
  C  C190  1  0.44128333  0.87163667  0.79499667  1
  C  C191  1  0.10791667  0.20500333  0.12836333  1
  C  C192  1  0.68573000  0.58967000  0.05939000  1
  C  C193  1  0.33479000  0.94061000  0.41033000  1
  C  C194  1  0.83479000  0.44061000  0.81427000  1
  C  C195  1  0.08967000  0.18573000  0.55939000  1
  C  C196  1  0.44061000  0.83479000  0.91033000  1
  C  C197  1  0.18573000  0.08967000  0.16521000  1
  C  C198  1  0.58967000  0.68573000  0.66521000  1
  C  C199  1  0.94061000  0.33479000  0.31427000  1
  C  C200  1  0.81427000  0.44061000  0.91033000  1
  C  C201  1  0.16521000  0.08967000  0.55939000  1
  C  C202  1  0.58967000  0.66521000  0.05939000  1
  C  C203  1  0.31427000  0.94061000  0.33479000  1
  C  C204  1  0.66521000  0.58967000  0.68573000  1
  C  C205  1  0.94061000  0.31427000  0.41033000  1
  C  C206  1  0.44061000  0.81427000  0.83479000  1
  C  C207  1  0.08967000  0.16521000  0.18573000  1
  C  C208  1  0.62836333  0.60791667  0.05871667  1
  C  C209  1  0.29499667  0.94128333  0.39208333  1
  C  C210  1  0.79499667  0.44128333  0.87163667  1
  C  C211  1  0.10791667  0.12836333  0.55871667  1
  C  C212  1  0.44128333  0.79499667  0.89208333  1
  C  C213  1  0.12836333  0.10791667  0.20500333  1
  C  C214  1  0.60791667  0.62836333  0.70500333  1
  C  C215  1  0.94128333  0.29499667  0.37163667  1
  C  C216  1  0.60379000  0.57375000  0.05535000  1
  C  C217  1  0.23289000  0.94465000  0.42625000  1
  C  C218  1  0.73289000  0.44465000  0.89621000  1
  C  C219  1  0.07375000  0.10379000  0.55535000  1
  C  C220  1  0.44465000  0.73289000  0.92625000  1
  C  C221  1  0.10379000  0.07375000  0.26711000  1
  C  C222  1  0.57375000  0.60379000  0.76711000  1
  C  C223  1  0.94465000  0.23289000  0.39621000  1
  C  C224  1  0.71112000  0.44400000  0.95584000  1
  C  C225  1  0.11096000  0.04416000  0.55600000  1
  C  C226  1  0.54416000  0.61096000  0.05600000  1
  C  C227  1  0.21112000  0.94400000  0.38904000  1
  C  C228  1  0.61096000  0.54416000  0.78888000  1
  C  C229  1  0.94400000  0.21112000  0.45584000  1
  C  C230  1  0.44400000  0.71112000  0.88904000  1
  C  C231  1  0.04416000  0.11096000  0.28888000  1
  C  C232  1  0.64986000  0.44798000  0.99710000  1
  C  C233  1  0.09494000  0.00290000  0.55202000  1
  C  C234  1  0.50290000  0.59494000  0.05202000  1
  C  C235  1  0.14986000  0.94798000  0.40506000  1
  C  C236  1  0.59494000  0.50290000  0.85014000  1
  C  C237  1  0.94798000  0.14986000  0.49710000  1
  C  C238  1  0.44798000  0.64986000  0.90506000  1
  C  C239  1  0.00290000  0.09494000  0.35014000  1
  H  H240  1  0.05320000  0.78860000  0.62320000  1
  H  H241  1  0.46500000  0.37680000  0.21140000  1
  H  H242  1  0.87680000  0.96500000  0.71140000  1
  H  H243  1  0.55320000  0.28860000  0.03500000  1
  H  H244  1  0.96500000  0.87680000  0.44680000  1
  H  H245  1  0.28860000  0.55320000  0.12320000  1
  H  H246  1  0.78860000  0.05320000  0.53500000  1
  H  H247  1  0.37680000  0.46500000  0.94680000  1
  H  H248  1  0.96500000  0.71140000  0.87680000  1
  H  H249  1  0.55320000  0.12320000  0.28860000  1
  H  H250  1  0.05320000  0.62320000  0.53500000  1
  H  H251  1  0.21140000  0.46500000  0.37680000  1
  H  H252  1  0.62320000  0.05320000  0.78860000  1
  H  H253  1  0.46500000  0.21140000  0.94680000  1
  H  H254  1  0.71140000  0.96500000  0.44680000  1
  H  H255  1  0.12320000  0.55320000  0.03500000  1
  H  H256  1  0.05320000  0.53500000  0.78860000  1
  H  H257  1  0.37680000  0.21140000  0.46500000  1
  H  H258  1  0.71140000  0.87680000  0.96500000  1
  H  H259  1  0.55320000  0.03500000  0.12320000  1
  H  H260  1  0.87680000  0.71140000  0.44680000  1
  H  H261  1  0.03500000  0.55320000  0.28860000  1
  H  H262  1  0.53500000  0.05320000  0.62320000  1
  H  H263  1  0.21140000  0.37680000  0.94680000  1
  H  H264  1  0.78860000  0.62320000  0.05320000  1
  H  H265  1  0.46500000  0.94680000  0.37680000  1
  H  H266  1  0.96500000  0.44680000  0.71140000  1
  H  H267  1  0.12320000  0.28860000  0.55320000  1
  H  H268  1  0.44680000  0.96500000  0.87680000  1
  H  H269  1  0.28860000  0.12320000  0.03500000  1
  H  H270  1  0.62320000  0.78860000  0.53500000  1
  H  H271  1  0.94680000  0.46500000  0.21140000  1
  H  H272  1  0.87680000  0.44680000  0.96500000  1
  H  H273  1  0.28860000  0.03500000  0.55320000  1
  H  H274  1  0.53500000  0.78860000  0.05320000  1
  H  H275  1  0.37680000  0.94680000  0.21140000  1
  H  H276  1  0.78860000  0.53500000  0.62320000  1
  H  H277  1  0.94680000  0.37680000  0.46500000  1
  H  H278  1  0.44680000  0.87680000  0.71140000  1
  H  H279  1  0.03500000  0.28860000  0.12320000  1
  H  H280  1  0.62320000  0.53500000  0.05320000  1
  H  H281  1  0.21140000  0.94680000  0.46500000  1
  H  H282  1  0.71140000  0.44680000  0.87680000  1
  H  H283  1  0.03500000  0.12320000  0.55320000  1
  H  H284  1  0.44680000  0.71140000  0.96500000  1
  H  H285  1  0.12320000  0.03500000  0.28860000  1
  H  H286  1  0.53500000  0.62320000  0.78860000  1
  H  H287  1  0.94680000  0.21140000  0.37680000  1
  Mn  Mn288  1  0.08777000  0.91223000  0.54451000  1
  Mn  Mn289  1  0.54451000  0.45549000  0.08777000  1
  Mn  Mn290  1  0.95549000  0.04451000  0.58777000  1
  Mn  Mn291  1  0.58777000  0.41223000  0.95549000  1
  Mn  Mn292  1  0.04451000  0.95549000  0.41223000  1
  Mn  Mn293  1  0.41223000  0.58777000  0.04451000  1
  Mn  Mn294  1  0.91223000  0.08777000  0.45549000  1
  Mn  Mn295  1  0.45549000  0.54451000  0.91223000  1
  Mn  Mn296  1  0.04451000  0.58777000  0.95549000  1
  Mn  Mn297  1  0.58777000  0.04451000  0.41223000  1
  Mn  Mn298  1  0.08777000  0.54451000  0.45549000  1
  Mn  Mn299  1  0.54451000  0.08777000  0.91223000  1
  Mn  Mn300  1  0.08777000  0.45549000  0.91223000  1
  Mn  Mn301  1  0.45549000  0.08777000  0.54451000  1
  Mn  Mn302  1  0.58777000  0.95549000  0.04451000  1
  Mn  Mn303  1  0.95549000  0.58777000  0.41223000  1
  Mn  Mn304  1  0.91223000  0.54451000  0.08777000  1
  Mn  Mn305  1  0.54451000  0.91223000  0.45549000  1
  Mn  Mn306  1  0.04451000  0.41223000  0.58777000  1
  Mn  Mn307  1  0.41223000  0.04451000  0.95549000  1
  Mn  Mn308  1  0.95549000  0.41223000  0.04451000  1
  Mn  Mn309  1  0.41223000  0.95549000  0.58777000  1
  Mn  Mn310  1  0.45549000  0.91223000  0.08777000  1
  Mn  Mn311  1  0.91223000  0.45549000  0.54451000  1
  O  O312  1  0.97795000  0.95175000  0.61165000  1
  O  O313  1  0.54135000  0.38835000  0.04825000  1
  O  O314  1  0.04135000  0.88835000  0.52205000  1
  O  O315  1  0.45175000  0.47795000  0.11165000  1
  O  O316  1  0.88835000  0.04135000  0.54825000  1
  O  O317  1  0.47795000  0.45175000  0.95865000  1
  O  O318  1  0.95175000  0.97795000  0.45865000  1
  O  O319  1  0.38835000  0.54135000  0.02205000  1
  O  O320  1  0.04901000  0.86915000  0.63907000  1
  O  O321  1  0.55723000  0.36093000  0.13085000  1
  O  O322  1  0.05723000  0.86093000  0.45099000  1
  O  O323  1  0.36915000  0.54901000  0.13907000  1
  O  O324  1  0.86093000  0.05723000  0.63085000  1
  O  O325  1  0.54901000  0.36915000  0.94277000  1
  O  O326  1  0.86915000  0.04901000  0.44277000  1
  O  O327  1  0.36093000  0.55723000  0.95099000  1
  O  O328  1  0.05723000  0.63085000  0.86093000  1
  O  O329  1  0.54901000  0.13907000  0.36915000  1
  O  O330  1  0.63907000  0.04901000  0.86915000  1
  O  O331  1  0.55723000  0.13085000  0.95099000  1
  O  O332  1  0.04901000  0.63907000  0.44277000  1
  O  O333  1  0.13085000  0.55723000  0.36093000  1
  O  O334  1  0.63085000  0.05723000  0.45099000  1
  O  O335  1  0.13907000  0.54901000  0.94277000  1
  O  O336  1  0.04135000  0.54825000  0.88835000  1
  O  O337  1  0.47795000  0.11165000  0.45175000  1
  O  O338  1  0.61165000  0.97795000  0.95175000  1
  O  O339  1  0.54135000  0.04825000  0.02205000  1
  O  O340  1  0.97795000  0.61165000  0.45865000  1
  O  O341  1  0.04825000  0.54135000  0.38835000  1
  O  O342  1  0.54825000  0.04135000  0.52205000  1
  O  O343  1  0.11165000  0.47795000  0.95865000  1
  O  O344  1  0.95175000  0.61165000  0.97795000  1
  O  O345  1  0.54135000  0.02205000  0.38835000  1
  O  O346  1  0.04135000  0.52205000  0.54825000  1
  O  O347  1  0.11165000  0.45175000  0.47795000  1
  O  O348  1  0.52205000  0.04135000  0.88835000  1
  O  O349  1  0.45175000  0.11165000  0.95865000  1
  O  O350  1  0.61165000  0.95175000  0.45865000  1
  O  O351  1  0.02205000  0.54135000  0.04825000  1
  O  O352  1  0.86915000  0.63907000  0.04901000  1
  O  O353  1  0.55723000  0.95099000  0.36093000  1
  O  O354  1  0.05723000  0.45099000  0.63085000  1
  O  O355  1  0.13907000  0.36915000  0.54901000  1
  O  O356  1  0.45099000  0.05723000  0.86093000  1
  O  O357  1  0.36915000  0.13907000  0.94277000  1
  O  O358  1  0.63907000  0.86915000  0.44277000  1
  O  O359  1  0.95099000  0.55723000  0.13085000  1
  O  O360  1  0.04901000  0.44277000  0.86915000  1
  O  O361  1  0.36093000  0.13085000  0.55723000  1
  O  O362  1  0.63085000  0.86093000  0.05723000  1
  O  O363  1  0.54901000  0.94277000  0.13907000  1
  O  O364  1  0.86093000  0.63085000  0.45099000  1
  O  O365  1  0.94277000  0.54901000  0.36915000  1
  O  O366  1  0.44277000  0.04901000  0.63907000  1
  O  O367  1  0.13085000  0.36093000  0.95099000  1
  O  O368  1  0.97795000  0.45865000  0.95175000  1
  O  O369  1  0.38835000  0.04825000  0.54135000  1
  O  O370  1  0.54825000  0.88835000  0.04135000  1
  O  O371  1  0.47795000  0.95865000  0.11165000  1
  O  O372  1  0.88835000  0.54825000  0.52205000  1
  O  O373  1  0.95865000  0.47795000  0.45175000  1
  O  O374  1  0.45865000  0.97795000  0.61165000  1
  O  O375  1  0.04825000  0.38835000  0.02205000  1
  O  O376  1  0.88835000  0.52205000  0.04135000  1
  O  O377  1  0.45175000  0.95865000  0.47795000  1
  O  O378  1  0.95175000  0.45865000  0.61165000  1
  O  O379  1  0.02205000  0.38835000  0.54135000  1
  O  O380  1  0.45865000  0.95175000  0.97795000  1
  O  O381  1  0.38835000  0.02205000  0.04825000  1
  O  O382  1  0.52205000  0.88835000  0.54825000  1
  O  O383  1  0.95865000  0.45175000  0.11165000  1
  O  O384  1  0.86093000  0.45099000  0.05723000  1
  O  O385  1  0.36915000  0.94277000  0.54901000  1
  O  O386  1  0.86915000  0.44277000  0.63907000  1
  O  O387  1  0.95099000  0.36093000  0.55723000  1
  O  O388  1  0.44277000  0.86915000  0.04901000  1
  O  O389  1  0.36093000  0.95099000  0.13085000  1
  O  O390  1  0.45099000  0.86093000  0.63085000  1
  O  O391  1  0.94277000  0.36915000  0.13907000  1
  O  O392  1  0.63907000  0.44277000  0.04901000  1
  O  O393  1  0.13085000  0.95099000  0.55723000  1
  O  O394  1  0.45099000  0.63085000  0.05723000  1
  O  O395  1  0.13907000  0.94277000  0.36915000  1
  O  O396  1  0.63085000  0.45099000  0.86093000  1
  O  O397  1  0.94277000  0.13907000  0.54901000  1
  O  O398  1  0.44277000  0.63907000  0.86915000  1
  O  O399  1  0.95099000  0.13085000  0.36093000  1
  O  O400  1  0.61165000  0.45865000  0.97795000  1
  O  O401  1  0.04825000  0.02205000  0.54135000  1
  O  O402  1  0.52205000  0.54825000  0.04135000  1
  O  O403  1  0.11165000  0.95865000  0.45175000  1
  O  O404  1  0.54825000  0.52205000  0.88835000  1
  O  O405  1  0.95865000  0.11165000  0.47795000  1
  O  O406  1  0.45865000  0.61165000  0.95175000  1
  O  O407  1  0.02205000  0.04825000  0.38835000  1
  S  S408  1  0.97855000  0.81963000  0.76165000  1
  S  S409  1  0.55983000  0.23835000  0.18037000  1
  S  S410  1  0.05983000  0.73835000  0.52145000  1
  S  S411  1  0.31963000  0.47855000  0.26165000  1
  S  S412  1  0.73835000  0.05983000  0.68037000  1
  S  S413  1  0.47855000  0.31963000  0.94017000  1
  S  S414  1  0.81963000  0.97855000  0.44017000  1
  S  S415  1  0.23835000  0.55983000  0.02145000  1
  S  S416  1  0.05983000  0.68037000  0.73835000  1
  S  S417  1  0.47855000  0.26165000  0.31963000  1
  S  S418  1  0.76165000  0.97855000  0.81963000  1
  S  S419  1  0.55983000  0.18037000  0.02145000  1
  S  S420  1  0.97855000  0.76165000  0.44017000  1
  S  S421  1  0.18037000  0.55983000  0.23835000  1
  S  S422  1  0.68037000  0.05983000  0.52145000  1
  S  S423  1  0.26165000  0.47855000  0.94017000  1
  S  S424  1  0.81963000  0.76165000  0.97855000  1
  S  S425  1  0.55983000  0.02145000  0.23835000  1
  S  S426  1  0.05983000  0.52145000  0.68037000  1
  S  S427  1  0.26165000  0.31963000  0.47855000  1
  S  S428  1  0.52145000  0.05983000  0.73835000  1
  S  S429  1  0.31963000  0.26165000  0.94017000  1
  S  S430  1  0.76165000  0.81963000  0.44017000  1
  S  S431  1  0.02145000  0.55983000  0.18037000  1
  S  S432  1  0.97855000  0.44017000  0.81963000  1
  S  S433  1  0.23835000  0.18037000  0.55983000  1
  S  S434  1  0.68037000  0.73835000  0.05983000  1
  S  S435  1  0.47855000  0.94017000  0.26165000  1
  S  S436  1  0.73835000  0.68037000  0.52145000  1
  S  S437  1  0.94017000  0.47855000  0.31963000  1
  S  S438  1  0.44017000  0.97855000  0.76165000  1
  S  S439  1  0.18037000  0.23835000  0.02145000  1
  S  S440  1  0.73835000  0.52145000  0.05983000  1
  S  S441  1  0.31963000  0.94017000  0.47855000  1
  S  S442  1  0.81963000  0.44017000  0.76165000  1
  S  S443  1  0.02145000  0.23835000  0.55983000  1
  S  S444  1  0.44017000  0.81963000  0.97855000  1
  S  S445  1  0.23835000  0.02145000  0.18037000  1
  S  S446  1  0.52145000  0.73835000  0.68037000  1
  S  S447  1  0.94017000  0.31963000  0.26165000  1
  S  S448  1  0.76165000  0.44017000  0.97855000  1
  S  S449  1  0.18037000  0.02145000  0.55983000  1
  S  S450  1  0.52145000  0.68037000  0.05983000  1
  S  S451  1  0.26165000  0.94017000  0.31963000  1
  S  S452  1  0.68037000  0.52145000  0.73835000  1
  S  S453  1  0.94017000  0.26165000  0.47855000  1
  S  S454  1  0.44017000  0.76165000  0.81963000  1
  S  S455  1  0.02145000  0.18037000  0.23835000  1
