# generated using pymatgen
data_ScH6(C2O)6
_symmetry_space_group_name_H-M   'P 1'
_cell_length_a   8.73460000
_cell_length_b   11.24890000
_cell_length_c   17.72295075
_cell_angle_alpha   84.51003885
_cell_angle_beta   75.73385470
_cell_angle_gamma   67.15510000
_symmetry_Int_Tables_number   1
_chemical_formula_structural   ScH6(C2O)6
_chemical_formula_sum   'Sc4 H24 C48 O24'
_cell_volume   1555.27968685
_cell_formula_units_Z   4
loop_
 _symmetry_equiv_pos_site_id
 _symmetry_equiv_pos_as_xyz
  1  'x, y, z'
loop_
 _atom_site_type_symbol
 _atom_site_label
 _atom_site_symmetry_multiplicity
 _atom_site_fract_x
 _atom_site_fract_y
 _atom_site_fract_z
 _atom_site_occupancy
  Sc  Sc0  1  0.11427000  0.25000000  0.77146000  1
  Sc  Sc1  1  0.36427000  0.75000000  0.27146000  1
  Sc  Sc2  1  0.63573000  0.25000000  0.72854000  1
  Sc  Sc3  1  0.88573000  0.75000000  0.22854000  1
  H  H4  1  0.68434000  0.12559000  0.24790000  1
  H  H5  1  0.80375000  0.93931000  0.02484000  1
  H  H6  1  0.21950000  0.07325000  0.60295000  1
  H  H7  1  0.55783000  0.37441000  0.25210000  1
  H  H8  1  0.82859000  0.43931000  0.97516000  1
  H  H9  1  0.17458000  0.42537000  0.60399000  1
  H  H10  1  0.26789000  0.56069000  0.47516000  1
  H  H11  1  0.25695000  0.93931000  0.47516000  1
  H  H12  1  0.59995000  0.57463000  0.10400000  1
  H  H13  1  0.93224000  0.62559000  0.75210000  1
  H  H14  1  0.70395000  0.07463000  0.89600000  1
  H  H15  1  0.80993000  0.87441000  0.74790000  1
  H  H16  1  0.19007000  0.12559000  0.25210000  1
  H  H17  1  0.29605000  0.92537000  0.10400000  1
  H  H18  1  0.06776000  0.37441000  0.24790000  1
  H  H19  1  0.39570000  0.42675000  0.89705000  1
  H  H20  1  0.75644000  0.05303000  0.51596000  1
  H  H21  1  0.73211000  0.43931000  0.52484000  1
  H  H22  1  0.82542000  0.57463000  0.39601000  1
  H  H23  1  0.17141000  0.56069000  0.02484000  1
  H  H24  1  0.44217000  0.62559000  0.74790000  1
  H  H25  1  0.77858000  0.92537000  0.39600000  1
  H  H26  1  0.19625000  0.06069000  0.97516000  1
  H  H27  1  0.31566000  0.87441000  0.75210000  1
  C  C28  1  0.73636000  0.52728000  0.25000000  1
  C  C29  1  0.23085000  0.81946000  0.75064000  1
  C  C30  1  0.52062000  0.93746000  0.43850000  1
  C  C31  1  0.69905000  0.31946000  0.25064000  1
  C  C32  1  0.18922000  0.62156000  0.75000000  1
  C  C33  1  0.34350000  0.03926000  0.55634000  1
  C  C34  1  0.53331000  0.85948000  0.36650000  1
  C  C35  1  0.35662000  0.96946000  0.48990000  1
  C  C36  1  0.06078000  0.87844000  0.75000000  1
  C  C37  1  0.01851000  0.68054000  0.75064000  1
  C  C38  1  0.60721000  0.85948000  0.13350000  1
  C  C39  1  0.98636000  0.02728000  0.75000000  1
  C  C40  1  0.94969000  0.81946000  0.74936000  1
  C  C41  1  0.67392000  0.96946000  0.01010000  1
  C  C42  1  0.68402000  0.46946000  0.98990000  1
  C  C43  1  0.10016000  0.46074000  0.55634000  1
  C  C44  1  0.15348000  0.53054000  0.48990000  1
  C  C45  1  0.56090000  0.53926000  0.05634000  1
  C  C46  1  0.74071000  0.35948000  0.86650000  1
  C  C47  1  0.54192000  0.93746000  0.06150000  1
  C  C48  1  0.61724000  0.03926000  0.94366000  1
  C  C49  1  0.60342000  0.43746000  0.93850000  1
  C  C50  1  0.89981000  0.35948000  0.63350000  1
  C  C51  1  0.95912000  0.43746000  0.56150000  1
  C  C52  1  0.04088000  0.56254000  0.43850000  1
  C  C53  1  0.10019000  0.64052000  0.36650000  1
  C  C54  1  0.39658000  0.56254000  0.06150000  1
  C  C55  1  0.38276000  0.96074000  0.05634000  1
  C  C56  1  0.45808000  0.06254000  0.93850000  1
  C  C57  1  0.25929000  0.64052000  0.13350000  1
  C  C58  1  0.43910000  0.46074000  0.94366000  1
  C  C59  1  0.84652000  0.46946000  0.51010000  1
  C  C60  1  0.89984000  0.53926000  0.44366000  1
  C  C61  1  0.31598000  0.53054000  0.01010000  1
  C  C62  1  0.32608000  0.03054000  0.98990000  1
  C  C63  1  0.05031000  0.18054000  0.25064000  1
  C  C64  1  0.01364000  0.97272000  0.25000000  1
  C  C65  1  0.39279000  0.14052000  0.86650000  1
  C  C66  1  0.98149000  0.31946000  0.24936000  1
  C  C67  1  0.93922000  0.12156000  0.25000000  1
  C  C68  1  0.64338000  0.03054000  0.51010000  1
  C  C69  1  0.46669000  0.14052000  0.63350000  1
  C  C70  1  0.65650000  0.96074000  0.44366000  1
  C  C71  1  0.81078000  0.37844000  0.25000000  1
  C  C72  1  0.30095000  0.68054000  0.74936000  1
  C  C73  1  0.47938000  0.06254000  0.56150000  1
  C  C74  1  0.76915000  0.18054000  0.24936000  1
  C  C75  1  0.26364000  0.47272000  0.75000000  1
  O  O76  1  0.67233000  0.82996000  0.31578000  1
  O  O77  1  0.16209000  0.41614000  0.77078000  1
  O  O78  1  0.75237000  0.83076000  0.14064000  1
  O  O79  1  0.57823000  0.58386000  0.27078000  1
  O  O80  1  0.06713000  0.08386000  0.77078000  1
  O  O81  1  0.41687000  0.83076000  0.35936000  1
  O  O82  1  0.89301000  0.33076000  0.85936000  1
  O  O83  1  0.49771000  0.82996000  0.18422000  1
  O  O84  1  0.98811000  0.32996000  0.68422000  1
  O  O85  1  0.22377000  0.66924000  0.35936000  1
  O  O86  1  0.84901000  0.08386000  0.72922000  1
  O  O87  1  0.31807000  0.67004000  0.18422000  1
  O  O88  1  0.68193000  0.32996000  0.81578000  1
  O  O89  1  0.15099000  0.91614000  0.27078000  1
  O  O90  1  0.77623000  0.33076000  0.64064000  1
  O  O91  1  0.01189000  0.67004000  0.31578000  1
  O  O92  1  0.50229000  0.17004000  0.81578000  1
  O  O93  1  0.10699000  0.66924000  0.14064000  1
  O  O94  1  0.58313000  0.16924000  0.64064000  1
  O  O95  1  0.93287000  0.91614000  0.22922000  1
  O  O96  1  0.42177000  0.41614000  0.72922000  1
  O  O97  1  0.24763000  0.16924000  0.85936000  1
  O  O98  1  0.83791000  0.58386000  0.22922000  1
  O  O99  1  0.32767000  0.17004000  0.68422000  1
