# generated using pymatgen
data_Co2H11C15(NO4)2
_symmetry_space_group_name_H-M   'P 1'
_cell_length_a   9.10040000
_cell_length_b   9.39720000
_cell_length_c   14.92870000
_cell_angle_alpha   82.08800000
_cell_angle_beta   85.45800000
_cell_angle_gamma   65.33500000
_symmetry_Int_Tables_number   1
_chemical_formula_structural   Co2H11C15(NO4)2
_chemical_formula_sum   'Co4 H22 C30 N4 O16'
_cell_volume   1148.81719245
_cell_formula_units_Z   2
loop_
 _symmetry_equiv_pos_site_id
 _symmetry_equiv_pos_as_xyz
  1  'x, y, z'
loop_
 _atom_site_type_symbol
 _atom_site_label
 _atom_site_symmetry_multiplicity
 _atom_site_fract_x
 _atom_site_fract_y
 _atom_site_fract_z
 _atom_site_occupancy
  Co  Co0  1  0.00000000  0.50000000  0.00000000  1
  Co  Co1  1  0.23408000  0.97443000  0.83801000  1
  Co  Co2  1  0.50000000  0.00000000  0.00000000  1
  Co  Co3  1  0.76592000  0.02557000  0.16199000  1
  H  H4  1  0.25000000  0.78870000  0.66990000  1
  H  H5  1  0.25060000  0.68110000  0.23170000  1
  H  H6  1  0.26160000  0.62090000  0.57590000  1
  H  H7  1  0.27040000  0.49930000  0.44980000  1
  H  H8  1  0.27410000  0.42590000  0.30930000  1
  H  H9  1  0.30940000  0.95600000  0.20820000  1
  H  H10  1  0.31470000  0.62940000  0.08720000  1
  H  H11  1  0.32000000  0.84380000  0.29860000  1
  H  H12  1  0.38600000  0.25780000  0.18820000  1
  H  H13  1  0.43690000  0.33490000  0.73720000  1
  H  H14  1  0.45230000  0.45380000  0.84640000  1
  H  H15  1  0.54770000  0.54620000  0.15360000  1
  H  H16  1  0.56310000  0.66510000  0.26280000  1
  H  H17  1  0.61400000  0.74220000  0.81180000  1
  H  H18  1  0.68000000  0.15620000  0.70140000  1
  H  H19  1  0.68530000  0.37060000  0.91280000  1
  H  H20  1  0.69060000  0.04400000  0.79180000  1
  H  H21  1  0.72590000  0.57410000  0.69070000  1
  H  H22  1  0.72960000  0.50070000  0.55020000  1
  H  H23  1  0.73840000  0.37910000  0.42410000  1
  H  H24  1  0.74940000  0.31890000  0.76830000  1
  H  H25  1  0.75000000  0.21130000  0.33010000  1
  C  C26  1  0.06580000  0.87870000  0.17975000  1
  C  C27  1  0.24290000  0.77530000  0.19123000  1
  C  C28  1  0.28450000  0.84850000  0.02449000  1
  C  C29  1  0.33550000  0.71770000  0.10195000  1
  C  C30  1  0.33910000  0.84730000  0.23366000  1
  C  C31  1  0.35430000  0.75680000  0.69013000  1
  C  C32  1  0.35850000  0.34300000  0.94566000  1
  C  C33  1  0.35960000  0.57250000  0.54530000  1
  C  C34  1  0.36510000  0.49820000  0.46980000  1
  C  C35  1  0.38270000  0.36280000  0.29895000  1
  C  C36  1  0.38520000  0.15570000  0.80350000  1
  C  C37  1  0.44530000  0.26930000  0.23244000  1
  C  C38  1  0.48150000  0.25530000  0.78911000  1
  C  C39  1  0.48450000  0.34310000  0.87102000  1
  C  C40  1  0.49450000  0.57490000  0.57430000  1
  C  C41  1  0.50550000  0.42510000  0.42570000  1
  C  C42  1  0.51550000  0.65690000  0.12898000  1
  C  C43  1  0.51850000  0.74470000  0.21089000  1
  C  C44  1  0.55470000  0.73070000  0.76756000  1
  C  C45  1  0.61480000  0.84430000  0.19650000  1
  C  C46  1  0.61730000  0.63720000  0.70105000  1
  C  C47  1  0.63490000  0.50180000  0.53020000  1
  C  C48  1  0.64040000  0.42750000  0.45470000  1
  C  C49  1  0.64150000  0.65700000  0.05434000  1
  C  C50  1  0.64570000  0.24320000  0.30987000  1
  C  C51  1  0.66090000  0.15270000  0.76634000  1
  C  C52  1  0.66450000  0.28230000  0.89805000  1
  C  C53  1  0.71550000  0.15150000  0.97551000  1
  C  C54  1  0.75710000  0.22470000  0.80877000  1
  C  C55  1  0.93420000  0.12130000  0.82025000  1
  N  N56  1  0.38920000  0.80670000  0.75984000  1
  N  N57  1  0.48830000  0.65350000  0.65111000  1
  N  N58  1  0.51170000  0.34650000  0.34889000  1
  N  N59  1  0.61080000  0.19330000  0.24016000  1
  O  O60  1  0.00640000  0.00080000  0.78037000  1
  O  O61  1  0.01350000  0.15980000  0.87066000  1
  O  O62  1  0.22069000  0.45200000  0.93220000  1
  O  O63  1  0.24120000  0.82410000  0.95238000  1
  O  O64  1  0.27852000  0.17430000  0.75026000  1
  O  O65  1  0.28554000  0.97934000  0.03652000  1
  O  O66  1  0.39297000  0.23924000  0.01195000  1
  O  O67  1  0.41662000  0.04546000  0.86899000  1
  O  O68  1  0.58338000  0.95454000  0.13101000  1
  O  O69  1  0.60703000  0.76076000  0.98805000  1
  O  O70  1  0.71446000  0.02066000  0.96348000  1
  O  O71  1  0.72148000  0.82570000  0.24974000  1
  O  O72  1  0.75880000  0.17590000  0.04762000  1
  O  O73  1  0.77931000  0.54800000  0.06780000  1
  O  O74  1  0.98650000  0.84020000  0.12934000  1
  O  O75  1  0.99360000  0.99920000  0.21963000  1
