# generated using pymatgen
data_InH12C24(NO2)2
_symmetry_space_group_name_H-M   'P 1'
_cell_length_a   7.63330000
_cell_length_b   12.65581498
_cell_length_c   30.52910000
_cell_angle_alpha   88.94358650
_cell_angle_beta   86.49500000
_cell_angle_gamma   72.44790426
_symmetry_Int_Tables_number   1
_chemical_formula_structural   InH12C24(NO2)2
_chemical_formula_sum   'In4 H48 C96 N8 O16'
_cell_volume   2806.71377528
_cell_formula_units_Z   4
loop_
 _symmetry_equiv_pos_site_id
 _symmetry_equiv_pos_as_xyz
  1  'x, y, z'
loop_
 _atom_site_type_symbol
 _atom_site_label
 _atom_site_symmetry_multiplicity
 _atom_site_fract_x
 _atom_site_fract_y
 _atom_site_fract_z
 _atom_site_occupancy
  C  C0  1  0.07990000  0.83380000  0.67663000  1
  C  C1  1  0.91370000  0.16620000  0.17663000  1
  C  C2  1  0.17120000  0.63380000  0.35380000  1
  C  C3  1  0.80500000  0.36620000  0.85380000  1
  C  C4  1  0.38880000  0.14820000  0.58213000  1
  C  C5  1  0.53700000  0.85180000  0.08213000  1
  C  C6  1  0.37760000  0.16620000  0.87645000  1
  C  C7  1  0.54380000  0.83380000  0.37645000  1
  C  C8  1  0.04860000  0.80160000  0.52570000  1
  C  C9  1  0.85020000  0.19840000  0.02570000  1
  C  C10  1  0.21310000  0.45540000  0.31250000  1
  C  C11  1  0.66850000  0.54460000  0.81250000  1
  C  C12  1  0.97730000  0.92220000  0.60877000  1
  C  C13  1  0.89950000  0.07780000  0.10877000  1
  C  C14  1  0.06620000  0.71560000  0.38230000  1
  C  C15  1  0.78180000  0.28440000  0.88230000  1
  C  C16  1  0.03620000  0.75820000  0.48670000  1
  C  C17  1  0.79440000  0.24180000  0.98670000  1
  C  C18  1  0.11550000  0.53980000  0.34590000  1
  C  C19  1  0.65530000  0.46020000  0.84590000  1
  C  C20  1  0.91120000  0.94780000  0.89784000  1
  C  C21  1  0.85900000  0.05220000  0.39784000  1
  C  C22  1  0.94730000  0.86700000  0.64602000  1
  C  C23  1  0.81430000  0.13300000  0.14602000  1
  C  C24  1  0.14460000  0.38840000  0.60320000  1
  C  C25  1  0.53300000  0.61160000  0.10320000  1
  C  C26  1  0.88220000  0.88900000  0.53609000  1
  C  C27  1  0.77120000  0.11100000  0.03609000  1
  C  C28  1  0.89570000  0.85800000  0.83049000  1
  C  C29  1  0.75370000  0.14200000  0.33049000  1
  C  C30  1  0.27630000  0.09500000  0.87493000  1
  C  C31  1  0.37130000  0.90500000  0.37493000  1
  C  C32  1  0.21170000  0.20340000  0.56771000  1
  C  C33  1  0.41510000  0.79660000  0.06771000  1
  C  C34  1  0.83660000  0.95060000  0.57453000  1
  C  C35  1  0.78720000  0.04940000  0.07453000  1
  C  C36  1  0.29420000  0.03200000  0.91439000  1
  C  C37  1  0.32620000  0.96800000  0.41439000  1
  C  C38  1  0.21010000  0.18520000  0.20137000  1
  C  C39  1  0.39530000  0.81480000  0.70137000  1
  C  C40  1  0.03980000  0.46900000  0.63210000  1
  C  C41  1  0.50880000  0.53100000  0.13210000  1
  C  C42  1  0.85810000  0.81840000  0.47168000  1
  C  C43  1  0.67650000  0.18160000  0.97168000  1
  C  C44  1  0.80880000  0.91680000  0.86707000  1
  C  C45  1  0.72560000  0.08320000  0.36707000  1
  C  C46  1  0.90590000  0.70720000  0.40350000  1
  C  C47  1  0.61310000  0.29280000  0.90350000  1
  C  C48  1  0.09410000  0.29280000  0.59650000  1
  C  C49  1  0.38690000  0.70720000  0.09650000  1
  C  C50  1  0.19120000  0.08320000  0.13293000  1
  C  C51  1  0.27440000  0.91680000  0.63293000  1
  C  C52  1  0.14190000  0.18160000  0.52832000  1
  C  C53  1  0.32350000  0.81840000  0.02832000  1
  C  C54  1  0.96020000  0.53100000  0.36790000  1
  C  C55  1  0.49120000  0.46900000  0.86790000  1
  C  C56  1  0.78990000  0.81480000  0.79863000  1
  C  C57  1  0.60470000  0.18520000  0.29863000  1
  C  C58  1  0.70580000  0.96800000  0.08561000  1
  C  C59  1  0.67380000  0.03200000  0.58561000  1
  C  C60  1  0.16340000  0.04940000  0.42547000  1
  C  C61  1  0.21280000  0.95060000  0.92547000  1
  C  C62  1  0.78830000  0.79660000  0.43229000  1
  C  C63  1  0.58490000  0.20340000  0.93229000  1
  C  C64  1  0.72370000  0.90500000  0.12507000  1
  C  C65  1  0.62870000  0.09500000  0.62507000  1
  C  C66  1  0.10430000  0.14200000  0.16951000  1
  C  C67  1  0.24630000  0.85800000  0.66951000  1
  C  C68  1  0.11780000  0.11100000  0.46391000  1
  C  C69  1  0.22880000  0.88900000  0.96391000  1
  C  C70  1  0.85540000  0.61160000  0.39680000  1
  C  C71  1  0.46700000  0.38840000  0.89680000  1
  C  C72  1  0.05270000  0.13300000  0.35398000  1
  C  C73  1  0.18570000  0.86700000  0.85398000  1
  C  C74  1  0.08880000  0.05220000  0.10216000  1
  C  C75  1  0.14100000  0.94780000  0.60216000  1
  C  C76  1  0.88450000  0.46020000  0.65410000  1
  C  C77  1  0.34470000  0.53980000  0.15410000  1
  C  C78  1  0.96380000  0.24180000  0.51330000  1
  C  C79  1  0.20560000  0.75820000  0.01330000  1
  C  C80  1  0.93380000  0.28440000  0.61770000  1
  C  C81  1  0.21820000  0.71560000  0.11770000  1
  C  C82  1  0.02270000  0.07780000  0.39123000  1
  C  C83  1  0.10050000  0.92220000  0.89123000  1
  C  C84  1  0.78690000  0.54460000  0.68750000  1
  C  C85  1  0.33150000  0.45540000  0.18750000  1
  C  C86  1  0.95140000  0.19840000  0.47430000  1
  C  C87  1  0.14980000  0.80160000  0.97430000  1
  C  C88  1  0.62240000  0.83380000  0.12355000  1
  C  C89  1  0.45620000  0.16620000  0.62355000  1
  C  C90  1  0.61120000  0.85180000  0.41787000  1
  C  C91  1  0.46300000  0.14820000  0.91787000  1
  C  C92  1  0.82880000  0.36620000  0.64620000  1
  C  C93  1  0.19500000  0.63380000  0.14620000  1
  C  C94  1  0.92010000  0.16620000  0.32337000  1
  C  C95  1  0.08630000  0.83380000  0.82337000  1
  H  H96  1  0.38990000  0.21740000  0.85470000  1
  H  H97  1  0.60730000  0.78260000  0.35470000  1
  H  H98  1  0.10470000  0.77800000  0.38730000  1
  H  H99  1  0.88270000  0.22200000  0.88730000  1
  H  H100  1  0.12600000  0.69980000  0.47200000  1
  H  H101  1  0.82580000  0.30020000  0.97200000  1
  H  H102  1  0.07160000  0.77840000  0.95660000  1
  H  H103  1  0.85000000  0.22160000  0.45660000  1
  H  H104  1  0.05820000  0.79520000  0.70200000  1
  H  H105  1  0.85340000  0.20480000  0.20200000  1
  H  H106  1  0.24970000  0.39800000  0.58810000  1
  H  H107  1  0.64770000  0.60200000  0.08810000  1
  H  H108  1  0.07910000  0.64120000  0.16040000  1
  H  H109  1  0.72030000  0.35880000  0.66040000  1
  H  H110  1  0.31990000  0.06400000  0.12860000  1
  H  H111  1  0.38390000  0.93600000  0.62860000  1
  H  H112  1  0.85170000  0.98620000  0.92330000  1
  H  H113  1  0.83790000  0.01380000  0.42330000  1
  H  H114  1  0.07750000  0.53180000  0.63680000  1
  H  H115  1  0.60930000  0.46820000  0.13680000  1
  H  H116  1  0.83490000  0.85140000  0.65090000  1
  H  H117  1  0.68630000  0.14860000  0.15090000  1
  H  H118  1  0.79470000  0.91140000  0.14840000  1
  H  H119  1  0.70610000  0.08860000  0.64840000  1
  H  H120  1  0.20530000  0.08860000  0.85160000  1
  H  H121  1  0.29390000  0.91140000  0.35160000  1
  H  H122  1  0.16510000  0.14860000  0.34910000  1
  H  H123  1  0.31370000  0.85140000  0.84910000  1
  H  H124  1  0.92250000  0.46820000  0.36320000  1
  H  H125  1  0.39070000  0.53180000  0.86320000  1
  H  H126  1  0.14830000  0.01380000  0.07670000  1
  H  H127  1  0.16210000  0.98620000  0.57670000  1
  H  H128  1  0.68010000  0.93600000  0.87140000  1
  H  H129  1  0.61610000  0.06400000  0.37140000  1
  H  H130  1  0.92090000  0.35880000  0.83960000  1
  H  H131  1  0.27970000  0.64120000  0.33960000  1
  H  H132  1  0.75030000  0.60200000  0.41190000  1
  H  H133  1  0.35230000  0.39800000  0.91190000  1
  H  H134  1  0.94180000  0.20480000  0.29800000  1
  H  H135  1  0.14660000  0.79520000  0.79800000  1
  H  H136  1  0.92840000  0.22160000  0.04340000  1
  H  H137  1  0.15000000  0.77840000  0.54340000  1
  H  H138  1  0.87400000  0.30020000  0.52800000  1
  H  H139  1  0.17420000  0.69980000  0.02800000  1
  H  H140  1  0.89530000  0.22200000  0.61270000  1
  H  H141  1  0.11730000  0.77800000  0.11270000  1
  H  H142  1  0.61010000  0.78260000  0.14530000  1
  H  H143  1  0.39270000  0.21740000  0.64530000  1
  In  In144  1  0.34883000  0.30234000  0.25000000  1
  In  In145  1  0.50000000  0.00000000  1.00000000  1
  In  In146  1  0.50000000  0.00000000  0.50000000  1
  In  In147  1  0.65117000  0.69766000  0.75000000  1
  N  N148  1  0.41154000  0.06692000  0.93976000  1
  N  N149  1  0.47846000  0.93308000  0.43976000  1
  N  N150  1  0.23066000  0.10088000  0.49868000  1
  N  N151  1  0.33154000  0.89912000  0.99868000  1
  N  N152  1  0.76934000  0.89912000  0.50132000  1
  N  N153  1  0.66846000  0.10088000  0.00132000  1
  N  N154  1  0.58846000  0.93308000  0.06024000  1
  N  N155  1  0.52154000  0.06692000  0.56024000  1
  O  O156  1  0.37551000  0.17118000  0.19453000  1
  O  O157  1  0.54669000  0.82882000  0.69453000  1
  O  O158  1  0.18060000  0.45840000  0.20450000  1
  O  O159  1  0.63900000  0.54160000  0.70450000  1
  O  O160  1  0.14380000  0.38300000  0.30223000  1
  O  O161  1  0.52680000  0.61700000  0.80223000  1
  O  O162  1  0.87754000  0.75772000  0.76673000  1
  O  O163  1  0.63526000  0.24228000  0.26673000  1
  O  O164  1  0.12246000  0.24228000  0.23327000  1
  O  O165  1  0.36474000  0.75772000  0.73327000  1
  O  O166  1  0.85620000  0.61700000  0.69777000  1
  O  O167  1  0.47320000  0.38300000  0.19777000  1
  O  O168  1  0.81940000  0.54160000  0.79550000  1
  O  O169  1  0.36100000  0.45840000  0.29550000  1
  O  O170  1  0.62449000  0.82882000  0.80547000  1
  O  O171  1  0.45331000  0.17118000  0.30547000  1
