# generated using pymatgen
data_CuHC4O3
_symmetry_space_group_name_H-M   'P 1'
_cell_length_a   6.26260000
_cell_length_b   15.08471564
_cell_length_c   15.08471564
_cell_angle_alpha   118.11698913
_cell_angle_beta   97.95453800
_cell_angle_gamma   97.95453800
_symmetry_Int_Tables_number   1
_chemical_formula_structural   CuHC4O3
_chemical_formula_sum   'Cu6 H6 C24 O18'
_cell_volume   1210.49135536
_cell_formula_units_Z   6
loop_
 _symmetry_equiv_pos_site_id
 _symmetry_equiv_pos_as_xyz
  1  'x, y, z'
loop_
 _atom_site_type_symbol
 _atom_site_label
 _atom_site_symmetry_multiplicity
 _atom_site_fract_x
 _atom_site_fract_y
 _atom_site_fract_z
 _atom_site_occupancy
  C  C0  1  0.86430000  0.46620000  0.54970000  1
  C  C1  1  0.71820000  0.42520000  0.59640000  1
  C  C2  1  0.94400000  0.57300000  0.47200000  1
  C  C3  1  0.81530000  0.53870000  0.52220000  1
  C  C4  1  0.12180000  0.40360000  0.82880000  1
  C  C5  1  0.70700000  0.82880000  0.42520000  1
  C  C6  1  0.37100000  0.89900000  0.42700000  1
  C  C7  1  0.31460000  0.45030000  0.91650000  1
  C  C8  1  0.52800000  0.47200000  0.89900000  1
  C  C9  1  0.60190000  0.91650000  0.46620000  1
  C  C10  1  0.27660000  0.98350000  0.46130000  1
  C  C11  1  0.29310000  0.47780000  0.01650000  1
  C  C12  1  0.70690000  0.52220000  0.98350000  1
  C  C13  1  0.72340000  0.01650000  0.53870000  1
  C  C14  1  0.39810000  0.08350000  0.53380000  1
  C  C15  1  0.47200000  0.52800000  0.10100000  1
  C  C16  1  0.68540000  0.54970000  0.08350000  1
  C  C17  1  0.62900000  0.10100000  0.57300000  1
  C  C18  1  0.29300000  0.17120000  0.57480000  1
  C  C19  1  0.87820000  0.59640000  0.17120000  1
  C  C20  1  0.18470000  0.46130000  0.47780000  1
  C  C21  1  0.05600000  0.42700000  0.52800000  1
  C  C22  1  0.28180000  0.57480000  0.40360000  1
  C  C23  1  0.13570000  0.53380000  0.45030000  1
  Cu  Cu24  1  0.66650000  0.31230000  0.73520000  1
  Cu  Cu25  1  0.35420000  0.42290000  0.68770000  1
  Cu  Cu26  1  0.06870000  0.73520000  0.42290000  1
  Cu  Cu27  1  0.93130000  0.26480000  0.57710000  1
  Cu  Cu28  1  0.64580000  0.57710000  0.31230000  1
  Cu  Cu29  1  0.33350000  0.68770000  0.26480000  1
  H  H30  1  0.66550000  0.56800000  0.54150000  1
  H  H31  1  0.09750000  0.97350000  0.43200000  1
  H  H32  1  0.12400000  0.45850000  0.02650000  1
  H  H33  1  0.87600000  0.54150000  0.97350000  1
  H  H34  1  0.90250000  0.02650000  0.56800000  1
  H  H35  1  0.33450000  0.43200000  0.45850000  1
  O  O36  1  0.29640000  0.65610000  0.40510000  1
  O  O37  1  0.64030000  0.74900000  0.34390000  1
  O  O38  1  0.86630000  0.64460000  0.44930000  1
  O  O39  1  0.58790000  0.48270000  0.64000000  1
  O  O40  1  0.10870000  0.40510000  0.74900000  1
  O  O41  1  0.22170000  0.80470000  0.35540000  1
  O  O42  1  0.94790000  0.36000000  0.84270000  1
  O  O43  1  0.58300000  0.44930000  0.80470000  1
  O  O44  1  0.89480000  0.84270000  0.48270000  1
  O  O45  1  0.10520000  0.15730000  0.51730000  1
  O  O46  1  0.41700000  0.55070000  0.19530000  1
  O  O47  1  0.05210000  0.64000000  0.15730000  1
  O  O48  1  0.77830000  0.19530000  0.64460000  1
  O  O49  1  0.89130000  0.59490000  0.25100000  1
  O  O50  1  0.41210000  0.51730000  0.36000000  1
  O  O51  1  0.13370000  0.35540000  0.55070000  1
  O  O52  1  0.35970000  0.25100000  0.65610000  1
  O  O53  1  0.70360000  0.34390000  0.59490000  1
