# generated using pymatgen
data_AgH6C6(SO)2
_symmetry_space_group_name_H-M   'P 1'
_cell_length_a   12.96770000
_cell_length_b   12.96770000
_cell_length_c   13.54500000
_cell_angle_alpha   90.00000000
_cell_angle_beta   90.00000000
_cell_angle_gamma   90.00000000
_symmetry_Int_Tables_number   1
_chemical_formula_structural   AgH6C6(SO)2
_chemical_formula_sum   'Ag8 H48 C48 S16 O16'
_cell_volume   2277.74404036
_cell_formula_units_Z   8
loop_
 _symmetry_equiv_pos_site_id
 _symmetry_equiv_pos_as_xyz
  1  'x, y, z'
loop_
 _atom_site_type_symbol
 _atom_site_label
 _atom_site_symmetry_multiplicity
 _atom_site_fract_x
 _atom_site_fract_y
 _atom_site_fract_z
 _atom_site_occupancy
  Ag  Ag0  1  0.16809000  0.66837000  0.25260000  1
  Ag  Ag1  1  0.16837000  0.83191000  0.75260000  1
  Ag  Ag2  1  0.33163000  0.66809000  0.75260000  1
  Ag  Ag3  1  0.33191000  0.83163000  0.25260000  1
  Ag  Ag4  1  0.66809000  0.16837000  0.74740000  1
  Ag  Ag5  1  0.66837000  0.33191000  0.24740000  1
  Ag  Ag6  1  0.83163000  0.16809000  0.24740000  1
  Ag  Ag7  1  0.83191000  0.33163000  0.74740000  1
  H  H8  1  0.00760000  0.79190000  0.10760000  1
  H  H9  1  0.02890000  0.78880000  0.99120000  1
  H  H10  1  0.07580000  0.31450000  0.78220000  1
  H  H11  1  0.09170000  0.15610000  0.71820000  1
  H  H12  1  0.10180000  0.85570000  0.06190000  1
  H  H13  1  0.10630000  0.36920000  0.68030000  1
  H  H14  1  0.13080000  0.10630000  0.81970000  1
  H  H15  1  0.14430000  0.60180000  0.56190000  1
  H  H16  1  0.15610000  0.40830000  0.78180000  1
  H  H17  1  0.18550000  0.07580000  0.71780000  1
  H  H18  1  0.20810000  0.50760000  0.60760000  1
  H  H19  1  0.21120000  0.52890000  0.49120000  1
  H  H20  1  0.28880000  0.97110000  0.49120000  1
  H  H21  1  0.29190000  0.99240000  0.60760000  1
  H  H22  1  0.31450000  0.42420000  0.71780000  1
  H  H23  1  0.34390000  0.09170000  0.78180000  1
  H  H24  1  0.35570000  0.89820000  0.56190000  1
  H  H25  1  0.36920000  0.39370000  0.81970000  1
  H  H26  1  0.39370000  0.13080000  0.68030000  1
  H  H27  1  0.39820000  0.64430000  0.06190000  1
  H  H28  1  0.40830000  0.34390000  0.71820000  1
  H  H29  1  0.42420000  0.18550000  0.78220000  1
  H  H30  1  0.47110000  0.71120000  0.99120000  1
  H  H31  1  0.49240000  0.70810000  0.10760000  1
  H  H32  1  0.50760000  0.29190000  0.89240000  1
  H  H33  1  0.52890000  0.28880000  0.00880000  1
  H  H34  1  0.57580000  0.81450000  0.21780000  1
  H  H35  1  0.59170000  0.65610000  0.28180000  1
  H  H36  1  0.60180000  0.35570000  0.93810000  1
  H  H37  1  0.60630000  0.86920000  0.31970000  1
  H  H38  1  0.63080000  0.60630000  0.18030000  1
  H  H39  1  0.64430000  0.10180000  0.43810000  1
  H  H40  1  0.65610000  0.90830000  0.21820000  1
  H  H41  1  0.68550000  0.57580000  0.28220000  1
  H  H42  1  0.70810000  0.00760000  0.39240000  1
  H  H43  1  0.71120000  0.02890000  0.50880000  1
  H  H44  1  0.78880000  0.47110000  0.50880000  1
  H  H45  1  0.79190000  0.49240000  0.39240000  1
  H  H46  1  0.81450000  0.92420000  0.28220000  1
  H  H47  1  0.84390000  0.59170000  0.21820000  1
  H  H48  1  0.85570000  0.39820000  0.43810000  1
  H  H49  1  0.86920000  0.89370000  0.18030000  1
  H  H50  1  0.89370000  0.63080000  0.31970000  1
  H  H51  1  0.89820000  0.14430000  0.93810000  1
  H  H52  1  0.90830000  0.84390000  0.28180000  1
  H  H53  1  0.92420000  0.68550000  0.21780000  1
  H  H54  1  0.97110000  0.21120000  0.00880000  1
  H  H55  1  0.99240000  0.20810000  0.89240000  1
  C  C56  1  0.00340000  0.51770000  0.10230000  1
  C  C57  1  0.01770000  0.99660000  0.60230000  1
  C  C58  1  0.05740000  0.55910000  0.93430000  1
  C  C59  1  0.05830000  0.58120000  0.03710000  1
  C  C60  1  0.05910000  0.94260000  0.43430000  1
  C  C61  1  0.06120000  0.79220000  0.05660000  1
  C  C62  1  0.08120000  0.94170000  0.53710000  1
  C  C63  1  0.09370000  0.38030000  0.75090000  1
  C  C64  1  0.11970000  0.09370000  0.74910000  1
  C  C65  1  0.12240000  0.87700000  0.36390000  1
  C  C66  1  0.12300000  0.62240000  0.86390000  1
  C  C67  1  0.20780000  0.56120000  0.55660000  1
  C  C68  1  0.29220000  0.93880000  0.55660000  1
  C  C69  1  0.37700000  0.87760000  0.86390000  1
  C  C70  1  0.37760000  0.62300000  0.36390000  1
  C  C71  1  0.38030000  0.40630000  0.74910000  1
  C  C72  1  0.40630000  0.11970000  0.75090000  1
  C  C73  1  0.41880000  0.55830000  0.53710000  1
  C  C74  1  0.43880000  0.70780000  0.05660000  1
  C  C75  1  0.44090000  0.55740000  0.43430000  1
  C  C76  1  0.44170000  0.91880000  0.03710000  1
  C  C77  1  0.44260000  0.94090000  0.93430000  1
  C  C78  1  0.48230000  0.50340000  0.60230000  1
  C  C79  1  0.49660000  0.98230000  0.10230000  1
  C  C80  1  0.50340000  0.01770000  0.89770000  1
  C  C81  1  0.51770000  0.49660000  0.39770000  1
  C  C82  1  0.55740000  0.05910000  0.06570000  1
  C  C83  1  0.55830000  0.08120000  0.96290000  1
  C  C84  1  0.55910000  0.44260000  0.56570000  1
  C  C85  1  0.56120000  0.29220000  0.94340000  1
  C  C86  1  0.58120000  0.44170000  0.46290000  1
  C  C87  1  0.59370000  0.88030000  0.24910000  1
  C  C88  1  0.61970000  0.59370000  0.25090000  1
  C  C89  1  0.62240000  0.37700000  0.63610000  1
  C  C90  1  0.62300000  0.12240000  0.13610000  1
  C  C91  1  0.70780000  0.06120000  0.44340000  1
  C  C92  1  0.79220000  0.43880000  0.44340000  1
  C  C93  1  0.87700000  0.37760000  0.13610000  1
  C  C94  1  0.87760000  0.12300000  0.63610000  1
  C  C95  1  0.88030000  0.90630000  0.25090000  1
  C  C96  1  0.90630000  0.61970000  0.24910000  1
  C  C97  1  0.91880000  0.05830000  0.46290000  1
  C  C98  1  0.93880000  0.20780000  0.94340000  1
  C  C99  1  0.94090000  0.05740000  0.56570000  1
  C  C100  1  0.94170000  0.41880000  0.96290000  1
  C  C101  1  0.94260000  0.44090000  0.06570000  1
  C  C102  1  0.98230000  0.00340000  0.39770000  1
  C  C103  1  0.99660000  0.48230000  0.89770000  1
  S  S104  1  0.01140000  0.52960000  0.23360000  1
  S  S105  1  0.02960000  0.98860000  0.73360000  1
  S  S106  1  0.14580000  0.68070000  0.07350000  1
  S  S107  1  0.18070000  0.85420000  0.57350000  1
  S  S108  1  0.31930000  0.64580000  0.57350000  1
  S  S109  1  0.35420000  0.81930000  0.07350000  1
  S  S110  1  0.47040000  0.51140000  0.73360000  1
  S  S111  1  0.48860000  0.97040000  0.23360000  1
  S  S112  1  0.51140000  0.02960000  0.76640000  1
  S  S113  1  0.52960000  0.48860000  0.26640000  1
  S  S114  1  0.64580000  0.18070000  0.92650000  1
  S  S115  1  0.68070000  0.35420000  0.42650000  1
  S  S116  1  0.81930000  0.14580000  0.42650000  1
  S  S117  1  0.85420000  0.31930000  0.92650000  1
  S  S118  1  0.97040000  0.01140000  0.26640000  1
  S  S119  1  0.98860000  0.47040000  0.76640000  1
  O  O120  1  0.08530000  0.79040000  0.34140000  1
  O  O121  1  0.08590000  0.70530000  0.83690000  1
  O  O122  1  0.20530000  0.91410000  0.33690000  1
  O  O123  1  0.20960000  0.58530000  0.84140000  1
  O  O124  1  0.29040000  0.91470000  0.84140000  1
  O  O125  1  0.29470000  0.58590000  0.33690000  1
  O  O126  1  0.41410000  0.79470000  0.83690000  1
  O  O127  1  0.41470000  0.70960000  0.34140000  1
  O  O128  1  0.58530000  0.29040000  0.65860000  1
  O  O129  1  0.58590000  0.20530000  0.16310000  1
  O  O130  1  0.70530000  0.41410000  0.66310000  1
  O  O131  1  0.70960000  0.08530000  0.15860000  1
  O  O132  1  0.79040000  0.41470000  0.15860000  1
  O  O133  1  0.79470000  0.08590000  0.66310000  1
  O  O134  1  0.91410000  0.29470000  0.16310000  1
  O  O135  1  0.91470000  0.20960000  0.65860000  1
