# generated using pymatgen
data_Co3H38C60(NO)12
_symmetry_space_group_name_H-M   'P 1'
_cell_length_a   13.37210000
_cell_length_b   13.72784662
_cell_length_c   23.47310836
_cell_angle_alpha   76.29394176
_cell_angle_beta   73.45079201
_cell_angle_gamma   60.85359651
_symmetry_Int_Tables_number   1
_chemical_formula_structural   Co3H38C60(NO)12
_chemical_formula_sum   'Co6 H76 C120 N24 O24'
_cell_volume   3582.54900290
_cell_formula_units_Z   2
loop_
 _symmetry_equiv_pos_site_id
 _symmetry_equiv_pos_as_xyz
  1  'x, y, z'
loop_
 _atom_site_type_symbol
 _atom_site_label
 _atom_site_symmetry_multiplicity
 _atom_site_fract_x
 _atom_site_fract_y
 _atom_site_fract_z
 _atom_site_occupancy
  C  C0  1  0.58305000  0.35562000  0.64268000  1
  C  C1  1  0.41865000  0.85562000  0.14268000  1
  C  C2  1  0.71942000  0.98504000  0.99016000  1
  C  C3  1  0.30538000  0.48504000  0.49016000  1
  C  C4  1  0.52337000  0.08189000  0.87197000  1
  C  C5  1  0.52277000  0.58189000  0.37197000  1
  C  C6  1  0.02308000  0.51383000  0.42383000  1
  C  C7  1  0.03926000  0.01383000  0.92383000  1
  C  C8  1  0.93648000  0.53832000  0.39652000  1
  C  C9  1  0.12868000  0.03832000  0.89652000  1
  C  C10  1  0.74110000  0.39681000  0.49669000  1
  C  C11  1  0.36540000  0.89681000  0.99669000  1
  C  C12  1  0.60539000  0.08032000  0.77700000  1
  C  C13  1  0.53729000  0.58032000  0.27700000  1
  C  C14  1  0.66819000  0.36206000  0.48470000  1
  C  C15  1  0.48505000  0.86206000  0.98470000  1
  C  C16  1  0.78161000  0.49035000  0.34805000  1
  C  C17  1  0.37999000  0.99035000  0.84805000  1
  C  C18  1  0.85859000  0.32172000  0.49346000  1
  C  C19  1  0.32623000  0.82172000  0.99346000  1
  C  C20  1  0.72383000  0.47379000  0.31365000  1
  C  C21  1  0.48873000  0.97379000  0.81365000  1
  C  C22  1  0.86528000  0.12168000  0.66138000  1
  C  C23  1  0.35166000  0.62168000  0.16138000  1
  C  C24  1  0.90107000  0.42443000  0.34217000  1
  C  C25  1  0.33233000  0.92443000  0.84217000  1
  C  C26  1  0.06655000  0.36272000  0.39144000  1
  C  C27  1  0.17929000  0.86272000  0.89144000  1
  C  C28  1  0.04030000  0.14078000  0.59194000  1
  C  C29  1  0.22698000  0.64078000  0.09194000  1
  C  C30  1  0.71174000  0.25562000  0.46942000  1
  C  C31  1  0.56322000  0.75562000  0.96942000  1
  C  C32  1  0.89684000  0.88326000  0.82566000  1
  C  C33  1  0.39424000  0.38326000  0.32566000  1
  C  C34  1  0.97801000  0.07843000  0.61603000  1
  C  C35  1  0.32753000  0.57843000  0.11603000  1
  C  C36  1  0.90328000  0.21705000  0.47561000  1
  C  C37  1  0.40406000  0.71705000  0.97561000  1
  C  C38  1  0.11495000  0.67566000  0.01356000  1
  C  C39  1  0.19583000  0.17566000  0.51356000  1
  C  C40  1  0.78168000  0.39469000  0.27375000  1
  C  C41  1  0.54988000  0.89469000  0.77375000  1
  C  C42  1  0.13929000  0.10201000  0.54707000  1
  C  C43  1  0.21163000  0.60201000  0.04707000  1
  C  C44  1  0.96217000  0.34458000  0.30232000  1
  C  C45  1  0.39093000  0.84458000  0.80232000  1
  C  C46  1  0.82991000  0.18224000  0.46376000  1
  C  C47  1  0.52409000  0.68224000  0.96376000  1
  C  C48  1  0.93236000  0.84588000  0.77180000  1
  C  C49  1  0.44996000  0.34588000  0.27180000  1
  C  C50  1  0.90241000  0.33113000  0.26823000  1
  C  C51  1  0.49823000  0.83113000  0.76823000  1
  C  C52  1  0.01943000  0.97423000  0.59675000  1
  C  C53  1  0.40959000  0.47423000  0.09675000  1
  C  C54  1  0.05258000  0.72872000  0.83062000  1
  C  C55  1  0.38808000  0.22872000  0.33062000  1
  C  C56  1  0.18072000  0.99657000  0.52923000  1
  C  C57  1  0.29348000  0.49657000  0.02923000  1
  C  C58  1  0.87706000  0.06928000  0.44534000  1
  C  C59  1  0.60832000  0.56928000  0.94534000  1
  C  C60  1  0.12294000  0.93072000  0.55466000  1
  C  C61  1  0.39168000  0.43072000  0.05466000  1
  C  C62  1  0.81928000  0.00343000  0.47077000  1
  C  C63  1  0.70652000  0.50343000  0.97077000  1
  C  C64  1  0.94742000  0.27128000  0.16938000  1
  C  C65  1  0.61192000  0.77128000  0.66938000  1
  C  C66  1  0.98057000  0.02577000  0.40325000  1
  C  C67  1  0.59041000  0.52577000  0.90325000  1
  C  C68  1  0.09759000  0.66887000  0.73177000  1
  C  C69  1  0.50177000  0.16887000  0.23177000  1
  C  C70  1  0.06764000  0.15412000  0.22820000  1
  C  C71  1  0.55004000  0.65412000  0.72820000  1
  C  C72  1  0.17009000  0.81776000  0.53624000  1
  C  C73  1  0.47591000  0.31776000  0.03624000  1
  C  C74  1  0.03783000  0.65542000  0.69768000  1
  C  C75  1  0.60907000  0.15542000  0.19768000  1
  C  C76  1  0.86071000  0.89799000  0.45293000  1
  C  C77  1  0.78837000  0.39799000  0.95293000  1
  C  C78  1  0.21832000  0.60531000  0.72625000  1
  C  C79  1  0.45012000  0.10531000  0.22625000  1
  C  C80  1  0.88505000  0.32434000  0.98644000  1
  C  C81  1  0.80417000  0.82434000  0.48644000  1
  C  C82  1  0.09672000  0.78295000  0.52439000  1
  C  C83  1  0.59594000  0.28295000  0.02439000  1
  C  C84  1  0.02199000  0.92157000  0.38397000  1
  C  C85  1  0.67247000  0.42157000  0.88397000  1
  C  C86  1  0.10316000  0.11674000  0.17434000  1
  C  C87  1  0.60576000  0.61674000  0.67434000  1
  C  C88  1  0.28826000  0.74438000  0.53058000  1
  C  C89  1  0.43678000  0.24438000  0.03058000  1
  C  C90  1  0.95970000  0.85922000  0.40806000  1
  C  C91  1  0.77302000  0.35922000  0.90806000  1
  C  C92  1  0.93345000  0.63728000  0.60856000  1
  C  C93  1  0.82071000  0.13728000  0.10856000  1
  C  C94  1  0.09893000  0.57557000  0.65783000  1
  C  C95  1  0.66767000  0.07557000  0.15783000  1
  C  C96  1  0.13472000  0.87832000  0.33862000  1
  C  C97  1  0.64834000  0.37832000  0.83862000  1
  C  C98  1  0.27617000  0.52621000  0.68635000  1
  C  C99  1  0.51127000  0.02621000  0.18635000  1
  C  C100  1  0.14141000  0.67828000  0.50654000  1
  C  C101  1  0.67377000  0.17828000  0.00654000  1
  C  C102  1  0.21839000  0.50965000  0.65195000  1
  C  C103  1  0.62001000  0.00965000  0.15195000  1
  C  C104  1  0.33181000  0.63794000  0.51530000  1
  C  C105  1  0.51495000  0.13794000  0.01530000  1
  C  C106  1  0.39461000  0.91968000  0.22300000  1
  C  C107  1  0.46271000  0.41968000  0.72300000  1
  C  C108  1  0.25890000  0.60319000  0.50331000  1
  C  C109  1  0.63460000  0.10319000  0.00331000  1
  C  C110  1  0.06352000  0.46168000  0.60348000  1
  C  C111  1  0.87132000  0.96168000  0.10348000  1
  C  C112  1  0.97692000  0.48617000  0.57617000  1
  C  C113  1  0.96074000  0.98617000  0.07617000  1
  C  C114  1  0.47663000  0.91811000  0.12803000  1
  C  C115  1  0.47723000  0.41811000  0.62803000  1
  C  C116  1  0.28058000  0.01496000  0.00984000  1
  C  C117  1  0.69462000  0.51496000  0.50984000  1
  C  C118  1  0.41695000  0.64438000  0.35732000  1
  C  C119  1  0.58135000  0.14438000  0.85732000  1
  Co  Co120  1  0.69977000  0.25000000  0.75000000  1
  Co  Co121  1  0.30023000  0.75000000  0.25000000  1
  Co  Co122  1  0.96745000  0.81617000  0.95159000  1
  Co  Co123  1  0.26479000  0.31617000  0.45159000  1
  Co  Co124  1  0.03255000  0.18383000  0.04841000  1
  Co  Co125  1  0.73521000  0.68383000  0.54841000  1
  H  H126  1  0.87090000  0.60700000  0.39280000  1
  H  H127  1  0.12930000  0.10700000  0.89280000  1
  H  H128  1  0.97270000  0.43560000  0.55780000  1
  H  H129  1  0.03390000  0.93560000  0.05780000  1
  H  H130  1  0.54030000  0.56890000  0.40950000  1
  H  H131  1  0.48130000  0.06890000  0.90950000  1
  H  H132  1  0.65210000  0.31740000  0.61640000  1
  H  H133  1  0.41410000  0.81740000  0.11640000  1
  H  H134  1  0.74110000  0.54450000  0.37450000  1
  H  H135  1  0.33990000  0.04450000  0.87450000  1
  H  H136  1  0.58920000  0.41100000  0.48700000  1
  H  H137  1  0.51280000  0.91100000  0.98700000  1
  H  H138  1  0.90780000  0.34220000  0.50340000  1
  H  H139  1  0.24660000  0.84220000  0.00340000  1
  H  H140  1  0.01560000  0.20850000  0.60590000  1
  H  H141  1  0.17000000  0.70850000  0.10590000  1
  H  H142  1  0.62880000  0.06490000  0.73750000  1
  H  H143  1  0.56880000  0.56490000  0.23750000  1
  H  H144  1  0.83080000  0.94930000  0.83610000  1
  H  H145  1  0.38380000  0.44930000  0.33610000  1
  H  H146  1  0.66130000  0.23280000  0.46280000  1
  H  H147  1  0.64310000  0.73280000  0.96280000  1
  H  H148  1  0.10490000  0.28880000  0.38280000  1
  H  H149  1  0.22350000  0.78880000  0.88280000  1
  H  H150  1  0.98300000  0.16930000  0.47150000  1
  H  H151  1  0.37620000  0.66930000  0.97150000  1
  H  H152  1  0.74140000  0.38420000  0.25120000  1
  H  H153  1  0.62320000  0.88420000  0.75120000  1
  H  H154  1  0.89640000  0.88030000  0.73890000  1
  H  H155  1  0.48440000  0.38030000  0.23890000  1
  H  H156  1  0.04250000  0.30070000  0.29870000  1
  H  H157  1  0.35810000  0.80070000  0.79870000  1
  H  H158  1  0.97720000  0.93310000  0.61230000  1
  H  H159  1  0.47740000  0.43310000  0.11230000  1
  H  H160  1  0.75190000  0.03010000  0.50010000  1
  H  H161  1  0.71790000  0.53010000  0.00010000  1
  H  H162  1  0.11550000  0.66680000  0.84440000  1
  H  H163  1  0.37330000  0.16680000  0.34440000  1
  H  H164  1  0.88450000  0.33320000  0.15560000  1
  H  H165  1  0.62670000  0.83320000  0.65560000  1
  H  H166  1  0.24810000  0.96990000  0.49990000  1
  H  H167  1  0.28210000  0.46990000  0.99990000  1
  H  H168  1  0.02280000  0.06690000  0.38770000  1
  H  H169  1  0.52260000  0.56690000  0.88770000  1
  H  H170  1  0.95750000  0.69930000  0.70130000  1
  H  H171  1  0.64190000  0.19930000  0.20130000  1
  H  H172  1  0.10360000  0.11970000  0.26110000  1
  H  H173  1  0.51560000  0.61970000  0.76110000  1
  H  H174  1  0.25860000  0.61580000  0.74880000  1
  H  H175  1  0.37680000  0.11580000  0.24880000  1
  H  H176  1  0.01700000  0.83070000  0.52850000  1
  H  H177  1  0.62380000  0.33070000  0.02850000  1
  H  H178  1  0.89510000  0.71120000  0.61720000  1
  H  H179  1  0.77650000  0.21120000  0.11720000  1
  H  H180  1  0.33870000  0.76720000  0.53720000  1
  H  H181  1  0.35690000  0.26720000  0.03720000  1
  H  H182  1  0.16920000  0.05070000  0.16390000  1
  H  H183  1  0.61620000  0.55070000  0.66390000  1
  H  H184  1  0.37120000  0.93510000  0.26250000  1
  H  H185  1  0.43120000  0.43510000  0.76250000  1
  H  H186  1  0.98440000  0.79150000  0.39410000  1
  H  H187  1  0.83000000  0.29150000  0.89410000  1
  H  H188  1  0.09220000  0.65780000  0.49660000  1
  H  H189  1  0.75340000  0.15780000  0.99660000  1
  H  H190  1  0.41080000  0.58900000  0.51300000  1
  H  H191  1  0.48720000  0.08900000  0.01300000  1
  H  H192  1  0.25890000  0.45550000  0.62550000  1
  H  H193  1  0.66010000  0.95550000  0.12550000  1
  H  H194  1  0.34790000  0.68260000  0.38360000  1
  H  H195  1  0.58590000  0.18260000  0.88360000  1
  H  H196  1  0.45970000  0.43110000  0.59050000  1
  H  H197  1  0.51870000  0.93110000  0.09050000  1
  H  H198  1  0.02730000  0.56440000  0.44220000  1
  H  H199  1  0.96610000  0.06440000  0.94220000  1
  H  H200  1  0.12910000  0.39300000  0.60720000  1
  H  H201  1  0.87070000  0.89300000  0.10720000  1
  N  N202  1  0.63288000  0.14335000  0.79765000  1
  N  N203  1  0.42612000  0.64335000  0.29765000  1
  N  N204  1  0.59955000  0.54095000  0.32051000  1
  N  N205  1  0.53899000  0.04095000  0.82051000  1
  N  N206  1  0.07117000  0.90337000  0.92087000  1
  N  N207  1  0.10459000  0.40337000  0.42087000  1
  N  N208  1  0.96488000  0.44080000  0.37504000  1
  N  N209  1  0.21928000  0.94080000  0.87504000  1
  N  N210  1  0.97230000  0.80963000  0.86303000  1
  N  N211  1  0.35504000  0.30963000  0.36303000  1
  N  N212  1  0.03263000  0.74649000  0.77543000  1
  N  N213  1  0.44545000  0.24649000  0.27543000  1
  N  N214  1  0.96737000  0.25351000  0.22457000  1
  N  N215  1  0.55455000  0.75351000  0.72457000  1
  N  N216  1  0.02770000  0.19037000  0.13697000  1
  N  N217  1  0.64496000  0.69037000  0.63697000  1
  N  N218  1  0.03512000  0.55920000  0.62496000  1
  N  N219  1  0.78072000  0.05920000  0.12496000  1
  N  N220  1  0.92883000  0.09663000  0.07913000  1
  N  N221  1  0.89541000  0.59663000  0.57913000  1
  N  N222  1  0.40045000  0.45905000  0.67949000  1
  N  N223  1  0.46101000  0.95905000  0.17949000  1
  N  N224  1  0.36712000  0.85665000  0.20235000  1
  N  N225  1  0.57388000  0.35665000  0.70235000  1
  O  O226  1  0.82283000  0.96597000  0.96439000  1
  O  O227  1  0.24681000  0.46597000  0.46439000  1
  O  O228  1  0.68209000  0.91345000  0.00699000  1
  O  O229  1  0.39747000  0.41345000  0.50699000  1
  O  O230  1  0.84699000  0.19762000  0.69066000  1
  O  O231  1  0.26473000  0.69762000  0.19066000  1
  O  O232  1  0.02752000  0.75746000  0.03586000  1
  O  O233  1  0.17916000  0.25746000  0.53586000  1
  O  O234  1  0.79539000  0.08316000  0.66850000  1
  O  O235  1  0.45295000  0.58316000  0.16850000  1
  O  O236  1  0.12670000  0.65578000  0.96120000  1
  O  O237  1  0.25632000  0.15578000  0.46120000  1
  O  O238  1  0.87330000  0.34422000  0.03880000  1
  O  O239  1  0.74368000  0.84422000  0.53880000  1
  O  O240  1  0.20461000  0.91684000  0.33150000  1
  O  O241  1  0.54705000  0.41684000  0.83150000  1
  O  O242  1  0.97248000  0.24254000  0.96414000  1
  O  O243  1  0.82084000  0.74254000  0.46414000  1
  O  O244  1  0.15301000  0.80238000  0.30934000  1
  O  O245  1  0.73527000  0.30238000  0.80934000  1
  O  O246  1  0.31791000  0.08655000  0.99301000  1
  O  O247  1  0.60253000  0.58655000  0.49301000  1
  O  O248  1  0.17717000  0.03403000  0.03561000  1
  O  O249  1  0.75319000  0.53403000  0.53561000  1
