# generated using pymatgen
data_Co6H17C37(N2O13)2
_symmetry_space_group_name_H-M   'P 1'
_cell_length_a   13.36840000
_cell_length_b   15.91030000
_cell_length_c   24.27840000
_cell_angle_alpha   90.00000000
_cell_angle_beta   90.00000000
_cell_angle_gamma   90.00000000
_symmetry_Int_Tables_number   1
_chemical_formula_structural   Co6H17C37(N2O13)2
_chemical_formula_sum   'Co24 H68 C148 N16 O104'
_cell_volume   5163.90046734
_cell_formula_units_Z   4
loop_
 _symmetry_equiv_pos_site_id
 _symmetry_equiv_pos_as_xyz
  1  'x, y, z'
loop_
 _atom_site_type_symbol
 _atom_site_label
 _atom_site_symmetry_multiplicity
 _atom_site_fract_x
 _atom_site_fract_y
 _atom_site_fract_z
 _atom_site_occupancy
  Co  Co0  1  0.74586000  0.99495000  0.03783000  1
  Co  Co1  1  0.75414000  0.50505000  0.03783000  1
  Co  Co2  1  0.14523000  0.88927000  0.05092000  1
  Co  Co3  1  0.35477000  0.61073000  0.05092000  1
  Co  Co4  1  0.56075000  0.88651000  0.11280000  1
  Co  Co5  1  0.93925000  0.61349000  0.11280000  1
  Co  Co6  1  0.06075000  0.61349000  0.38720000  1
  Co  Co7  1  0.43925000  0.88651000  0.38720000  1
  Co  Co8  1  0.64523000  0.61073000  0.44908000  1
  Co  Co9  1  0.85477000  0.88927000  0.44908000  1
  Co  Co10  1  0.24586000  0.50505000  0.46217000  1
  Co  Co11  1  0.25414000  0.99495000  0.46217000  1
  Co  Co12  1  0.74586000  0.00505000  0.53783000  1
  Co  Co13  1  0.75414000  0.49495000  0.53783000  1
  Co  Co14  1  0.14523000  0.11073000  0.55092000  1
  Co  Co15  1  0.35477000  0.38927000  0.55092000  1
  Co  Co16  1  0.56075000  0.11349000  0.61280000  1
  Co  Co17  1  0.93925000  0.38651000  0.61280000  1
  Co  Co18  1  0.06075000  0.38651000  0.88720000  1
  Co  Co19  1  0.43925000  0.11349000  0.88720000  1
  Co  Co20  1  0.64523000  0.38927000  0.94908000  1
  Co  Co21  1  0.85477000  0.11073000  0.94908000  1
  Co  Co22  1  0.24586000  0.49495000  0.96217000  1
  Co  Co23  1  0.25414000  0.00505000  0.96217000  1
  H  H24  1  0.12160000  0.17220000  0.00100000  1
  H  H25  1  0.37840000  0.32780000  0.00100000  1
  H  H26  1  0.06400000  0.55780000  0.01860000  1
  H  H27  1  0.43600000  0.94220000  0.01860000  1
  H  H28  1  0.25000000  0.75000000  0.04580000  1
  H  H29  1  0.61690000  0.17480000  0.06200000  1
  H  H30  1  0.88310000  0.32520000  0.06200000  1
  H  H31  1  0.13080000  0.36160000  0.11030000  1
  H  H32  1  0.36920000  0.13840000  0.11030000  1
  H  H33  1  0.66870000  0.67200000  0.14290000  1
  H  H34  1  0.83130000  0.82800000  0.14290000  1
  H  H35  1  0.11950000  0.12200000  0.16300000  1
  H  H36  1  0.38050000  0.37800000  0.16300000  1
  H  H37  1  0.64350000  0.35780000  0.17510000  1
  H  H38  1  0.85650000  0.14220000  0.17510000  1
  H  H39  1  0.59430000  0.11980000  0.22340000  1
  H  H40  1  0.90570000  0.38020000  0.22340000  1
  H  H41  1  0.09430000  0.38020000  0.27660000  1
  H  H42  1  0.40570000  0.11980000  0.27660000  1
  H  H43  1  0.14350000  0.14220000  0.32490000  1
  H  H44  1  0.35650000  0.35780000  0.32490000  1
  H  H45  1  0.61950000  0.37800000  0.33700000  1
  H  H46  1  0.88050000  0.12200000  0.33700000  1
  H  H47  1  0.16870000  0.82800000  0.35710000  1
  H  H48  1  0.33130000  0.67200000  0.35710000  1
  H  H49  1  0.63080000  0.13840000  0.38970000  1
  H  H50  1  0.86920000  0.36160000  0.38970000  1
  H  H51  1  0.11690000  0.32520000  0.43800000  1
  H  H52  1  0.38310000  0.17480000  0.43800000  1
  H  H53  1  0.75000000  0.75000000  0.45420000  1
  H  H54  1  0.56400000  0.94220000  0.48140000  1
  H  H55  1  0.93600000  0.55780000  0.48140000  1
  H  H56  1  0.62160000  0.32780000  0.49900000  1
  H  H57  1  0.87840000  0.17220000  0.49900000  1
  H  H58  1  0.12160000  0.82780000  0.50100000  1
  H  H59  1  0.37840000  0.67220000  0.50100000  1
  H  H60  1  0.06400000  0.44220000  0.51860000  1
  H  H61  1  0.43600000  0.05780000  0.51860000  1
  H  H62  1  0.25000000  0.25000000  0.54580000  1
  H  H63  1  0.61690000  0.82520000  0.56200000  1
  H  H64  1  0.88310000  0.67480000  0.56200000  1
  H  H65  1  0.13080000  0.63840000  0.61030000  1
  H  H66  1  0.36920000  0.86160000  0.61030000  1
  H  H67  1  0.66870000  0.32800000  0.64290000  1
  H  H68  1  0.83130000  0.17200000  0.64290000  1
  H  H69  1  0.11950000  0.87800000  0.66300000  1
  H  H70  1  0.38050000  0.62200000  0.66300000  1
  H  H71  1  0.64350000  0.64220000  0.67510000  1
  H  H72  1  0.85650000  0.85780000  0.67510000  1
  H  H73  1  0.59430000  0.88020000  0.72340000  1
  H  H74  1  0.90570000  0.61980000  0.72340000  1
  H  H75  1  0.09430000  0.61980000  0.77660000  1
  H  H76  1  0.40570000  0.88020000  0.77660000  1
  H  H77  1  0.14350000  0.85780000  0.82490000  1
  H  H78  1  0.35650000  0.64220000  0.82490000  1
  H  H79  1  0.61950000  0.62200000  0.83700000  1
  H  H80  1  0.88050000  0.87800000  0.83700000  1
  H  H81  1  0.16870000  0.17200000  0.85710000  1
  H  H82  1  0.33130000  0.32800000  0.85710000  1
  H  H83  1  0.63080000  0.86160000  0.88970000  1
  H  H84  1  0.86920000  0.63840000  0.88970000  1
  H  H85  1  0.11690000  0.67480000  0.93800000  1
  H  H86  1  0.38310000  0.82520000  0.93800000  1
  H  H87  1  0.75000000  0.25000000  0.95420000  1
  H  H88  1  0.56400000  0.05780000  0.98140000  1
  H  H89  1  0.93600000  0.44220000  0.98140000  1
  H  H90  1  0.62160000  0.67220000  0.99900000  1
  H  H91  1  0.87840000  0.82780000  0.99900000  1
  C  C92  1  0.12830000  0.33780000  0.00080000  1
  C  C93  1  0.37170000  0.16220000  0.00080000  1
  C  C94  1  0.12280000  0.19120000  0.03730000  1
  C  C95  1  0.37720000  0.30880000  0.03730000  1
  C  C96  1  0.11400000  0.57650000  0.04220000  1
  C  C97  1  0.38600000  0.92350000  0.04220000  1
  C  C98  1  0.12460000  0.27660000  0.04790000  1
  C  C99  1  0.37540000  0.22340000  0.04790000  1
  C  C100  1  0.64960000  0.34030000  0.06620000  1
  C  C101  1  0.85040000  0.15970000  0.06620000  1
  C  C102  1  0.12900000  0.04190000  0.06840000  1
  C  C103  1  0.37100000  0.45810000  0.06840000  1
  C  C104  1  0.12280000  0.13360000  0.08020000  1
  C  C105  1  0.37720000  0.36640000  0.08020000  1
  C  C106  1  0.25000000  0.75000000  0.08410000  1
  C  C107  1  0.61830000  0.19210000  0.09860000  1
  C  C108  1  0.88170000  0.30790000  0.09860000  1
  C  C109  1  0.12720000  0.30440000  0.10270000  1
  C  C110  1  0.37280000  0.19560000  0.10270000  1
  C  C111  1  0.63310000  0.27640000  0.11110000  1
  C  C112  1  0.86690000  0.22360000  0.11110000  1
  C  C113  1  0.71700000  0.63830000  0.12640000  1
  C  C114  1  0.78300000  0.86170000  0.12640000  1
  C  C115  1  0.58860000  0.04160000  0.12920000  1
  C  C116  1  0.91140000  0.45840000  0.12920000  1
  C  C117  1  0.12190000  0.16080000  0.13430000  1
  C  C118  1  0.37810000  0.33920000  0.13430000  1
  C  C119  1  0.60550000  0.13320000  0.14050000  1
  C  C120  1  0.89450000  0.36680000  0.14050000  1
  C  C121  1  0.12460000  0.24670000  0.14560000  1
  C  C122  1  0.37540000  0.25330000  0.14560000  1
  C  C123  1  0.63430000  0.30150000  0.16630000  1
  C  C124  1  0.86570000  0.19850000  0.16630000  1
  C  C125  1  0.60530000  0.15860000  0.19540000  1
  C  C126  1  0.89470000  0.34140000  0.19540000  1
  C  C127  1  0.62170000  0.24310000  0.20790000  1
  C  C128  1  0.87830000  0.25690000  0.20790000  1
  C  C129  1  0.12170000  0.25690000  0.29210000  1
  C  C130  1  0.37830000  0.24310000  0.29210000  1
  C  C131  1  0.10530000  0.34140000  0.30460000  1
  C  C132  1  0.39470000  0.15860000  0.30460000  1
  C  C133  1  0.13430000  0.19850000  0.33370000  1
  C  C134  1  0.36570000  0.30150000  0.33370000  1
  C  C135  1  0.62460000  0.25330000  0.35440000  1
  C  C136  1  0.87540000  0.24670000  0.35440000  1
  C  C137  1  0.10550000  0.36680000  0.35950000  1
  C  C138  1  0.39450000  0.13320000  0.35950000  1
  C  C139  1  0.62190000  0.33920000  0.36570000  1
  C  C140  1  0.87810000  0.16080000  0.36570000  1
  C  C141  1  0.08860000  0.45840000  0.37080000  1
  C  C142  1  0.41140000  0.04160000  0.37080000  1
  C  C143  1  0.21700000  0.86170000  0.37360000  1
  C  C144  1  0.28300000  0.63830000  0.37360000  1
  C  C145  1  0.13310000  0.22360000  0.38890000  1
  C  C146  1  0.36690000  0.27640000  0.38890000  1
  C  C147  1  0.62720000  0.19560000  0.39730000  1
  C  C148  1  0.87280000  0.30440000  0.39730000  1
  C  C149  1  0.11830000  0.30790000  0.40140000  1
  C  C150  1  0.38170000  0.19210000  0.40140000  1
  C  C151  1  0.75000000  0.75000000  0.41590000  1
  C  C152  1  0.62280000  0.36640000  0.41980000  1
  C  C153  1  0.87720000  0.13360000  0.41980000  1
  C  C154  1  0.62900000  0.45810000  0.43160000  1
  C  C155  1  0.87100000  0.04190000  0.43160000  1
  C  C156  1  0.14960000  0.15970000  0.43380000  1
  C  C157  1  0.35040000  0.34030000  0.43380000  1
  C  C158  1  0.62460000  0.22340000  0.45210000  1
  C  C159  1  0.87540000  0.27660000  0.45210000  1
  C  C160  1  0.61400000  0.92350000  0.45780000  1
  C  C161  1  0.88600000  0.57650000  0.45780000  1
  C  C162  1  0.62280000  0.30880000  0.46270000  1
  C  C163  1  0.87720000  0.19120000  0.46270000  1
  C  C164  1  0.62830000  0.16220000  0.49920000  1
  C  C165  1  0.87170000  0.33780000  0.49920000  1
  C  C166  1  0.12830000  0.66220000  0.50080000  1
  C  C167  1  0.37170000  0.83780000  0.50080000  1
  C  C168  1  0.12280000  0.80880000  0.53730000  1
  C  C169  1  0.37720000  0.69120000  0.53730000  1
  C  C170  1  0.11400000  0.42350000  0.54220000  1
  C  C171  1  0.38600000  0.07650000  0.54220000  1
  C  C172  1  0.12460000  0.72340000  0.54790000  1
  C  C173  1  0.37540000  0.77660000  0.54790000  1
  C  C174  1  0.64960000  0.65970000  0.56620000  1
  C  C175  1  0.85040000  0.84030000  0.56620000  1
  C  C176  1  0.12900000  0.95810000  0.56840000  1
  C  C177  1  0.37100000  0.54190000  0.56840000  1
  C  C178  1  0.12280000  0.86640000  0.58020000  1
  C  C179  1  0.37720000  0.63360000  0.58020000  1
  C  C180  1  0.25000000  0.25000000  0.58410000  1
  C  C181  1  0.61830000  0.80790000  0.59860000  1
  C  C182  1  0.88170000  0.69210000  0.59860000  1
  C  C183  1  0.12720000  0.69560000  0.60270000  1
  C  C184  1  0.37280000  0.80440000  0.60270000  1
  C  C185  1  0.63310000  0.72360000  0.61110000  1
  C  C186  1  0.86690000  0.77640000  0.61110000  1
  C  C187  1  0.71700000  0.36170000  0.62640000  1
  C  C188  1  0.78300000  0.13830000  0.62640000  1
  C  C189  1  0.58860000  0.95840000  0.62920000  1
  C  C190  1  0.91140000  0.54160000  0.62920000  1
  C  C191  1  0.12190000  0.83920000  0.63430000  1
  C  C192  1  0.37810000  0.66080000  0.63430000  1
  C  C193  1  0.60550000  0.86680000  0.64050000  1
  C  C194  1  0.89450000  0.63320000  0.64050000  1
  C  C195  1  0.12460000  0.75330000  0.64560000  1
  C  C196  1  0.37540000  0.74670000  0.64560000  1
  C  C197  1  0.63430000  0.69850000  0.66630000  1
  C  C198  1  0.86570000  0.80150000  0.66630000  1
  C  C199  1  0.60530000  0.84140000  0.69540000  1
  C  C200  1  0.89470000  0.65860000  0.69540000  1
  C  C201  1  0.62170000  0.75690000  0.70790000  1
  C  C202  1  0.87830000  0.74310000  0.70790000  1
  C  C203  1  0.12170000  0.74310000  0.79210000  1
  C  C204  1  0.37830000  0.75690000  0.79210000  1
  C  C205  1  0.10530000  0.65860000  0.80460000  1
  C  C206  1  0.39470000  0.84140000  0.80460000  1
  C  C207  1  0.13430000  0.80150000  0.83370000  1
  C  C208  1  0.36570000  0.69850000  0.83370000  1
  C  C209  1  0.62460000  0.74670000  0.85440000  1
  C  C210  1  0.87540000  0.75330000  0.85440000  1
  C  C211  1  0.10550000  0.63320000  0.85950000  1
  C  C212  1  0.39450000  0.86680000  0.85950000  1
  C  C213  1  0.62190000  0.66080000  0.86570000  1
  C  C214  1  0.87810000  0.83920000  0.86570000  1
  C  C215  1  0.08860000  0.54160000  0.87080000  1
  C  C216  1  0.41140000  0.95840000  0.87080000  1
  C  C217  1  0.21700000  0.13830000  0.87360000  1
  C  C218  1  0.28300000  0.36170000  0.87360000  1
  C  C219  1  0.13310000  0.77640000  0.88890000  1
  C  C220  1  0.36690000  0.72360000  0.88890000  1
  C  C221  1  0.62720000  0.80440000  0.89730000  1
  C  C222  1  0.87280000  0.69560000  0.89730000  1
  C  C223  1  0.11830000  0.69210000  0.90140000  1
  C  C224  1  0.38170000  0.80790000  0.90140000  1
  C  C225  1  0.75000000  0.25000000  0.91590000  1
  C  C226  1  0.62280000  0.63360000  0.91980000  1
  C  C227  1  0.87720000  0.86640000  0.91980000  1
  C  C228  1  0.62900000  0.54190000  0.93160000  1
  C  C229  1  0.87100000  0.95810000  0.93160000  1
  C  C230  1  0.14960000  0.84030000  0.93380000  1
  C  C231  1  0.35040000  0.65970000  0.93380000  1
  C  C232  1  0.62460000  0.77660000  0.95210000  1
  C  C233  1  0.87540000  0.72340000  0.95210000  1
  C  C234  1  0.61400000  0.07650000  0.95780000  1
  C  C235  1  0.88600000  0.42350000  0.95780000  1
  C  C236  1  0.62280000  0.69120000  0.96270000  1
  C  C237  1  0.87720000  0.80880000  0.96270000  1
  C  C238  1  0.62830000  0.83780000  0.99920000  1
  C  C239  1  0.87170000  0.66220000  0.99920000  1
  N  N240  1  0.12590000  0.27990000  0.20026000  1
  N  N241  1  0.37410000  0.22010000  0.20026000  1
  N  N242  1  0.12350000  0.22480000  0.23736000  1
  N  N243  1  0.37650000  0.27520000  0.23736000  1
  N  N244  1  0.62350000  0.27520000  0.26264000  1
  N  N245  1  0.87650000  0.22480000  0.26264000  1
  N  N246  1  0.62590000  0.22010000  0.29974000  1
  N  N247  1  0.87410000  0.27990000  0.29974000  1
  N  N248  1  0.12590000  0.72010000  0.70026000  1
  N  N249  1  0.37410000  0.77990000  0.70026000  1
  N  N250  1  0.12350000  0.77520000  0.73736000  1
  N  N251  1  0.37650000  0.72480000  0.73736000  1
  N  N252  1  0.62350000  0.72480000  0.76264000  1
  N  N253  1  0.87650000  0.77520000  0.76264000  1
  N  N254  1  0.62590000  0.77990000  0.79974000  1
  N  N255  1  0.87410000  0.72010000  0.79974000  1
  O  O256  1  0.16970000  0.40730000  0.00969000  1
  O  O257  1  0.33030000  0.09270000  0.00969000  1
  O  O258  1  0.63320000  0.31720000  0.01725000  1
  O  O259  1  0.86680000  0.18280000  0.01725000  1
  O  O260  1  0.12650000  0.01540000  0.01870000  1
  O  O261  1  0.37350000  0.48460000  0.01870000  1
  O  O262  1  0.20310000  0.57890000  0.02362000  1
  O  O263  1  0.29690000  0.92110000  0.02362000  1
  O  O264  1  0.58840000  0.81460000  0.04403000  1
  O  O265  1  0.91160000  0.68540000  0.04403000  1
  O  O266  1  0.67930000  0.41230000  0.08081000  1
  O  O267  1  0.82070000  0.08770000  0.08081000  1
  O  O268  1  0.61030000  0.01060000  0.08206000  1
  O  O269  1  0.88970000  0.48940000  0.08206000  1
  O  O270  1  0.68740000  0.59360000  0.08666000  1
  O  O271  1  0.81260000  0.90640000  0.08666000  1
  O  O272  1  0.08920000  0.59720000  0.08938000  1
  O  O273  1  0.41080000  0.90280000  0.08938000  1
  O  O274  1  0.19880000  0.80510000  0.10647000  1
  O  O275  1  0.30120000  0.69490000  0.10647000  1
  O  O276  1  0.13730000  0.99030000  0.10737000  1
  O  O277  1  0.36270000  0.50970000  0.10737000  1
  O  O278  1  0.69760000  0.85710000  0.14619000  1
  O  O279  1  0.80240000  0.64290000  0.14619000  1
  O  O280  1  0.55190000  0.99560000  0.16535000  1
  O  O281  1  0.94810000  0.50440000  0.16535000  1
  O  O282  1  0.05190000  0.50440000  0.33465000  1
  O  O283  1  0.44810000  0.99560000  0.33465000  1
  O  O284  1  0.19760000  0.64290000  0.35381000  1
  O  O285  1  0.30240000  0.85710000  0.35381000  1
  O  O286  1  0.63730000  0.50970000  0.39263000  1
  O  O287  1  0.86270000  0.99030000  0.39263000  1
  O  O288  1  0.69880000  0.69490000  0.39353000  1
  O  O289  1  0.80120000  0.80510000  0.39353000  1
  O  O290  1  0.58920000  0.90280000  0.41062000  1
  O  O291  1  0.91080000  0.59720000  0.41062000  1
  O  O292  1  0.18740000  0.90640000  0.41334000  1
  O  O293  1  0.31260000  0.59360000  0.41334000  1
  O  O294  1  0.11030000  0.48940000  0.41794000  1
  O  O295  1  0.38970000  0.01060000  0.41794000  1
  O  O296  1  0.17930000  0.08770000  0.41919000  1
  O  O297  1  0.32070000  0.41230000  0.41919000  1
  O  O298  1  0.08840000  0.68540000  0.45597000  1
  O  O299  1  0.41160000  0.81460000  0.45597000  1
  O  O300  1  0.70310000  0.92110000  0.47638000  1
  O  O301  1  0.79690000  0.57890000  0.47638000  1
  O  O302  1  0.62650000  0.48460000  0.48130000  1
  O  O303  1  0.87350000  0.01540000  0.48130000  1
  O  O304  1  0.13320000  0.18280000  0.48275000  1
  O  O305  1  0.36680000  0.31720000  0.48275000  1
  O  O306  1  0.66970000  0.09270000  0.49031000  1
  O  O307  1  0.83030000  0.40730000  0.49031000  1
  O  O308  1  0.16970000  0.59270000  0.50969000  1
  O  O309  1  0.33030000  0.90730000  0.50969000  1
  O  O310  1  0.63320000  0.68280000  0.51725000  1
  O  O311  1  0.86680000  0.81720000  0.51725000  1
  O  O312  1  0.12650000  0.98460000  0.51870000  1
  O  O313  1  0.37350000  0.51540000  0.51870000  1
  O  O314  1  0.20310000  0.42110000  0.52362000  1
  O  O315  1  0.29690000  0.07890000  0.52362000  1
  O  O316  1  0.58840000  0.18540000  0.54403000  1
  O  O317  1  0.91160000  0.31460000  0.54403000  1
  O  O318  1  0.67930000  0.58770000  0.58081000  1
  O  O319  1  0.82070000  0.91230000  0.58081000  1
  O  O320  1  0.61030000  0.98940000  0.58206000  1
  O  O321  1  0.88970000  0.51060000  0.58206000  1
  O  O322  1  0.68740000  0.40640000  0.58666000  1
  O  O323  1  0.81260000  0.09360000  0.58666000  1
  O  O324  1  0.08920000  0.40280000  0.58938000  1
  O  O325  1  0.41080000  0.09720000  0.58938000  1
  O  O326  1  0.19880000  0.19490000  0.60647000  1
  O  O327  1  0.30120000  0.30510000  0.60647000  1
  O  O328  1  0.13730000  0.00970000  0.60737000  1
  O  O329  1  0.36270000  0.49030000  0.60737000  1
  O  O330  1  0.69760000  0.14290000  0.64619000  1
  O  O331  1  0.80240000  0.35710000  0.64619000  1
  O  O332  1  0.55190000  0.00440000  0.66535000  1
  O  O333  1  0.94810000  0.49560000  0.66535000  1
  O  O334  1  0.05190000  0.49560000  0.83465000  1
  O  O335  1  0.44810000  0.00440000  0.83465000  1
  O  O336  1  0.19760000  0.35710000  0.85381000  1
  O  O337  1  0.30240000  0.14290000  0.85381000  1
  O  O338  1  0.63730000  0.49030000  0.89263000  1
  O  O339  1  0.86270000  0.00970000  0.89263000  1
  O  O340  1  0.69880000  0.30510000  0.89353000  1
  O  O341  1  0.80120000  0.19490000  0.89353000  1
  O  O342  1  0.58920000  0.09720000  0.91062000  1
  O  O343  1  0.91080000  0.40280000  0.91062000  1
  O  O344  1  0.18740000  0.09360000  0.91334000  1
  O  O345  1  0.31260000  0.40640000  0.91334000  1
  O  O346  1  0.11030000  0.51060000  0.91794000  1
  O  O347  1  0.38970000  0.98940000  0.91794000  1
  O  O348  1  0.17930000  0.91230000  0.91919000  1
  O  O349  1  0.32070000  0.58770000  0.91919000  1
  O  O350  1  0.08840000  0.31460000  0.95597000  1
  O  O351  1  0.41160000  0.18540000  0.95597000  1
  O  O352  1  0.70310000  0.07890000  0.97638000  1
  O  O353  1  0.79690000  0.42110000  0.97638000  1
  O  O354  1  0.62650000  0.51540000  0.98130000  1
  O  O355  1  0.87350000  0.98460000  0.98130000  1
  O  O356  1  0.13320000  0.81720000  0.98275000  1
  O  O357  1  0.36680000  0.68280000  0.98275000  1
  O  O358  1  0.66970000  0.90730000  0.99031000  1
  O  O359  1  0.83030000  0.59270000  0.99031000  1
