# generated using pymatgen
data_MnH4(C2O)4
_symmetry_space_group_name_H-M   'P 1'
_cell_length_a   11.14660000
_cell_length_b   13.07210000
_cell_length_c   13.07210000
_cell_angle_alpha   90.00000000
_cell_angle_beta   90.00000000
_cell_angle_gamma   90.00000000
_symmetry_Int_Tables_number   1
_chemical_formula_structural   MnH4(C2O)4
_chemical_formula_sum   'Mn8 H32 C64 O32'
_cell_volume   1904.72876096
_cell_formula_units_Z   8
loop_
 _symmetry_equiv_pos_site_id
 _symmetry_equiv_pos_as_xyz
  1  'x, y, z'
loop_
 _atom_site_type_symbol
 _atom_site_label
 _atom_site_symmetry_multiplicity
 _atom_site_fract_x
 _atom_site_fract_y
 _atom_site_fract_z
 _atom_site_occupancy
  Mn  Mn0  1  0.81134000  0.24177000  0.51143000  1
  Mn  Mn1  1  0.65987000  0.24817000  0.28036000  1
  Mn  Mn2  1  0.90987000  0.28036000  0.75183000  1
  Mn  Mn3  1  0.56134000  0.48857000  0.24177000  1
  Mn  Mn4  1  0.06134000  0.51143000  0.75823000  1
  Mn  Mn5  1  0.40987000  0.71964000  0.24817000  1
  Mn  Mn6  1  0.15987000  0.75183000  0.71964000  1
  Mn  Mn7  1  0.31134000  0.75823000  0.48857000  1
  H  H8  1  0.56220000  0.00270000  0.62260000  1
  H  H9  1  0.76590000  0.01740000  0.87650000  1
  H  H10  1  0.39870000  0.05140000  0.89110000  1
  H  H11  1  0.14870000  0.10890000  0.05140000  1
  H  H12  1  0.51590000  0.12350000  0.01740000  1
  H  H13  1  0.22530000  0.12950000  0.83610000  1
  H  H14  1  0.97530000  0.16390000  0.12950000  1
  H  H15  1  0.11230000  0.20200000  0.42950000  1
  H  H16  1  0.21310000  0.21810000  0.27590000  1
  H  H17  1  0.54240000  0.22370000  0.62460000  1
  H  H18  1  0.46310000  0.27590000  0.78190000  1
  H  H19  1  0.29240000  0.37540000  0.22370000  1
  H  H20  1  0.31220000  0.37740000  0.00270000  1
  H  H21  1  0.36230000  0.42950000  0.79800000  1
  H  H22  1  0.42300000  0.48890000  0.50070000  1
  H  H23  1  0.17300000  0.49930000  0.48890000  1
  H  H24  1  0.67300000  0.50070000  0.51110000  1
  H  H25  1  0.92300000  0.51110000  0.49930000  1
  H  H26  1  0.86230000  0.57050000  0.20200000  1
  H  H27  1  0.81220000  0.62260000  0.99730000  1
  H  H28  1  0.79240000  0.62460000  0.77630000  1
  H  H29  1  0.96310000  0.72410000  0.21810000  1
  H  H30  1  0.04240000  0.77630000  0.37540000  1
  H  H31  1  0.71310000  0.78190000  0.72410000  1
  H  H32  1  0.61230000  0.79800000  0.57050000  1
  H  H33  1  0.47530000  0.83610000  0.87050000  1
  H  H34  1  0.72530000  0.87050000  0.16390000  1
  H  H35  1  0.01590000  0.87650000  0.98260000  1
  H  H36  1  0.64870000  0.89110000  0.94860000  1
  H  H37  1  0.89870000  0.94860000  0.10890000  1
  H  H38  1  0.26590000  0.98260000  0.12350000  1
  H  H39  1  0.06220000  0.99730000  0.37740000  1
  C  C40  1  0.20210000  0.01060000  0.15980000  1
  C  C41  1  0.07850000  0.01800000  0.31070000  1
  C  C42  1  0.67890000  0.01990000  0.73990000  1
  C  C43  1  0.12860000  0.08330000  0.11550000  1
  C  C44  1  0.00280000  0.08640000  0.26210000  1
  C  C45  1  0.75990000  0.09740000  0.69090000  1
  C  C46  1  0.37860000  0.11550000  0.91670000  1
  C  C47  1  0.02680000  0.11900000  0.16290000  1
  C  C48  1  0.89250000  0.13170000  0.31340000  1
  C  C49  1  0.45210000  0.15980000  0.98940000  1
  C  C50  1  0.27680000  0.16290000  0.88100000  1
  C  C51  1  0.42890000  0.26010000  0.01990000  1
  C  C52  1  0.25280000  0.26210000  0.91360000  1
  C  C53  1  0.14420000  0.26500000  0.41060000  1
  C  C54  1  0.20430000  0.27480000  0.31820000  1
  C  C55  1  0.50150000  0.28800000  0.63150000  1
  C  C56  1  0.50990000  0.30910000  0.09740000  1
  C  C57  1  0.32850000  0.31070000  0.98200000  1
  C  C58  1  0.14250000  0.31340000  0.86830000  1
  C  C59  1  0.45430000  0.31820000  0.72520000  1
  C  C60  1  0.54600000  0.32670000  0.44630000  1
  C  C61  1  0.06860000  0.33940000  0.57520000  1
  C  C62  1  0.13170000  0.34770000  0.47420000  1
  C  C63  1  0.48880000  0.35360000  0.54670000  1
  C  C64  1  0.25150000  0.36850000  0.28800000  1
  C  C65  1  0.39420000  0.41060000  0.73500000  1
  C  C66  1  0.81860000  0.42480000  0.33940000  1
  C  C67  1  0.18040000  0.44320000  0.44560000  1
  C  C68  1  0.43040000  0.44560000  0.55680000  1
  C  C69  1  0.79600000  0.44630000  0.67330000  1
  C  C70  1  0.23880000  0.45330000  0.35360000  1
  C  C71  1  0.38170000  0.47420000  0.65230000  1
  C  C72  1  0.88170000  0.52580000  0.34770000  1
  C  C73  1  0.73880000  0.54670000  0.64640000  1
  C  C74  1  0.29600000  0.55370000  0.32670000  1
  C  C75  1  0.93040000  0.55440000  0.44320000  1
  C  C76  1  0.68040000  0.55680000  0.55440000  1
  C  C77  1  0.31860000  0.57520000  0.66060000  1
  C  C78  1  0.89420000  0.58940000  0.26500000  1
  C  C79  1  0.75150000  0.63150000  0.71200000  1
  C  C80  1  0.98880000  0.64640000  0.45330000  1
  C  C81  1  0.63170000  0.65230000  0.52580000  1
  C  C82  1  0.56860000  0.66060000  0.42480000  1
  C  C83  1  0.04600000  0.67330000  0.55370000  1
  C  C84  1  0.95430000  0.68180000  0.27480000  1
  C  C85  1  0.64250000  0.68660000  0.13170000  1
  C  C86  1  0.82850000  0.68930000  0.01800000  1
  C  C87  1  0.00990000  0.69090000  0.90260000  1
  C  C88  1  0.00150000  0.71200000  0.36850000  1
  C  C89  1  0.70430000  0.72520000  0.68180000  1
  C  C90  1  0.64420000  0.73500000  0.58940000  1
  C  C91  1  0.75280000  0.73790000  0.08640000  1
  C  C92  1  0.92890000  0.73990000  0.98010000  1
  C  C93  1  0.77680000  0.83710000  0.11900000  1
  C  C94  1  0.95210000  0.84020000  0.01060000  1
  C  C95  1  0.39250000  0.86830000  0.68660000  1
  C  C96  1  0.52680000  0.88100000  0.83710000  1
  C  C97  1  0.87860000  0.88450000  0.08330000  1
  C  C98  1  0.25990000  0.90260000  0.30910000  1
  C  C99  1  0.50280000  0.91360000  0.73790000  1
  C  C100  1  0.62860000  0.91670000  0.88450000  1
  C  C101  1  0.17890000  0.98010000  0.26010000  1
  C  C102  1  0.57850000  0.98200000  0.68930000  1
  C  C103  1  0.70210000  0.98940000  0.84020000  1
  O  O104  1  0.73590000  0.12270000  0.60140000  1
  O  O105  1  0.88590000  0.12830000  0.40860000  1
  O  O106  1  0.84410000  0.13200000  0.74320000  1
  O  O107  1  0.81570000  0.16850000  0.25530000  1
  O  O108  1  0.06570000  0.25530000  0.83150000  1
  O  O109  1  0.62620000  0.25610000  0.44490000  1
  O  O110  1  0.59410000  0.25680000  0.13200000  1
  O  O111  1  0.99030000  0.27020000  0.59100000  1
  O  O112  1  0.84860000  0.35670000  0.40550000  1
  O  O113  1  0.76450000  0.36510000  0.62900000  1
  O  O114  1  0.51450000  0.37100000  0.36510000  1
  O  O115  1  0.48590000  0.39860000  0.12270000  1
  O  O116  1  0.09860000  0.40550000  0.64330000  1
  O  O117  1  0.13590000  0.40860000  0.87170000  1
  O  O118  1  0.74030000  0.40900000  0.27020000  1
  O  O119  1  0.87620000  0.44490000  0.74390000  1
  O  O120  1  0.37620000  0.55510000  0.25610000  1
  O  O121  1  0.24030000  0.59100000  0.72980000  1
  O  O122  1  0.63590000  0.59140000  0.12830000  1
  O  O123  1  0.59860000  0.59450000  0.35670000  1
  O  O124  1  0.98590000  0.60140000  0.87730000  1
  O  O125  1  0.01450000  0.62900000  0.63490000  1
  O  O126  1  0.26450000  0.63490000  0.37100000  1
  O  O127  1  0.34860000  0.64330000  0.59450000  1
  O  O128  1  0.49030000  0.72980000  0.40900000  1
  O  O129  1  0.09410000  0.74320000  0.86800000  1
  O  O130  1  0.12620000  0.74390000  0.55510000  1
  O  O131  1  0.56570000  0.74470000  0.16850000  1
  O  O132  1  0.31570000  0.83150000  0.74470000  1
  O  O133  1  0.34410000  0.86800000  0.25680000  1
  O  O134  1  0.38590000  0.87170000  0.59140000  1
  O  O135  1  0.23590000  0.87730000  0.39860000  1
