# generated using pymatgen
data_YbH6(C2O)6
_symmetry_space_group_name_H-M   'P 1'
_cell_length_a   10.63473634
_cell_length_b   10.63473634
_cell_length_c   17.39840000
_cell_angle_alpha   80.21555519
_cell_angle_beta   80.21555519
_cell_angle_gamma   61.33247566
_symmetry_Int_Tables_number   1
_chemical_formula_structural   YbH6(C2O)6
_chemical_formula_sum   'Yb4 H24 C48 O24'
_cell_volume   1692.47898596
_cell_formula_units_Z   4
loop_
 _symmetry_equiv_pos_site_id
 _symmetry_equiv_pos_as_xyz
  1  'x, y, z'
loop_
 _atom_site_type_symbol
 _atom_site_label
 _atom_site_symmetry_multiplicity
 _atom_site_fract_x
 _atom_site_fract_y
 _atom_site_fract_z
 _atom_site_occupancy
  C  C0  1  0.24330000  0.96330000  0.52960000  1
  C  C1  1  0.96330000  0.24330000  0.02960000  1
  C  C2  1  0.28080000  0.93540000  0.23850000  1
  C  C3  1  0.93540000  0.28080000  0.73850000  1
  C  C4  1  0.22120000  0.00560000  0.91700000  1
  C  C5  1  0.00560000  0.22120000  0.41700000  1
  C  C6  1  0.37670000  0.98210000  0.51470000  1
  C  C7  1  0.98210000  0.37670000  0.01470000  1
  C  C8  1  0.41030000  0.95010000  0.19900000  1
  C  C9  1  0.95010000  0.41030000  0.69900000  1
  C  C10  1  0.35100000  0.01880000  0.87600000  1
  C  C11  1  0.01880000  0.35100000  0.37600000  1
  C  C12  1  0.45180000  0.96760000  0.44070000  1
  C  C13  1  0.96760000  0.45180000  0.94070000  1
  C  C14  1  0.53790000  0.88810000  0.23510000  1
  C  C15  1  0.88810000  0.53790000  0.73510000  1
  C  C16  1  0.40370000  0.02890000  0.12530000  1
  C  C17  1  0.02890000  0.40370000  0.62530000  1
  C  C18  1  0.47780000  0.95640000  0.91230000  1
  C  C19  1  0.95640000  0.47780000  0.41230000  1
  C  C20  1  0.34370000  0.09630000  0.80190000  1
  C  C21  1  0.42500000  0.01500000  0.57460000  1
  C  C22  1  0.01500000  0.42500000  0.07460000  1
  C  C23  1  0.09630000  0.34370000  0.30190000  1
  C  C24  1  0.57500000  0.98500000  0.42540000  1
  C  C25  1  0.65630000  0.90370000  0.19810000  1
  C  C26  1  0.90370000  0.65630000  0.69810000  1
  C  C27  1  0.98500000  0.57500000  0.92540000  1
  C  C28  1  0.52220000  0.04360000  0.08770000  1
  C  C29  1  0.04360000  0.52220000  0.58770000  1
  C  C30  1  0.59630000  0.97110000  0.87470000  1
  C  C31  1  0.97110000  0.59630000  0.37470000  1
  C  C32  1  0.46210000  0.11190000  0.76490000  1
  C  C33  1  0.11190000  0.46210000  0.26490000  1
  C  C34  1  0.54820000  0.03240000  0.55930000  1
  C  C35  1  0.03240000  0.54820000  0.05930000  1
  C  C36  1  0.64900000  0.98120000  0.12400000  1
  C  C37  1  0.98120000  0.64900000  0.62400000  1
  C  C38  1  0.58970000  0.04990000  0.80100000  1
  C  C39  1  0.04990000  0.58970000  0.30100000  1
  C  C40  1  0.62330000  0.01790000  0.48530000  1
  C  C41  1  0.01790000  0.62330000  0.98530000  1
  C  C42  1  0.77880000  0.99440000  0.08300000  1
  C  C43  1  0.99440000  0.77880000  0.58300000  1
  C  C44  1  0.71920000  0.06460000  0.76150000  1
  C  C45  1  0.06460000  0.71920000  0.26150000  1
  C  C46  1  0.75670000  0.03670000  0.47040000  1
  C  C47  1  0.03670000  0.75670000  0.97040000  1
  H  H48  1  0.41840000  0.94560000  0.40010000  1
  H  H49  1  0.94560000  0.41840000  0.90010000  1
  H  H50  1  0.54330000  0.83490000  0.28530000  1
  H  H51  1  0.83490000  0.54330000  0.78530000  1
  H  H52  1  0.48270000  0.90390000  0.96260000  1
  H  H53  1  0.90390000  0.48270000  0.46260000  1
  H  H54  1  0.31690000  0.07270000  0.10090000  1
  H  H55  1  0.07270000  0.31690000  0.60090000  1
  H  H56  1  0.25760000  0.13820000  0.77700000  1
  H  H57  1  0.13820000  0.25760000  0.27700000  1
  H  H58  1  0.37380000  0.02540000  0.62550000  1
  H  H59  1  0.02540000  0.37380000  0.12550000  1
  H  H60  1  0.62620000  0.97460000  0.37450000  1
  H  H61  1  0.97460000  0.62620000  0.87450000  1
  H  H62  1  0.74240000  0.86180000  0.22300000  1
  H  H63  1  0.86180000  0.74240000  0.72300000  1
  H  H64  1  0.68310000  0.92730000  0.89910000  1
  H  H65  1  0.92730000  0.68310000  0.39910000  1
  H  H66  1  0.51730000  0.09610000  0.03740000  1
  H  H67  1  0.09610000  0.51730000  0.53740000  1
  H  H68  1  0.45670000  0.16510000  0.71470000  1
  H  H69  1  0.16510000  0.45670000  0.21470000  1
  H  H70  1  0.58160000  0.05440000  0.59990000  1
  H  H71  1  0.05440000  0.58160000  0.09990000  1
  O  O72  1  0.22030000  0.90610000  0.47880000  1
  O  O73  1  0.90610000  0.22030000  0.97880000  1
  O  O74  1  0.18030000  0.96790000  0.19720000  1
  O  O75  1  0.96790000  0.18030000  0.69720000  1
  O  O76  1  0.12510000  0.02630000  0.87490000  1
  O  O77  1  0.02630000  0.12510000  0.37490000  1
  O  O78  1  0.16040000  0.00640000  0.59130000  1
  O  O79  1  0.00640000  0.16040000  0.09130000  1
  O  O80  1  0.27650000  0.89350000  0.31040000  1
  O  O81  1  0.89350000  0.27650000  0.81040000  1
  O  O82  1  0.21630000  0.97690000  0.99010000  1
  O  O83  1  0.97690000  0.21630000  0.49010000  1
  O  O84  1  0.78370000  0.02310000  0.00990000  1
  O  O85  1  0.02310000  0.78370000  0.50990000  1
  O  O86  1  0.72350000  0.10650000  0.68960000  1
  O  O87  1  0.10650000  0.72350000  0.18960000  1
  O  O88  1  0.83960000  0.99360000  0.40870000  1
  O  O89  1  0.99360000  0.83960000  0.90870000  1
  O  O90  1  0.87490000  0.97370000  0.12510000  1
  O  O91  1  0.97370000  0.87490000  0.62510000  1
  O  O92  1  0.81970000  0.03210000  0.80280000  1
  O  O93  1  0.03210000  0.81970000  0.30280000  1
  O  O94  1  0.77970000  0.09390000  0.52120000  1
  O  O95  1  0.09390000  0.77970000  0.02120000  1
  Yb  Yb96  1  0.10943000  0.91261000  0.10204000  1
  Yb  Yb97  1  0.91261000  0.10943000  0.60204000  1
  Yb  Yb98  1  0.89057000  0.08739000  0.89796000  1
  Yb  Yb99  1  0.08739000  0.89057000  0.39796000  1
