# generated using pymatgen
data_Er2C12(NO4)3
_symmetry_space_group_name_H-M   'P 1'
_cell_length_a   8.93990000
_cell_length_b   13.69300000
_cell_length_c   22.10300000
_cell_angle_alpha   90.00000000
_cell_angle_beta   90.00000000
_cell_angle_gamma   95.46000000
_symmetry_Int_Tables_number   1
_chemical_formula_structural   Er2C12(NO4)3
_chemical_formula_sum   'Er8 C48 N12 O48'
_cell_volume   2693.44156600
_cell_formula_units_Z   4
loop_
 _symmetry_equiv_pos_site_id
 _symmetry_equiv_pos_as_xyz
  1  'x, y, z'
loop_
 _atom_site_type_symbol
 _atom_site_label
 _atom_site_symmetry_multiplicity
 _atom_site_fract_x
 _atom_site_fract_y
 _atom_site_fract_z
 _atom_site_occupancy
  Er  Er0  1  0.01716000  0.02390000  0.67364000  1
  Er  Er1  1  0.01716000  0.52390000  0.82636000  1
  Er  Er2  1  0.45350000  0.24456000  0.89091000  1
  Er  Er3  1  0.45350000  0.74456000  0.60909000  1
  Er  Er4  1  0.54650000  0.25544000  0.39091000  1
  Er  Er5  1  0.54650000  0.75544000  0.10909000  1
  Er  Er6  1  0.98284000  0.47610000  0.17365000  1
  Er  Er7  1  0.98284000  0.97610000  0.32636000  1
  C  C8  1  0.06520000  0.30520000  0.27170000  1
  C  C9  1  0.06520000  0.80520000  0.22830000  1
  C  C10  1  0.07140000  0.42970000  0.02930000  1
  C  C11  1  0.07140000  0.92970000  0.47070000  1
  C  C12  1  0.08160000  0.21160000  0.29280000  1
  C  C13  1  0.08160000  0.71160000  0.20720000  1
  C  C14  1  0.09050000  0.44600000  0.96710000  1
  C  C15  1  0.09050000  0.94600000  0.53290000  1
  C  C16  1  0.10380000  0.35330000  0.72710000  1
  C  C17  1  0.10380000  0.85330000  0.77290000  1
  C  C18  1  0.11930000  0.25940000  0.70460000  1
  C  C19  1  0.11930000  0.75940000  0.79540000  1
  C  C20  1  0.13520000  0.35340000  0.07030000  1
  C  C21  1  0.13520000  0.85340000  0.42970000  1
  C  C22  1  0.13950000  0.40340000  0.29350000  1
  C  C23  1  0.13950000  0.90340000  0.20650000  1
  C  C24  1  0.18110000  0.45200000  0.70600000  1
  C  C25  1  0.18110000  0.95200000  0.79400000  1
  C  C26  1  0.18980000  0.39650000  0.92310000  1
  C  C27  1  0.18980000  0.89650000  0.57690000  1
  C  C28  1  0.19830000  0.18200000  0.33770000  1
  C  C29  1  0.19830000  0.68200000  0.16230000  1
  C  C30  1  0.23550000  0.22680000  0.65950000  1
  C  C31  1  0.23550000  0.72680000  0.84050000  1
  C  C32  1  0.76450000  0.27320000  0.15950000  1
  C  C33  1  0.76450000  0.77320000  0.34050000  1
  C  C34  1  0.80170000  0.31800000  0.83770000  1
  C  C35  1  0.80170000  0.81800000  0.66230000  1
  C  C36  1  0.81020000  0.10350000  0.42310000  1
  C  C37  1  0.81020000  0.60350000  0.07690000  1
  C  C38  1  0.81890000  0.04800000  0.20600000  1
  C  C39  1  0.81890000  0.54800000  0.29400000  1
  C  C40  1  0.86050000  0.09660000  0.79350000  1
  C  C41  1  0.86050000  0.59660000  0.70650000  1
  C  C42  1  0.86480000  0.14660000  0.57030000  1
  C  C43  1  0.86480000  0.64660000  0.92970000  1
  C  C44  1  0.88070000  0.24060000  0.20460000  1
  C  C45  1  0.88070000  0.74060000  0.29540000  1
  C  C46  1  0.89620000  0.14670000  0.22710000  1
  C  C47  1  0.89620000  0.64670000  0.27290000  1
  C  C48  1  0.90950000  0.05400000  0.46710000  1
  C  C49  1  0.90950000  0.55400000  0.03290000  1
  C  C50  1  0.91840000  0.28840000  0.79280000  1
  C  C51  1  0.91840000  0.78840000  0.70720000  1
  C  C52  1  0.92860000  0.07030000  0.52930000  1
  C  C53  1  0.92860000  0.57030000  0.97070000  1
  C  C54  1  0.93480000  0.19480000  0.77170000  1
  C  C55  1  0.93480000  0.69480000  0.72830000  1
  N  N56  1  0.00550000  0.36430000  0.77090000  1
  N  N57  1  0.00550000  0.86430000  0.72910000  1
  N  N58  1  0.01700000  0.01490000  0.55910000  1
  N  N59  1  0.01700000  0.51490000  0.94090000  1
  N  N60  1  0.03290000  0.18360000  0.72720000  1
  N  N61  1  0.03290000  0.68360000  0.77280000  1
  N  N62  1  0.96710000  0.31640000  0.22720000  1
  N  N63  1  0.96710000  0.81640000  0.27280000  1
  N  N64  1  0.98300000  0.48510000  0.05910000  1
  N  N65  1  0.98300000  0.98510000  0.44090000  1
  N  N66  1  0.99450000  0.13570000  0.27090000  1
  N  N67  1  0.99450000  0.63570000  0.22910000  1
  O  O68  1  0.15070000  0.38040000  0.12510000  1
  O  O69  1  0.15070000  0.88040000  0.37490000  1
  O  O70  1  0.15410000  0.46870000  0.25250000  1
  O  O71  1  0.15410000  0.96870000  0.24750000  1
  O  O72  1  0.15750000  0.27220000  0.05000000  1
  O  O73  1  0.15750000  0.77220000  0.45000000  1
  O  O74  1  0.17070000  0.09770000  0.36060000  1
  O  O75  1  0.17070000  0.59770000  0.13940000  1
  O  O76  1  0.17080000  0.41640000  0.34760000  1
  O  O77  1  0.17080000  0.91640000  0.15240000  1
  O  O78  1  0.17670000  0.42150000  0.86840000  1
  O  O79  1  0.17670000  0.92150000  0.63160000  1
  O  O80  1  0.19650000  0.01630000  0.75230000  1
  O  O81  1  0.19650000  0.51630000  0.74770000  1
  O  O82  1  0.20260000  0.14090000  0.63810000  1
  O  O83  1  0.20260000  0.64090000  0.86190000  1
  O  O84  1  0.21070000  0.46450000  0.65210000  1
  O  O85  1  0.21070000  0.96450000  0.84790000  1
  O  O86  1  0.28120000  0.34080000  0.94150000  1
  O  O87  1  0.28120000  0.84080000  0.55850000  1
  O  O88  1  0.31130000  0.24030000  0.34570000  1
  O  O89  1  0.31130000  0.74030000  0.15430000  1
  O  O90  1  0.35140000  0.28060000  0.65050000  1
  O  O91  1  0.35140000  0.78060000  0.84950000  1
  O  O92  1  0.64860000  0.21940000  0.15050000  1
  O  O93  1  0.64860000  0.71940000  0.34950000  1
  O  O94  1  0.68870000  0.25970000  0.84570000  1
  O  O95  1  0.68870000  0.75970000  0.65430000  1
  O  O96  1  0.71880000  0.15920000  0.44150000  1
  O  O97  1  0.71880000  0.65920000  0.05850000  1
  O  O98  1  0.78930000  0.03550000  0.15210000  1
  O  O99  1  0.78930000  0.53550000  0.34790000  1
  O  O100  1  0.79740000  0.35910000  0.13810000  1
  O  O101  1  0.79740000  0.85910000  0.36190000  1
  O  O102  1  0.80350000  0.48370000  0.25230000  1
  O  O103  1  0.80350000  0.98370000  0.24770000  1
  O  O104  1  0.82330000  0.07850000  0.36840000  1
  O  O105  1  0.82330000  0.57850000  0.13160000  1
  O  O106  1  0.82920000  0.08360000  0.84760000  1
  O  O107  1  0.82920000  0.58360000  0.65240000  1
  O  O108  1  0.82930000  0.40230000  0.86060000  1
  O  O109  1  0.82930000  0.90230000  0.63940000  1
  O  O110  1  0.84250000  0.22780000  0.55000000  1
  O  O111  1  0.84250000  0.72780000  0.95000000  1
  O  O112  1  0.84590000  0.03130000  0.75250000  1
  O  O113  1  0.84590000  0.53130000  0.74750000  1
  O  O114  1  0.84930000  0.11960000  0.62510000  1
  O  O115  1  0.84930000  0.61960000  0.87490000  1
