# generated using pymatgen
data_NiH24(C3O)12
_symmetry_space_group_name_H-M   'P 1'
_cell_length_a   25.99288647
_cell_length_b   25.99288647
_cell_length_c   25.99288647
_cell_angle_alpha   109.47122063
_cell_angle_beta   109.47122063
_cell_angle_gamma   109.47122063
_symmetry_Int_Tables_number   1
_chemical_formula_structural   NiH24(C3O)12
_chemical_formula_sum   'Ni6 H144 C216 O72'
_cell_volume   13518.90882137
_cell_formula_units_Z   6
loop_
 _symmetry_equiv_pos_site_id
 _symmetry_equiv_pos_as_xyz
  1  'x, y, z'
loop_
 _atom_site_type_symbol
 _atom_site_label
 _atom_site_symmetry_multiplicity
 _atom_site_fract_x
 _atom_site_fract_y
 _atom_site_fract_z
 _atom_site_occupancy
  C  C0  1  0.13586000  0.71613000  0.71613000  1
  C  C1  1  0.13586000  0.41973000  0.41973000  1
  C  C2  1  0.41973000  1.00000000  0.28387000  1
  C  C3  1  0.41973000  0.13586000  0.41973000  1
  C  C4  1  0.71613000  1.00000000  0.58027000  1
  C  C5  1  0.71613000  0.13586000  0.71613000  1
  C  C6  1  0.00000000  0.71613000  0.58027000  1
  C  C7  1  0.00000000  0.41973000  0.28387000  1
  C  C8  1  0.43840000  0.71320000  1.00000000  1
  C  C9  1  0.43840000  0.43840000  0.72520000  1
  C  C10  1  0.71320000  0.71320000  0.27480000  1
  C  C11  1  0.71320000  0.43840000  0.00000000  1
  C  C12  1  0.47930000  0.69910000  1.00000000  1
  C  C13  1  0.47930000  0.47930000  0.78020000  1
  C  C14  1  0.69910000  0.69910000  0.21980000  1
  C  C15  1  0.69910000  0.47930000  1.00000000  1
  C  C16  1  0.20382000  0.73331000  0.73331000  1
  C  C17  1  0.20382000  0.47051000  0.47051000  1
  C  C18  1  0.47051000  0.00000000  0.26669000  1
  C  C19  1  0.47051000  0.20382000  0.47051000  1
  C  C20  1  0.73331000  1.00000000  0.52949000  1
  C  C21  1  0.73331000  0.20382000  0.73331000  1
  C  C22  1  1.00000000  0.73331000  0.52949000  1
  C  C23  1  1.00000000  0.47051000  0.26669000  1
  C  C24  1  0.44090000  0.76910000  1.00000000  1
  C  C25  1  0.44090000  0.44090000  0.67180000  1
  C  C26  1  0.76910000  0.76910000  0.32820000  1
  C  C27  1  0.76910000  0.44090000  1.00000000  1
  C  C28  1  0.21980000  0.69910000  0.69910000  1
  C  C29  1  0.21980000  0.52070000  0.52070000  1
  C  C30  1  0.52070000  1.00000000  0.30090000  1
  C  C31  1  0.52070000  0.21980000  0.52070000  1
  C  C32  1  0.69910000  1.00000000  0.47930000  1
  C  C33  1  0.69910000  0.21980000  0.69910000  1
  C  C34  1  1.00000000  0.69910000  0.47930000  1
  C  C35  1  1.00000000  0.52070000  0.30090000  1
  C  C36  1  0.25048000  0.79004000  0.79004000  1
  C  C37  1  0.25048000  0.46044000  0.46044000  1
  C  C38  1  0.46044000  1.00000000  0.20996000  1
  C  C39  1  0.46044000  0.25048000  0.46044000  1
  C  C40  1  0.79004000  0.00000000  0.53956000  1
  C  C41  1  0.79004000  0.25048000  0.79004000  1
  C  C42  1  1.00000000  0.79004000  0.53956000  1
  C  C43  1  1.00000000  0.46044000  0.20996000  1
  C  C44  1  0.52949000  0.73331000  1.00000000  1
  C  C45  1  0.52949000  0.52949000  0.79618000  1
  C  C46  1  0.73331000  0.73331000  0.20382000  1
  C  C47  1  0.73331000  0.52949000  0.00000000  1
  C  C48  1  0.27480000  0.71320000  0.71320000  1
  C  C49  1  0.27480000  0.56160000  0.56160000  1
  C  C50  1  0.56160000  1.00000000  0.28680000  1
  C  C51  1  0.56160000  0.27480000  0.56160000  1
  C  C52  1  0.71320000  1.00000000  0.43840000  1
  C  C53  1  0.71320000  0.27480000  0.71320000  1
  C  C54  1  1.00000000  0.71320000  0.43840000  1
  C  C55  1  1.00000000  0.56160000  0.28680000  1
  C  C56  1  0.58027000  0.71613000  1.00000000  1
  C  C57  1  0.58027000  0.58027000  0.86414000  1
  C  C58  1  0.71613000  0.71613000  0.13586000  1
  C  C59  1  0.71613000  0.58027000  1.00000000  1
  C  C60  1  0.49279000  0.80701000  1.00000000  1
  C  C61  1  0.49279000  0.49279000  0.68578000  1
  C  C62  1  0.80701000  0.80701000  0.31422000  1
  C  C63  1  0.80701000  0.49279000  1.00000000  1
  C  C64  1  0.31422000  0.80701000  0.80701000  1
  C  C65  1  0.31422000  0.50721000  0.50721000  1
  C  C66  1  0.50721000  1.00000000  0.19299000  1
  C  C67  1  0.50721000  0.31422000  0.50721000  1
  C  C68  1  0.80701000  1.00000000  0.49279000  1
  C  C69  1  0.80701000  0.31422000  0.80701000  1
  C  C70  1  1.00000000  0.80701000  0.49279000  1
  C  C71  1  1.00000000  0.50721000  0.19299000  1
  C  C72  1  0.32820000  0.76910000  0.76910000  1
  C  C73  1  0.32820000  0.55910000  0.55910000  1
  C  C74  1  0.55910000  0.00000000  0.23090000  1
  C  C75  1  0.55910000  0.32820000  0.55910000  1
  C  C76  1  0.76910000  1.00000000  0.44090000  1
  C  C77  1  0.76910000  0.32820000  0.76910000  1
  C  C78  1  1.00000000  0.76910000  0.44090000  1
  C  C79  1  1.00000000  0.55910000  0.23090000  1
  C  C80  1  0.53956000  0.79004000  1.00000000  1
  C  C81  1  0.53956000  0.53956000  0.74952000  1
  C  C82  1  0.79004000  0.79004000  0.25048000  1
  C  C83  1  0.79004000  0.53956000  0.00000000  1
  C  C84  1  0.45653000  0.88067000  0.00000000  1
  C  C85  1  0.45653000  0.45653000  0.57586000  1
  C  C86  1  0.88067000  0.88067000  0.42414000  1
  C  C87  1  0.88067000  0.45653000  1.00000000  1
  C  C88  1  0.47916000  0.94138000  0.00000000  1
  C  C89  1  0.47916000  0.47916000  0.53778000  1
  C  C90  1  0.94138000  0.94138000  0.46222000  1
  C  C91  1  0.94138000  0.47916000  1.00000000  1
  C  C92  1  0.42414000  0.88067000  0.88067000  1
  C  C93  1  0.42414000  0.54347000  0.54347000  1
  C  C94  1  0.54347000  0.00000000  0.11933000  1
  C  C95  1  0.54347000  0.42414000  0.54347000  1
  C  C96  1  0.88067000  0.00000000  0.45653000  1
  C  C97  1  0.88067000  0.42414000  0.88067000  1
  C  C98  1  1.00000000  0.88067000  0.45653000  1
  C  C99  1  1.00000000  0.54347000  0.11933000  1
  C  C100  1  0.46222000  0.94138000  0.94138000  1
  C  C101  1  0.46222000  0.52084000  0.52084000  1
  C  C102  1  0.52084000  0.00000000  0.05862000  1
  C  C103  1  0.52084000  0.46222000  0.52084000  1
  C  C104  1  0.94138000  0.00000000  0.47916000  1
  C  C105  1  0.94138000  0.46222000  0.94138000  1
  C  C106  1  1.00000000  0.94138000  0.47916000  1
  C  C107  1  1.00000000  0.52084000  0.05862000  1
  C  C108  1  0.47916000  0.00000000  0.94138000  1
  C  C109  1  0.47916000  0.53778000  0.47916000  1
  C  C110  1  0.53778000  0.05862000  0.05862000  1
  C  C111  1  0.53778000  0.47916000  0.47916000  1
  C  C112  1  1.00000000  0.05862000  0.52084000  1
  C  C113  1  1.00000000  0.47916000  0.94138000  1
  C  C114  1  0.05862000  0.00000000  0.52084000  1
  C  C115  1  0.05862000  0.53778000  0.05862000  1
  C  C116  1  0.45653000  0.00000000  0.88067000  1
  C  C117  1  0.45653000  0.57586000  0.45653000  1
  C  C118  1  0.57586000  0.11933000  0.11933000  1
  C  C119  1  0.57586000  0.45653000  0.45653000  1
  C  C120  1  1.00000000  0.11933000  0.54347000  1
  C  C121  1  1.00000000  0.45653000  0.88067000  1
  C  C122  1  0.11933000  0.00000000  0.54347000  1
  C  C123  1  0.11933000  0.57586000  0.11933000  1
  C  C124  1  0.52084000  0.05862000  1.00000000  1
  C  C125  1  0.52084000  0.52084000  0.46222000  1
  C  C126  1  0.05862000  0.05862000  0.53778000  1
  C  C127  1  0.05862000  0.52084000  0.00000000  1
  C  C128  1  0.54347000  0.11933000  1.00000000  1
  C  C129  1  0.54347000  0.54347000  0.42414000  1
  C  C130  1  0.11933000  0.11933000  0.57586000  1
  C  C131  1  0.11933000  0.54347000  0.00000000  1
  C  C132  1  0.46044000  0.20996000  0.00000000  1
  C  C133  1  0.46044000  0.46044000  0.25048000  1
  C  C134  1  0.20996000  0.20996000  0.74952000  1
  C  C135  1  0.20996000  0.46044000  0.00000000  1
  C  C136  1  0.44090000  0.00000000  0.76910000  1
  C  C137  1  0.44090000  0.67180000  0.44090000  1
  C  C138  1  0.67180000  0.23090000  0.23090000  1
  C  C139  1  0.67180000  0.44090000  0.44090000  1
  C  C140  1  1.00000000  0.23090000  0.55910000  1
  C  C141  1  1.00000000  0.44090000  0.76910000  1
  C  C142  1  0.23090000  0.00000000  0.55910000  1
  C  C143  1  0.23090000  0.67180000  0.23090000  1
  C  C144  1  0.49279000  1.00000000  0.80701000  1
  C  C145  1  0.49279000  0.68578000  0.49279000  1
  C  C146  1  0.68578000  0.19299000  0.19299000  1
  C  C147  1  0.68578000  0.49279000  0.49279000  1
  C  C148  1  1.00000000  0.19299000  0.50721000  1
  C  C149  1  1.00000000  0.49279000  0.80701000  1
  C  C150  1  0.19299000  1.00000000  0.50721000  1
  C  C151  1  0.19299000  0.68578000  0.19299000  1
  C  C152  1  0.50721000  0.19299000  1.00000000  1
  C  C153  1  0.50721000  0.50721000  0.31422000  1
  C  C154  1  0.19299000  0.19299000  0.68578000  1
  C  C155  1  0.19299000  0.50721000  0.00000000  1
  C  C156  1  0.41973000  0.28387000  0.00000000  1
  C  C157  1  0.41973000  0.41973000  0.13586000  1
  C  C158  1  0.28387000  0.28387000  0.86414000  1
  C  C159  1  0.28387000  0.41973000  0.00000000  1
  C  C160  1  0.43840000  1.00000000  0.71320000  1
  C  C161  1  0.43840000  0.72520000  0.43840000  1
  C  C162  1  0.72520000  0.28680000  0.28680000  1
  C  C163  1  0.72520000  0.43840000  0.43840000  1
  C  C164  1  1.00000000  0.28680000  0.56160000  1
  C  C165  1  1.00000000  0.43840000  0.71320000  1
  C  C166  1  0.28680000  1.00000000  0.56160000  1
  C  C167  1  0.28680000  0.72520000  0.28680000  1
  C  C168  1  0.47051000  0.26669000  0.00000000  1
  C  C169  1  0.47051000  0.47051000  0.20382000  1
  C  C170  1  0.26669000  0.26669000  0.79618000  1
  C  C171  1  0.26669000  0.47051000  0.00000000  1
  C  C172  1  0.53956000  1.00000000  0.79004000  1
  C  C173  1  0.53956000  0.74952000  0.53956000  1
  C  C174  1  0.74952000  0.20996000  0.20996000  1
  C  C175  1  0.74952000  0.53956000  0.53956000  1
  C  C176  1  1.00000000  0.20996000  0.46044000  1
  C  C177  1  1.00000000  0.53956000  0.79004000  1
  C  C178  1  0.20996000  0.00000000  0.46044000  1
  C  C179  1  0.20996000  0.74952000  0.20996000  1
  C  C180  1  0.47930000  1.00000000  0.69910000  1
  C  C181  1  0.47930000  0.78020000  0.47930000  1
  C  C182  1  0.78020000  0.30090000  0.30090000  1
  C  C183  1  0.78020000  0.47930000  0.47930000  1
  C  C184  1  1.00000000  0.30090000  0.52070000  1
  C  C185  1  1.00000000  0.47930000  0.69910000  1
  C  C186  1  0.30090000  1.00000000  0.52070000  1
  C  C187  1  0.30090000  0.78020000  0.30090000  1
  C  C188  1  0.55910000  0.23090000  1.00000000  1
  C  C189  1  0.55910000  0.55910000  0.32820000  1
  C  C190  1  0.23090000  0.23090000  0.67180000  1
  C  C191  1  0.23090000  0.55910000  0.00000000  1
  C  C192  1  0.52949000  1.00000000  0.73331000  1
  C  C193  1  0.52949000  0.79618000  0.52949000  1
  C  C194  1  0.79618000  0.26669000  0.26669000  1
  C  C195  1  0.79618000  0.52949000  0.52949000  1
  C  C196  1  1.00000000  0.26669000  0.47051000  1
  C  C197  1  1.00000000  0.52949000  0.73331000  1
  C  C198  1  0.26669000  1.00000000  0.47051000  1
  C  C199  1  0.26669000  0.79618000  0.26669000  1
  C  C200  1  0.52070000  0.30090000  1.00000000  1
  C  C201  1  0.52070000  0.52070000  0.21980000  1
  C  C202  1  0.30090000  0.30090000  0.78020000  1
  C  C203  1  0.30090000  0.52070000  0.00000000  1
  C  C204  1  0.56160000  0.28680000  1.00000000  1
  C  C205  1  0.56160000  0.56160000  0.27480000  1
  C  C206  1  0.28680000  0.28680000  0.72520000  1
  C  C207  1  0.28680000  0.56160000  0.00000000  1
  C  C208  1  0.58027000  1.00000000  0.71613000  1
  C  C209  1  0.58027000  0.86414000  0.58027000  1
  C  C210  1  0.86414000  0.28387000  0.28387000  1
  C  C211  1  0.86414000  0.58027000  0.58027000  1
  C  C212  1  1.00000000  0.28387000  0.41973000  1
  C  C213  1  1.00000000  0.58027000  0.71613000  1
  C  C214  1  0.28387000  0.00000000  0.41973000  1
  C  C215  1  0.28387000  0.86414000  0.28387000  1
  H  H216  1  0.40420000  0.68620000  1.00000000  1
  H  H217  1  0.40420000  0.40420000  0.71800000  1
  H  H218  1  0.68620000  0.68620000  0.28200000  1
  H  H219  1  0.68620000  0.40420000  1.00000000  1
  H  H220  1  0.47430000  0.66190000  1.00000000  1
  H  H221  1  0.47430000  0.47430000  0.81240000  1
  H  H222  1  0.66190000  0.66190000  0.18760000  1
  H  H223  1  0.66190000  0.47430000  0.00000000  1
  H  H224  1  0.18760000  0.66190000  0.66190000  1
  H  H225  1  0.18760000  0.52570000  0.52570000  1
  H  H226  1  0.52570000  0.00000000  0.33810000  1
  H  H227  1  0.52570000  0.18760000  0.52570000  1
  H  H228  1  0.66190000  0.00000000  0.47430000  1
  H  H229  1  0.66190000  0.18760000  0.66190000  1
  H  H230  1  1.00000000  0.66190000  0.47430000  1
  H  H231  1  1.00000000  0.52570000  0.33810000  1
  H  H232  1  0.40980000  0.77920000  0.00000000  1
  H  H233  1  0.40980000  0.40980000  0.63060000  1
  H  H234  1  0.77920000  0.77920000  0.36940000  1
  H  H235  1  0.77920000  0.40980000  0.00000000  1
  H  H236  1  0.24020000  0.81500000  0.81500000  1
  H  H237  1  0.24020000  0.42520000  0.42520000  1
  H  H238  1  0.42520000  1.00000000  0.18500000  1
  H  H239  1  0.42520000  0.24020000  0.42520000  1
  H  H240  1  0.81500000  0.00000000  0.57480000  1
  H  H241  1  0.81500000  0.24020000  0.81500000  1
  H  H242  1  1.00000000  0.81500000  0.57480000  1
  H  H243  1  1.00000000  0.42520000  0.18500000  1
  H  H244  1  0.28200000  0.68620000  0.68620000  1
  H  H245  1  0.28200000  0.59580000  0.59580000  1
  H  H246  1  0.59580000  0.00000000  0.31380000  1
  H  H247  1  0.59580000  0.28200000  0.59580000  1
  H  H248  1  0.68620000  0.00000000  0.40420000  1
  H  H249  1  0.68620000  0.28200000  0.68620000  1
  H  H250  1  1.00000000  0.68620000  0.40420000  1
  H  H251  1  1.00000000  0.59580000  0.31380000  1
  H  H252  1  0.41560000  0.84910000  0.96290000  1
  H  H253  1  0.41560000  0.45270000  0.56650000  1
  H  H254  1  0.45270000  0.88620000  0.03710000  1
  H  H255  1  0.45270000  0.41560000  0.56650000  1
  H  H256  1  0.84910000  0.88620000  0.43350000  1
  H  H257  1  0.84910000  0.41560000  0.96290000  1
  H  H258  1  0.88620000  0.84910000  0.43350000  1
  H  H259  1  0.88620000  0.45270000  0.03710000  1
  H  H260  1  0.36940000  0.77920000  0.77920000  1
  H  H261  1  0.36940000  0.59020000  0.59020000  1
  H  H262  1  0.59020000  1.00000000  0.22080000  1
  H  H263  1  0.59020000  0.36940000  0.59020000  1
  H  H264  1  0.77920000  1.00000000  0.40980000  1
  H  H265  1  0.77920000  0.36940000  0.77920000  1
  H  H266  1  1.00000000  0.77920000  0.40980000  1
  H  H267  1  1.00000000  0.59020000  0.22080000  1
  H  H268  1  0.57480000  0.81500000  1.00000000  1
  H  H269  1  0.57480000  0.57480000  0.75980000  1
  H  H270  1  0.81500000  0.81500000  0.24020000  1
  H  H271  1  0.81500000  0.57480000  1.00000000  1
  H  H272  1  0.43350000  0.84910000  0.88620000  1
  H  H273  1  0.43350000  0.54730000  0.58440000  1
  H  H274  1  0.54730000  0.96290000  0.11380000  1
  H  H275  1  0.54730000  0.43350000  0.58440000  1
  H  H276  1  0.84910000  0.96290000  0.41560000  1
  H  H277  1  0.84910000  0.43350000  0.88620000  1
  H  H278  1  0.96290000  0.84910000  0.41560000  1
  H  H279  1  0.96290000  0.54730000  0.11380000  1
  H  H280  1  0.43350000  0.88620000  0.84910000  1
  H  H281  1  0.43350000  0.58440000  0.54730000  1
  H  H282  1  0.58440000  0.03710000  0.15090000  1
  H  H283  1  0.58440000  0.43350000  0.54730000  1
  H  H284  1  0.88620000  0.03710000  0.45270000  1
  H  H285  1  0.88620000  0.43350000  0.84910000  1
  H  H286  1  0.03710000  0.88620000  0.45270000  1
  H  H287  1  0.03710000  0.58440000  0.15090000  1
  H  H288  1  0.41560000  0.96290000  0.84910000  1
  H  H289  1  0.41560000  0.56650000  0.45270000  1
  H  H290  1  0.56650000  0.11380000  0.15090000  1
  H  H291  1  0.56650000  0.41560000  0.45270000  1
  H  H292  1  0.96290000  0.11380000  0.54730000  1
  H  H293  1  0.96290000  0.41560000  0.84910000  1
  H  H294  1  0.11380000  0.96290000  0.54730000  1
  H  H295  1  0.11380000  0.56650000  0.15090000  1
  H  H296  1  0.45270000  0.03710000  0.88620000  1
  H  H297  1  0.45270000  0.56650000  0.41560000  1
  H  H298  1  0.56650000  0.15090000  0.11380000  1
  H  H299  1  0.56650000  0.45270000  0.41560000  1
  H  H300  1  0.03710000  0.15090000  0.58440000  1
  H  H301  1  0.03710000  0.45270000  0.88620000  1
  H  H302  1  0.15090000  0.03710000  0.58440000  1
  H  H303  1  0.15090000  0.56650000  0.11380000  1
  H  H304  1  0.42520000  0.18500000  0.00000000  1
  H  H305  1  0.42520000  0.42520000  0.24020000  1
  H  H306  1  0.18500000  0.18500000  0.75980000  1
  H  H307  1  0.18500000  0.42520000  0.00000000  1
  H  H308  1  0.40980000  0.00000000  0.77920000  1
  H  H309  1  0.40980000  0.63060000  0.40980000  1
  H  H310  1  0.63060000  0.22080000  0.22080000  1
  H  H311  1  0.63060000  0.40980000  0.40980000  1
  H  H312  1  1.00000000  0.22080000  0.59020000  1
  H  H313  1  1.00000000  0.40980000  0.77920000  1
  H  H314  1  0.22080000  0.00000000  0.59020000  1
  H  H315  1  0.22080000  0.63060000  0.22080000  1
  H  H316  1  0.54730000  0.11380000  0.96290000  1
  H  H317  1  0.54730000  0.58440000  0.43350000  1
  H  H318  1  0.58440000  0.15090000  0.03710000  1
  H  H319  1  0.58440000  0.54730000  0.43350000  1
  H  H320  1  0.11380000  0.15090000  0.56650000  1
  H  H321  1  0.11380000  0.54730000  0.96290000  1
  H  H322  1  0.15090000  0.11380000  0.56650000  1
  H  H323  1  0.15090000  0.58440000  0.03710000  1
  H  H324  1  0.40420000  1.00000000  0.68620000  1
  H  H325  1  0.40420000  0.71800000  0.40420000  1
  H  H326  1  0.71800000  0.31380000  0.31380000  1
  H  H327  1  0.71800000  0.40420000  0.40420000  1
  H  H328  1  1.00000000  0.31380000  0.59580000  1
  H  H329  1  1.00000000  0.40420000  0.68620000  1
  H  H330  1  0.31380000  1.00000000  0.59580000  1
  H  H331  1  0.31380000  0.71800000  0.31380000  1
  H  H332  1  0.57480000  1.00000000  0.81500000  1
  H  H333  1  0.57480000  0.75980000  0.57480000  1
  H  H334  1  0.75980000  0.18500000  0.18500000  1
  H  H335  1  0.75980000  0.57480000  0.57480000  1
  H  H336  1  1.00000000  0.18500000  0.42520000  1
  H  H337  1  1.00000000  0.57480000  0.81500000  1
  H  H338  1  0.18500000  0.00000000  0.42520000  1
  H  H339  1  0.18500000  0.75980000  0.18500000  1
  H  H340  1  0.59020000  0.22080000  1.00000000  1
  H  H341  1  0.59020000  0.59020000  0.36940000  1
  H  H342  1  0.22080000  0.22080000  0.63060000  1
  H  H343  1  0.22080000  0.59020000  0.00000000  1
  H  H344  1  0.47430000  1.00000000  0.66190000  1
  H  H345  1  0.47430000  0.81240000  0.47430000  1
  H  H346  1  0.81240000  0.33810000  0.33810000  1
  H  H347  1  0.81240000  0.47430000  0.47430000  1
  H  H348  1  1.00000000  0.33810000  0.52570000  1
  H  H349  1  1.00000000  0.47430000  0.66190000  1
  H  H350  1  0.33810000  1.00000000  0.52570000  1
  H  H351  1  0.33810000  0.81240000  0.33810000  1
  H  H352  1  0.52570000  0.33810000  1.00000000  1
  H  H353  1  0.52570000  0.52570000  0.18760000  1
  H  H354  1  0.33810000  0.33810000  0.81240000  1
  H  H355  1  0.33810000  0.52570000  0.00000000  1
  H  H356  1  0.59580000  0.31380000  1.00000000  1
  H  H357  1  0.59580000  0.59580000  0.28200000  1
  H  H358  1  0.31380000  0.31380000  0.71800000  1
  H  H359  1  0.31380000  0.59580000  0.00000000  1
  Ni  Ni360  1  0.00000000  0.62343000  0.62343000  1
  Ni  Ni361  1  0.00000000  0.37657000  0.37657000  1
  Ni  Ni362  1  0.37657000  1.00000000  0.37657000  1
  Ni  Ni363  1  0.62343000  1.00000000  0.62343000  1
  Ni  Ni364  1  0.62343000  0.62343000  1.00000000  1
  Ni  Ni365  1  0.37657000  0.37657000  0.00000000  1
  O  O366  1  0.09496000  0.66746000  0.66746000  1
  O  O367  1  0.09496000  0.42750000  0.42750000  1
  O  O368  1  0.42750000  1.00000000  0.33254000  1
  O  O369  1  0.42750000  0.09496000  0.42750000  1
  O  O370  1  0.66746000  1.00000000  0.57250000  1
  O  O371  1  0.66746000  0.09496000  0.66746000  1
  O  O372  1  1.00000000  0.66746000  0.57250000  1
  O  O373  1  1.00000000  0.42750000  0.33254000  1
  O  O374  1  0.12780000  0.75301000  0.75301000  1
  O  O375  1  0.12780000  0.37479000  0.37479000  1
  O  O376  1  0.37479000  1.00000000  0.24699000  1
  O  O377  1  0.37479000  0.12780000  0.37479000  1
  O  O378  1  0.75301000  0.00000000  0.62521000  1
  O  O379  1  0.75301000  0.12780000  0.75301000  1
  O  O380  1  1.00000000  0.75301000  0.62521000  1
  O  O381  1  1.00000000  0.37479000  0.24699000  1
  O  O382  1  0.57250000  0.66746000  1.00000000  1
  O  O383  1  0.57250000  0.57250000  0.90504000  1
  O  O384  1  0.66746000  0.66746000  0.09496000  1
  O  O385  1  0.66746000  0.57250000  0.00000000  1
  O  O386  1  0.35836000  0.86143000  0.86143000  1
  O  O387  1  0.35836000  0.49693000  0.49693000  1
  O  O388  1  0.49693000  0.00000000  0.13857000  1
  O  O389  1  0.49693000  0.35836000  0.49693000  1
  O  O390  1  0.86143000  0.00000000  0.50307000  1
  O  O391  1  0.86143000  0.35836000  0.86143000  1
  O  O392  1  1.00000000  0.86143000  0.50307000  1
  O  O393  1  1.00000000  0.49693000  0.13857000  1
  O  O394  1  0.50307000  0.86143000  1.00000000  1
  O  O395  1  0.50307000  0.50307000  0.64164000  1
  O  O396  1  0.86143000  0.86143000  0.35836000  1
  O  O397  1  0.86143000  0.50307000  1.00000000  1
  O  O398  1  0.62521000  0.75301000  0.00000000  1
  O  O399  1  0.62521000  0.62521000  0.87220000  1
  O  O400  1  0.75301000  0.75301000  0.12780000  1
  O  O401  1  0.75301000  0.62521000  0.00000000  1
  O  O402  1  0.37479000  0.24699000  0.00000000  1
  O  O403  1  0.37479000  0.37479000  0.12780000  1
  O  O404  1  0.24699000  0.24699000  0.87220000  1
  O  O405  1  0.24699000  0.37479000  0.00000000  1
  O  O406  1  0.49693000  0.13857000  1.00000000  1
  O  O407  1  0.49693000  0.49693000  0.35836000  1
  O  O408  1  0.13857000  0.13857000  0.64164000  1
  O  O409  1  0.13857000  0.49693000  0.00000000  1
  O  O410  1  0.50307000  1.00000000  0.86143000  1
  O  O411  1  0.50307000  0.64164000  0.50307000  1
  O  O412  1  0.64164000  0.13857000  0.13857000  1
  O  O413  1  0.64164000  0.50307000  0.50307000  1
  O  O414  1  1.00000000  0.13857000  0.49693000  1
  O  O415  1  1.00000000  0.50307000  0.86143000  1
  O  O416  1  0.13857000  0.00000000  0.49693000  1
  O  O417  1  0.13857000  0.64164000  0.13857000  1
  O  O418  1  0.42750000  0.33254000  0.00000000  1
  O  O419  1  0.42750000  0.42750000  0.09496000  1
  O  O420  1  0.33254000  0.33254000  0.90504000  1
  O  O421  1  0.33254000  0.42750000  0.00000000  1
  O  O422  1  0.62521000  1.00000000  0.75301000  1
  O  O423  1  0.62521000  0.87220000  0.62521000  1
  O  O424  1  0.87220000  0.24699000  0.24699000  1
  O  O425  1  0.87220000  0.62521000  0.62521000  1
  O  O426  1  1.00000000  0.24699000  0.37479000  1
  O  O427  1  1.00000000  0.62521000  0.75301000  1
  O  O428  1  0.24699000  0.00000000  0.37479000  1
  O  O429  1  0.24699000  0.87220000  0.24699000  1
  O  O430  1  0.57250000  1.00000000  0.66746000  1
  O  O431  1  0.57250000  0.90504000  0.57250000  1
  O  O432  1  0.90504000  0.33254000  0.33254000  1
  O  O433  1  0.90504000  0.57250000  0.57250000  1
  O  O434  1  1.00000000  0.33254000  0.42750000  1
  O  O435  1  1.00000000  0.57250000  0.66746000  1
  O  O436  1  0.33254000  0.00000000  0.42750000  1
  O  O437  1  0.33254000  0.90504000  0.33254000  1
