# generated using pymatgen
data_KEuH6C14(SO5)2
_symmetry_space_group_name_H-M   'P 1'
_cell_length_a   8.45290000
_cell_length_b   28.31517504
_cell_length_c   28.31517504
_cell_angle_alpha   119.02208702
_cell_angle_beta   95.71093501
_cell_angle_gamma   95.71093501
_symmetry_Int_Tables_number   1
_chemical_formula_structural   KEuH6C14(SO5)2
_chemical_formula_sum   'K6 Eu6 H36 C84 S12 O60'
_cell_volume   5811.02805640
_cell_formula_units_Z   6
loop_
 _symmetry_equiv_pos_site_id
 _symmetry_equiv_pos_as_xyz
  1  'x, y, z'
loop_
 _atom_site_type_symbol
 _atom_site_label
 _atom_site_symmetry_multiplicity
 _atom_site_fract_x
 _atom_site_fract_y
 _atom_site_fract_z
 _atom_site_occupancy
  C  C0  1  0.49990000  0.78742000  0.27108000  1
  C  C1  1  0.99990000  0.27108000  0.78742000  1
  C  C2  1  0.33184000  0.57512000  0.50040000  1
  C  C3  1  0.83184000  0.50040000  0.57512000  1
  C  C4  1  0.17772000  0.62842000  0.46624000  1
  C  C5  1  0.67772000  0.46624000  0.62842000  1
  C  C6  1  0.61163000  0.82920000  0.27379000  1
  C  C7  1  0.11163000  0.27379000  0.82920000  1
  C  C8  1  0.47165000  0.79256000  0.32069000  1
  C  C9  1  0.97165000  0.32069000  0.79256000  1
  C  C10  1  0.28949000  0.62760000  0.50357000  1
  C  C11  1  0.78949000  0.50357000  0.62760000  1
  C  C12  1  0.15096000  0.67931000  0.47187000  1
  C  C13  1  0.65096000  0.47187000  0.67931000  1
  C  C14  1  0.69544000  0.87044000  0.32318000  1
  C  C15  1  0.19544000  0.32318000  0.87044000  1
  C  C16  1  0.54930000  0.83782000  0.37158000  1
  C  C17  1  0.04930000  0.37158000  0.83782000  1
  C  C18  1  0.37226000  0.67682000  0.54726000  1
  C  C19  1  0.87226000  0.54726000  0.67682000  1
  C  C20  1  0.22882000  0.72892000  0.51634000  1
  C  C21  1  0.72882000  0.51634000  0.72892000  1
  C  C22  1  0.66189000  0.87597000  0.37240000  1
  C  C23  1  0.16189000  0.37240000  0.87597000  1
  C  C24  1  0.05177000  0.78380000  0.49731000  1
  C  C25  1  0.55177000  0.49731000  0.78380000  1
  C  C26  1  0.33784000  0.72621000  0.55541000  1
  C  C27  1  0.83784000  0.55541000  0.72621000  1
  C  C28  1  0.19328000  0.78165000  0.52289000  1
  C  C29  1  0.69328000  0.52289000  0.78165000  1
  C  C30  1  0.01878000  0.83229000  0.49925000  1
  C  C31  1  0.51878000  0.49925000  0.83229000  1
  C  C32  1  0.75672000  0.92528000  0.42488000  1
  C  C33  1  0.25672000  0.42488000  0.92528000  1
  C  C34  1  0.30007000  0.82977000  0.55484000  1
  C  C35  1  0.80007000  0.55484000  0.82977000  1
  C  C36  1  0.12991000  0.88015000  0.52948000  1
  C  C37  1  0.62991000  0.52948000  0.88015000  1
  C  C38  1  0.26943000  0.87879000  0.55880000  1
  C  C39  1  0.76943000  0.55880000  0.87879000  1
  C  C40  1  0.08429000  0.92976000  0.52871000  1
  C  C41  1  0.58429000  0.52871000  0.92976000  1
  C  C42  1  0.33144000  0.07472000  0.49960000  1
  C  C43  1  0.83144000  0.49960000  0.07472000  1
  C  C44  1  0.32500000  0.12956000  0.45274000  1
  C  C45  1  0.82500000  0.45274000  0.12956000  1
  C  C46  1  0.28243000  0.17080000  0.44459000  1
  C  C47  1  0.78243000  0.44459000  0.17080000  1
  C  C48  1  0.28592000  0.12403000  0.49643000  1
  C  C49  1  0.78592000  0.49643000  0.12403000  1
  C  C50  1  0.65453000  0.07024000  0.59895000  1
  C  C51  1  0.15453000  0.59895000  0.07024000  1
  C  C52  1  0.21148000  0.16218000  0.53376000  1
  C  C53  1  0.71148000  0.53376000  0.16218000  1
  C  C54  1  0.21248000  0.21258000  0.48366000  1
  C  C55  1  0.71248000  0.48366000  0.21258000  1
  C  C56  1  0.74523000  0.44516000  0.27493000  1
  C  C57  1  0.24523000  0.27493000  0.44516000  1
  C  C58  1  0.17909000  0.20744000  0.52813000  1
  C  C59  1  0.67909000  0.52813000  0.20744000  1
  C  C60  1  0.67039000  0.47711000  0.25876000  1
  C  C61  1  0.17039000  0.25876000  0.47711000  1
  C  C62  1  0.71063000  0.44120000  0.31999000  1
  C  C63  1  0.21063000  0.31999000  0.44120000  1
  C  C64  1  0.74976000  0.11985000  0.64933000  1
  C  C65  1  0.24976000  0.64933000  0.11985000  1
  C  C66  1  0.55446000  0.50269000  0.28649000  1
  C  C67  1  0.05446000  0.28649000  0.50269000  1
  C  C68  1  0.89064000  0.12121000  0.68001000  1
  C  C69  1  0.39064000  0.68001000  0.12121000  1
  C  C70  1  0.60043000  0.47052000  0.35067000  1
  C  C71  1  0.10043000  0.35067000  0.47052000  1
  C  C72  1  0.51953000  0.50075000  0.33304000  1
  C  C73  1  0.01953000  0.33304000  0.50075000  1
  C  C74  1  0.68649000  0.16771000  0.66696000  1
  C  C75  1  0.18649000  0.66696000  0.16771000  1
  C  C76  1  0.55558000  0.47129000  0.40105000  1
  C  C77  1  0.05558000  0.40105000  0.47129000  1
  C  C78  1  0.97030000  0.17023000  0.72507000  1
  C  C79  1  0.47030000  0.72507000  0.17023000  1
  C  C80  1  0.76797000  0.21620000  0.71351000  1
  C  C81  1  0.26797000  0.71351000  0.21620000  1
  C  C82  1  0.91163000  0.21835000  0.74124000  1
  C  C83  1  0.41163000  0.74124000  0.21835000  1
  Eu  Eu84  1  0.44574000  0.98063000  0.50232000  1
  Eu  Eu85  1  0.94574000  0.50232000  0.98063000  1
  Eu  Eu86  1  0.96511000  0.01937000  0.52169000  1
  Eu  Eu87  1  0.46511000  0.52169000  0.01937000  1
  Eu  Eu88  1  0.94342000  0.49768000  0.47831000  1
  Eu  Eu89  1  0.44342000  0.47831000  0.49768000  1
  H  H90  1  0.62890000  0.82880000  0.24170000  1
  H  H91  1  0.12890000  0.24170000  0.82880000  1
  H  H92  1  0.39950000  0.76530000  0.32050000  1
  H  H93  1  0.89950000  0.32050000  0.76530000  1
  H  H94  1  0.07900000  0.67950000  0.44480000  1
  H  H95  1  0.57900000  0.44480000  0.67950000  1
  H  H96  1  0.77690000  0.89530000  0.32370000  1
  H  H97  1  0.27690000  0.32370000  0.89530000  1
  H  H98  1  0.97450000  0.75220000  0.47800000  1
  H  H99  1  0.47450000  0.47800000  0.75220000  1
  H  H100  1  0.45320000  0.67630000  0.57160000  1
  H  H101  1  0.95320000  0.57160000  0.67630000  1
  H  H102  1  0.92230000  0.83220000  0.48020000  1
  H  H103  1  0.42230000  0.48020000  0.83220000  1
  H  H104  1  0.38720000  0.75830000  0.58710000  1
  H  H105  1  0.88720000  0.58710000  0.75830000  1
  H  H106  1  0.39510000  0.82960000  0.57430000  1
  H  H107  1  0.89510000  0.57430000  0.82960000  1
  H  H108  1  0.38160000  0.10470000  0.42840000  1
  H  H109  1  0.88160000  0.42840000  0.10470000  1
  H  H110  1  0.30010000  0.17120000  0.41290000  1
  H  H111  1  0.80010000  0.41290000  0.17120000  1
  H  H112  1  0.82080000  0.42570000  0.25530000  1
  H  H113  1  0.32080000  0.25530000  0.42570000  1
  H  H114  1  0.13420000  0.23470000  0.55520000  1
  H  H115  1  0.63420000  0.55520000  0.23470000  1
  H  H116  1  0.49650000  0.52200000  0.27420000  1
  H  H117  1  0.99650000  0.27420000  0.52200000  1
  H  H118  1  0.59010000  0.16780000  0.64800000  1
  H  H119  1  0.09010000  0.64800000  0.16780000  1
  H  H120  1  0.44210000  0.51980000  0.35200000  1
  H  H121  1  0.94210000  0.35200000  0.51980000  1
  H  H122  1  0.06550000  0.17040000  0.74470000  1
  H  H123  1  0.56550000  0.74470000  0.17040000  1
  H  H124  1  0.72230000  0.24780000  0.72580000  1
  H  H125  1  0.22230000  0.72580000  0.24780000  1
  K  K126  1  0.75864000  0.90151000  0.57967000  1
  K  K127  1  0.25864000  0.57967000  0.90151000  1
  K  K128  1  0.17897000  0.42033000  0.32184000  1
  K  K129  1  0.67897000  0.32184000  0.42033000  1
  K  K130  1  0.35713000  0.09849000  0.67816000  1
  K  K131  1  0.85713000  0.67816000  0.09849000  1
  O  O132  1  0.22503000  0.53721000  0.49268000  1
  O  O133  1  0.72503000  0.49268000  0.53721000  1
  O  O134  1  0.47902000  0.57179000  0.50727000  1
  O  O135  1  0.97902000  0.50727000  0.57179000  1
  O  O136  1  0.38768000  0.78575000  0.41159000  1
  O  O137  1  0.88768000  0.41159000  0.78575000  1
  O  O138  1  0.63668000  0.84932000  0.46712000  1
  O  O139  1  0.13668000  0.46712000  0.84932000  1
  O  O140  1  0.39580000  0.88313000  0.45167000  1
  O  O141  1  0.89580000  0.45167000  0.88313000  1
  O  O142  1  0.90723000  0.93548000  0.42821000  1
  O  O143  1  0.40723000  0.42821000  0.93548000  1
  O  O144  1  0.68782000  0.95547000  0.46279000  1
  O  O145  1  0.18782000  0.46279000  0.95547000  1
  O  O146  1  0.94566000  0.93830000  0.53328000  1
  O  O147  1  0.44566000  0.53328000  0.93830000  1
  O  O148  1  0.18688000  0.96048000  0.52136000  1
  O  O149  1  0.68688000  0.52136000  0.96048000  1
  O  O150  1  0.50306000  0.95165000  0.56853000  1
  O  O151  1  0.00306000  0.56853000  0.95165000  1
  O  O152  1  0.23235000  0.04453000  0.50732000  1
  O  O153  1  0.73235000  0.50732000  0.04453000  1
  O  O154  1  0.47175000  0.06452000  0.49273000  1
  O  O155  1  0.97175000  0.49273000  0.06452000  1
  O  O156  1  0.51880000  0.92532000  0.63698000  1
  O  O157  1  0.01880000  0.63698000  0.92532000  1
  O  O158  1  0.72640000  0.03952000  0.56088000  1
  O  O159  1  0.22640000  0.56088000  0.03952000  1
  O  O160  1  0.32148000  0.98148000  0.63416000  1
  O  O161  1  0.82148000  0.63416000  0.98148000  1
  O  O162  1  0.88182000  0.36302000  0.28834000  1
  O  O163  1  0.38182000  0.28834000  0.36302000  1
  O  O164  1  0.50736000  0.06170000  0.59498000  1
  O  O165  1  0.00736000  0.59498000  0.06170000  1
  O  O166  1  0.05141000  0.04835000  0.61688000  1
  O  O167  1  0.55141000  0.61688000  0.04835000  1
  O  O168  1  0.84000000  0.01852000  0.65268000  1
  O  O169  1  0.34000000  0.65268000  0.01852000  1
  O  O170  1  0.01267000  0.11687000  0.56854000  1
  O  O171  1  0.51267000  0.56854000  0.11687000  1
  O  O172  1  0.68732000  0.36584000  0.34732000  1
  O  O173  1  0.18732000  0.34732000  0.36584000  1
  O  O174  1  0.28736000  0.15068000  0.61780000  1
  O  O175  1  0.78736000  0.61780000  0.15068000  1
  O  O176  1  0.09348000  0.07468000  0.71166000  1
  O  O177  1  0.59348000  0.71166000  0.07468000  1
  O  O178  1  0.93453000  0.43147000  0.38312000  1
  O  O179  1  0.43453000  0.38312000  0.43147000  1
  O  O180  1  0.10193000  0.21425000  0.62584000  1
  O  O181  1  0.60193000  0.62584000  0.21425000  1
  O  O182  1  0.41238000  0.46672000  0.40502000  1
  O  O183  1  0.91238000  0.40502000  0.46672000  1
  O  O184  1  0.16956000  0.53288000  0.38220000  1
  O  O185  1  0.66956000  0.38220000  0.53288000  1
  O  O186  1  0.66552000  0.47864000  0.43912000  1
  O  O187  1  0.16552000  0.43912000  0.47864000  1
  O  O188  1  0.97609000  0.58841000  0.37416000  1
  O  O189  1  0.47609000  0.37416000  0.58841000  1
  O  O190  1  0.94413000  0.54833000  0.43146000  1
  O  O191  1  0.44413000  0.43146000  0.54833000  1
  S  S192  1  0.48848000  0.83827000  0.43077000  1
  S  S193  1  0.98848000  0.43077000  0.83827000  1
  S  S194  1  0.41210000  0.93970000  0.60406000  1
  S  S195  1  0.91210000  0.60406000  0.93970000  1
  S  S196  1  0.97240000  0.06030000  0.66436000  1
  S  S197  1  0.47240000  0.66436000  0.06030000  1
  S  S198  1  0.80804000  0.39594000  0.33564000  1
  S  S199  1  0.30804000  0.33564000  0.39594000  1
  S  S200  1  0.15021000  0.16173000  0.59250000  1
  S  S201  1  0.65021000  0.59250000  0.16173000  1
  S  S202  1  0.05771000  0.56923000  0.40750000  1
  S  S203  1  0.55771000  0.40750000  0.56923000  1
