# generated using pymatgen
data_CdH12(C5N2)3
_symmetry_space_group_name_H-M   'P 1'
_cell_length_a   9.07520000
_cell_length_b   9.07520000
_cell_length_c   27.01400000
_cell_angle_alpha   90.00000000
_cell_angle_beta   90.00000000
_cell_angle_gamma   90.00000000
_symmetry_Int_Tables_number   1
_chemical_formula_structural   CdH12(C5N2)3
_chemical_formula_sum   'Cd4 H48 C60 N24'
_cell_volume   2224.85291565
_cell_formula_units_Z   4
loop_
 _symmetry_equiv_pos_site_id
 _symmetry_equiv_pos_as_xyz
  1  'x, y, z'
loop_
 _atom_site_type_symbol
 _atom_site_label
 _atom_site_symmetry_multiplicity
 _atom_site_fract_x
 _atom_site_fract_y
 _atom_site_fract_z
 _atom_site_occupancy
  Cd  Cd0  1  0.18155000  0.62330000  0.37496000  1
  Cd  Cd1  1  0.37670000  0.18155000  0.62496000  1
  Cd  Cd2  1  0.62330000  0.81845000  0.12496000  1
  Cd  Cd3  1  0.81845000  0.37670000  0.87496000  1
  H  H4  1  0.03220000  0.36450000  0.62480000  1
  H  H5  1  0.08260000  0.33990000  0.11210000  1
  H  H6  1  0.09950000  0.25460000  0.42840000  1
  H  H7  1  0.09970000  0.88230000  0.88910000  1
  H  H8  1  0.11770000  0.09970000  0.13910000  1
  H  H9  1  0.11930000  0.49260000  0.48840000  1
  H  H10  1  0.16520000  0.46040000  0.86530000  1
  H  H11  1  0.18620000  0.58500000  0.99350000  1
  H  H12  1  0.25460000  0.90050000  0.17840000  1
  H  H13  1  0.29280000  0.52130000  0.79660000  1
  H  H14  1  0.30760000  0.41440000  0.72020000  1
  H  H15  1  0.31080000  0.38520000  0.20300000  1
  H  H16  1  0.32300000  0.34610000  0.51910000  1
  H  H17  1  0.32660000  0.59430000  0.14500000  1
  H  H18  1  0.33990000  0.91740000  0.86210000  1
  H  H19  1  0.34610000  0.67700000  0.26910000  1
  H  H20  1  0.36450000  0.96780000  0.37480000  1
  H  H21  1  0.38520000  0.68920000  0.95300000  1
  H  H22  1  0.40570000  0.32660000  0.39500000  1
  H  H23  1  0.41440000  0.69240000  0.47020000  1
  H  H24  1  0.41500000  0.18620000  0.24350000  1
  H  H25  1  0.46040000  0.83480000  0.61530000  1
  H  H26  1  0.47870000  0.29280000  0.04660000  1
  H  H27  1  0.49260000  0.88070000  0.23840000  1
  H  H28  1  0.50740000  0.11930000  0.73840000  1
  H  H29  1  0.52130000  0.70720000  0.54660000  1
  H  H30  1  0.53960000  0.16520000  0.11530000  1
  H  H31  1  0.58500000  0.81380000  0.74350000  1
  H  H32  1  0.58560000  0.30760000  0.97020000  1
  H  H33  1  0.59430000  0.67340000  0.89500000  1
  H  H34  1  0.61480000  0.31080000  0.45300000  1
  H  H35  1  0.63550000  0.03220000  0.87480000  1
  H  H36  1  0.65390000  0.32300000  0.76910000  1
  H  H37  1  0.66010000  0.08260000  0.36210000  1
  H  H38  1  0.67340000  0.40570000  0.64500000  1
  H  H39  1  0.67700000  0.65390000  0.01910000  1
  H  H40  1  0.68920000  0.61480000  0.70300000  1
  H  H41  1  0.69240000  0.58560000  0.22020000  1
  H  H42  1  0.70720000  0.47870000  0.29660000  1
  H  H43  1  0.74540000  0.09950000  0.67840000  1
  H  H44  1  0.81380000  0.41500000  0.49350000  1
  H  H45  1  0.83480000  0.53960000  0.36530000  1
  H  H46  1  0.88070000  0.50740000  0.98840000  1
  H  H47  1  0.88230000  0.90030000  0.63910000  1
  H  H48  1  0.90030000  0.11770000  0.38910000  1
  H  H49  1  0.90050000  0.74540000  0.92840000  1
  H  H50  1  0.91740000  0.66010000  0.61210000  1
  H  H51  1  0.96780000  0.63550000  0.12480000  1
  C  C52  1  0.02120000  0.29550000  0.41090000  1
  C  C53  1  0.07990000  0.37770000  0.59470000  1
  C  C54  1  0.08790000  0.78050000  0.88880000  1
  C  C55  1  0.11580000  0.47370000  0.05340000  1
  C  C56  1  0.12300000  0.54800000  0.87620000  1
  C  C57  1  0.12620000  0.44900000  0.51950000  1
  C  C58  1  0.14940000  0.36510000  0.08740000  1
  C  C59  1  0.21170000  0.51290000  0.01640000  1
  C  C60  1  0.21950000  0.08790000  0.13880000  1
  C  C61  1  0.23810000  0.36840000  0.53680000  1
  C  C62  1  0.28420000  0.29450000  0.08409000  1
  C  C63  1  0.29450000  0.71580000  0.83409000  1
  C  C64  1  0.29550000  0.97880000  0.16090000  1
  C  C65  1  0.33620000  0.61410000  0.79787000  1
  C  C66  1  0.34610000  0.44360000  0.01380000  1
  C  C67  1  0.36510000  0.85060000  0.83740000  1
  C  C68  1  0.36840000  0.76190000  0.28680000  1
  C  C69  1  0.37770000  0.92010000  0.34470000  1
  C  C70  1  0.38590000  0.33620000  0.04787000  1
  C  C71  1  0.38950000  0.45010000  0.19960000  1
  C  C72  1  0.39930000  0.56590000  0.16720000  1
  C  C73  1  0.40070000  0.43840000  0.70830000  1
  C  C74  1  0.43410000  0.39930000  0.41720000  1
  C  C75  1  0.43840000  0.59930000  0.45830000  1
  C  C76  1  0.44360000  0.65390000  0.76380000  1
  C  C77  1  0.44900000  0.87380000  0.26950000  1
  C  C78  1  0.45010000  0.61050000  0.94960000  1
  C  C79  1  0.45200000  0.12300000  0.12620000  1
  C  C80  1  0.47370000  0.88420000  0.80340000  1
  C  C81  1  0.48710000  0.21170000  0.26640000  1
  C  C82  1  0.51290000  0.78830000  0.76640000  1
  C  C83  1  0.52630000  0.11580000  0.30340000  1
  C  C84  1  0.54800000  0.87700000  0.62620000  1
  C  C85  1  0.54990000  0.38950000  0.44960000  1
  C  C86  1  0.55100000  0.12620000  0.76950000  1
  C  C87  1  0.55640000  0.34610000  0.26380000  1
  C  C88  1  0.56160000  0.40070000  0.95830000  1
  C  C89  1  0.56590000  0.60070000  0.91720000  1
  C  C90  1  0.59930000  0.56160000  0.20830000  1
  C  C91  1  0.60070000  0.43410000  0.66720000  1
  C  C92  1  0.61050000  0.54990000  0.69960000  1
  C  C93  1  0.61410000  0.66380000  0.54787000  1
  C  C94  1  0.62230000  0.07990000  0.84470000  1
  C  C95  1  0.63160000  0.23810000  0.78680000  1
  C  C96  1  0.63490000  0.14940000  0.33740000  1
  C  C97  1  0.65390000  0.55640000  0.51380000  1
  C  C98  1  0.66380000  0.38590000  0.29787000  1
  C  C99  1  0.70450000  0.02120000  0.66090000  1
  C  C100  1  0.70550000  0.28420000  0.33409000  1
  C  C101  1  0.71580000  0.70550000  0.58409000  1
  C  C102  1  0.76190000  0.63160000  0.03680000  1
  C  C103  1  0.78050000  0.91210000  0.63880000  1
  C  C104  1  0.78830000  0.48710000  0.51640000  1
  C  C105  1  0.85060000  0.63490000  0.58740000  1
  C  C106  1  0.87380000  0.55100000  0.01950000  1
  C  C107  1  0.87700000  0.45200000  0.37620000  1
  C  C108  1  0.88420000  0.52630000  0.55340000  1
  C  C109  1  0.91210000  0.21950000  0.38880000  1
  C  C110  1  0.92010000  0.62230000  0.09470000  1
  C  C111  1  0.97880000  0.70450000  0.91090000  1
  N  N112  1  0.00270000  0.55350000  0.90325000  1
  N  N113  1  0.02410000  0.45450000  0.55647000  1
  N  N114  1  0.17860000  0.68070000  0.86595000  1
  N  N115  1  0.21050000  0.32350000  0.58397000  1
  N  N116  1  0.31930000  0.17860000  0.11595000  1
  N  N117  1  0.32350000  0.78950000  0.33397000  1
  N  N118  1  0.36710000  0.53270000  0.42289000  1
  N  N119  1  0.44650000  0.00270000  0.15325000  1
  N  N120  1  0.44870000  0.48290000  0.97569000  1
  N  N121  1  0.45450000  0.97590000  0.30647000  1
  N  N122  1  0.46730000  0.36710000  0.67289000  1
  N  N123  1  0.48290000  0.55130000  0.72569000  1
  N  N124  1  0.51710000  0.44870000  0.22569000  1
  N  N125  1  0.53270000  0.63290000  0.17289000  1
  N  N126  1  0.54550000  0.02410000  0.80647000  1
  N  N127  1  0.55130000  0.51710000  0.47569000  1
  N  N128  1  0.55350000  0.99730000  0.65325000  1
  N  N129  1  0.63290000  0.46730000  0.92289000  1
  N  N130  1  0.67650000  0.21050000  0.83397000  1
  N  N131  1  0.68070000  0.82140000  0.61595000  1
  N  N132  1  0.78950000  0.67650000  0.08397000  1
  N  N133  1  0.82140000  0.31930000  0.36595000  1
  N  N134  1  0.97590000  0.54550000  0.05647000  1
  N  N135  1  0.99730000  0.44650000  0.40325000  1
