# generated using pymatgen
data_Mn4H21C15(N2O)6
_symmetry_space_group_name_H-M   'P 1'
_cell_length_a   8.05890000
_cell_length_b   13.51140000
_cell_length_c   13.51140000
_cell_angle_alpha   120.00000000
_cell_angle_beta   90.00000000
_cell_angle_gamma   90.00000000
_symmetry_Int_Tables_number   1
_chemical_formula_structural   Mn4H21C15(N2O)6
_chemical_formula_sum   'Mn8 H42 C30 N24 O12'
_cell_volume   1274.11051858
_cell_formula_units_Z   2
loop_
 _symmetry_equiv_pos_site_id
 _symmetry_equiv_pos_as_xyz
  1  'x, y, z'
loop_
 _atom_site_type_symbol
 _atom_site_label
 _atom_site_symmetry_multiplicity
 _atom_site_fract_x
 _atom_site_fract_y
 _atom_site_fract_z
 _atom_site_occupancy
  Mn  Mn0  1  0.45432000  0.96439000  0.66192000  1
  Mn  Mn1  1  0.45432000  0.69753000  0.03561000  1
  Mn  Mn2  1  0.07875000  0.66666667  0.33333333  1
  Mn  Mn3  1  0.95432000  0.66192000  0.69753000  1
  Mn  Mn4  1  0.45432000  0.33808000  0.30247000  1
  Mn  Mn5  1  0.57875000  0.33333333  0.66666667  1
  Mn  Mn6  1  0.95432000  0.30247000  0.96439000  1
  Mn  Mn7  1  0.95432000  0.03561000  0.33808000  1
  H  H8  1  0.69960000  0.98310000  0.53940000  1
  H  H9  1  0.94500000  0.95620000  0.60340000  1
  H  H10  1  0.84940000  0.91610000  0.67850000  1
  H  H11  1  0.56090000  0.91130000  0.19770000  1
  H  H12  1  0.70530000  0.86580000  0.51590000  1
  H  H13  1  0.29140000  0.86380000  0.28650000  1
  H  H14  1  0.55520000  0.84470000  0.25590000  1
  H  H15  1  0.56090000  0.80230000  0.71360000  1
  H  H16  1  0.84940000  0.76240000  0.08390000  1
  H  H17  1  0.55520000  0.74410000  0.58880000  1
  H  H18  1  0.06090000  0.71360000  0.91130000  1
  H  H19  1  0.29140000  0.71350000  0.57730000  1
  H  H20  1  0.34940000  0.67850000  0.76240000  1
  H  H21  1  0.70530000  0.65010000  0.13420000  1
  H  H22  1  0.94500000  0.64720000  0.04380000  1
  H  H23  1  0.44500000  0.60340000  0.64720000  1
  H  H24  1  0.05520000  0.58880000  0.84470000  1
  H  H25  1  0.79140000  0.57730000  0.86380000  1
  H  H26  1  0.69960000  0.55630000  0.01690000  1
  H  H27  1  0.19960000  0.53940000  0.55630000  1
  H  H28  1  0.20530000  0.51590000  0.65010000  1
  H  H29  1  0.70530000  0.48410000  0.34990000  1
  H  H30  1  0.69960000  0.46060000  0.44370000  1
  H  H31  1  0.19960000  0.44370000  0.98310000  1
  H  H32  1  0.29140000  0.42270000  0.13620000  1
  H  H33  1  0.55520000  0.41120000  0.15530000  1
  H  H34  1  0.94500000  0.39660000  0.35280000  1
  H  H35  1  0.44500000  0.35280000  0.95620000  1
  H  H36  1  0.20530000  0.34990000  0.86580000  1
  H  H37  1  0.84940000  0.32150000  0.23760000  1
  H  H38  1  0.79140000  0.28650000  0.42270000  1
  H  H39  1  0.56090000  0.28640000  0.08870000  1
  H  H40  1  0.05520000  0.25590000  0.41120000  1
  H  H41  1  0.34940000  0.23760000  0.91610000  1
  H  H42  1  0.06090000  0.19770000  0.28640000  1
  H  H43  1  0.05520000  0.15530000  0.74410000  1
  H  H44  1  0.79140000  0.13620000  0.71350000  1
  H  H45  1  0.20530000  0.13420000  0.48410000  1
  H  H46  1  0.06090000  0.08870000  0.80230000  1
  H  H47  1  0.34940000  0.08390000  0.32150000  1
  H  H48  1  0.44500000  0.04380000  0.39660000  1
  H  H49  1  0.19960000  0.01690000  0.46060000  1
  C  C50  1  0.84490000  0.96718000  0.64758000  1
  C  C51  1  0.33650000  0.90890000  0.25423000  1
  C  C52  1  0.22010000  0.89058000  0.15693000  1
  C  C53  1  0.22010000  0.84307000  0.73365000  1
  C  C54  1  0.22350000  0.79414000  0.44007000  1
  C  C55  1  0.95120000  0.78742000  0.32253000  1
  C  C56  1  0.33650000  0.74577000  0.65467000  1
  C  C57  1  0.72010000  0.73365000  0.89058000  1
  C  C58  1  0.84490000  0.68040000  0.03282000  1
  C  C59  1  0.95120000  0.67747000  0.46489000  1
  C  C60  1  0.83650000  0.65467000  0.90890000  1
  C  C61  1  0.34490000  0.64758000  0.68040000  1
  C  C62  1  0.22350000  0.64593000  0.20586000  1
  C  C63  1  0.22350000  0.55993000  0.35407000  1
  C  C64  1  0.95120000  0.53511000  0.21258000  1
  C  C65  1  0.45120000  0.46489000  0.78742000  1
  C  C66  1  0.72350000  0.44007000  0.64593000  1
  C  C67  1  0.72350000  0.35407000  0.79414000  1
  C  C68  1  0.84490000  0.35242000  0.31960000  1
  C  C69  1  0.33650000  0.34533000  0.09110000  1
  C  C70  1  0.45120000  0.32253000  0.53511000  1
  C  C71  1  0.34490000  0.31960000  0.96718000  1
  C  C72  1  0.22010000  0.26635000  0.10942000  1
  C  C73  1  0.83650000  0.25423000  0.34533000  1
  C  C74  1  0.45120000  0.21258000  0.67747000  1
  C  C75  1  0.72350000  0.20586000  0.55993000  1
  C  C76  1  0.72010000  0.15693000  0.26635000  1
  C  C77  1  0.72010000  0.10942000  0.84307000  1
  C  C78  1  0.83650000  0.09110000  0.74577000  1
  C  C79  1  0.34490000  0.03282000  0.35242000  1
  N  N80  1  0.69780000  0.93918000  0.57212000  1
  N  N81  1  0.30960000  0.86850000  0.50032000  1
  N  N82  1  0.89420000  0.86480000  0.32051000  1
  N  N83  1  0.50030000  0.86113000  0.20787000  1
  N  N84  1  0.50030000  0.79213000  0.65326000  1
  N  N85  1  0.89420000  0.67949000  0.54429000  1
  N  N86  1  0.00030000  0.65326000  0.86113000  1
  N  N87  1  0.69780000  0.63294000  0.06082000  1
  N  N88  1  0.30960000  0.63182000  0.13150000  1
  N  N89  1  0.19780000  0.57212000  0.63294000  1
  N  N90  1  0.39420000  0.54429000  0.86480000  1
  N  N91  1  0.80960000  0.50032000  0.63182000  1
  N  N92  1  0.30960000  0.49968000  0.36818000  1
  N  N93  1  0.89420000  0.45571000  0.13520000  1
  N  N94  1  0.69780000  0.42788000  0.36706000  1
  N  N95  1  0.80960000  0.36818000  0.86850000  1
  N  N96  1  0.19780000  0.36706000  0.93918000  1
  N  N97  1  0.50030000  0.34674000  0.13887000  1
  N  N98  1  0.39420000  0.32051000  0.45571000  1
  N  N99  1  0.00030000  0.20787000  0.34674000  1
  N  N100  1  0.00030000  0.13887000  0.79213000  1
  N  N101  1  0.39420000  0.13520000  0.67949000  1
  N  N102  1  0.80960000  0.13150000  0.49968000  1
  N  N103  1  0.19780000  0.06082000  0.42788000  1
  O  O104  1  0.09350000  0.95157000  0.18047000  1
  O  O105  1  0.25486000  0.94283000  0.75655000  1
  O  O106  1  0.09350000  0.81953000  0.77110000  1
  O  O107  1  0.25486000  0.81372000  0.05717000  1
  O  O108  1  0.59350000  0.77110000  0.95157000  1
  O  O109  1  0.75486000  0.75655000  0.81372000  1
  O  O110  1  0.25486000  0.24345000  0.18628000  1
  O  O111  1  0.09350000  0.22890000  0.04843000  1
  O  O112  1  0.75486000  0.18628000  0.94283000  1
  O  O113  1  0.59350000  0.18047000  0.22890000  1
  O  O114  1  0.75486000  0.05717000  0.24345000  1
  O  O115  1  0.59350000  0.04843000  0.81953000  1
