# generated using pymatgen
data_Zn3CuH26C40(N2O7)2
_symmetry_space_group_name_H-M   'P 1'
_cell_length_a   9.45920000
_cell_length_b   18.41380000
_cell_length_c   41.25400000
_cell_angle_alpha   98.64500000
_cell_angle_beta   90.00000000
_cell_angle_gamma   90.00000000
_symmetry_Int_Tables_number   1
_chemical_formula_structural   Zn3CuH26C40(N2O7)2
_chemical_formula_sum   'Zn12 Cu4 H104 C160 N16 O56'
_cell_volume   7103.97575709
_cell_formula_units_Z   4
loop_
 _symmetry_equiv_pos_site_id
 _symmetry_equiv_pos_as_xyz
  1  'x, y, z'
loop_
 _atom_site_type_symbol
 _atom_site_label
 _atom_site_symmetry_multiplicity
 _atom_site_fract_x
 _atom_site_fract_y
 _atom_site_fract_z
 _atom_site_occupancy
  Zn  Zn0  1  0.00000000  0.50000000  0.00000000  1
  Zn  Zn1  1  1.00000000  1.00000000  0.50000000  1
  Zn  Zn2  1  0.95731000  0.53075000  0.07975000  1
  Zn  Zn3  1  0.95639000  0.97050000  0.42019000  1
  Zn  Zn4  1  0.54361000  0.47050000  0.42019000  1
  Zn  Zn5  1  0.54269000  0.03075000  0.07975000  1
  Zn  Zn6  1  0.50000000  0.00000000  0.00000000  1
  Zn  Zn7  1  0.50000000  0.50000000  0.50000000  1
  Zn  Zn8  1  0.45731000  0.96925000  0.92025000  1
  Zn  Zn9  1  0.45639000  0.52950000  0.57981000  1
  Zn  Zn10  1  0.04361000  0.02950000  0.57981000  1
  Zn  Zn11  1  0.04269000  0.46925000  0.92025000  1
  Cu  Cu12  1  0.80855000  0.46796000  0.25008000  1
  Cu  Cu13  1  0.69145000  0.96796000  0.25008000  1
  Cu  Cu14  1  0.30855000  0.03204000  0.74992000  1
  Cu  Cu15  1  0.19145000  0.53204000  0.74992000  1
  H  H16  1  0.99900000  0.40180000  0.46000000  1
  H  H17  1  0.99780000  0.31800000  0.27730000  1
  H  H18  1  0.98600000  0.37210000  0.17460000  1
  H  H19  1  0.98560000  0.92410000  0.62510000  1
  H  H20  1  0.97100000  0.42850000  0.13060000  1
  H  H21  1  0.95580000  0.89230000  0.70080000  1
  H  H22  1  0.95010000  0.84840000  0.66430000  1
  H  H23  1  0.92310000  0.67470000  0.77850000  1
  H  H24  1  0.92250000  0.29360000  0.22800000  1
  H  H25  1  0.91360000  0.15800000  0.31340000  1
  H  H26  1  0.90510000  0.61600000  0.73040000  1
  H  H27  1  0.89640000  0.13790000  0.19810000  1
  H  H28  1  0.85900000  0.28590000  0.99950000  1
  H  H29  1  0.85160000  0.20720000  0.50320000  1
  H  H30  1  0.84320000  0.24760000  0.60160000  1
  H  H31  1  0.83630000  0.26220000  0.90100000  1
  H  H32  1  0.82310000  0.34950000  0.31450000  1
  H  H33  1  0.82020000  0.19210000  0.17670000  1
  H  H34  1  0.80600000  0.58340000  0.50280000  1
  H  H35  1  0.78600000  0.63460000  0.13310000  1
  H  H36  1  0.76460000  0.64620000  0.90050000  1
  H  H37  1  0.76200000  0.91700000  0.37010000  1
  H  H38  1  0.75720000  0.86200000  0.59910000  1
  H  H39  1  0.75220000  0.17800000  0.21070000  1
  H  H40  1  0.75170000  0.32080000  0.50060000  1
  H  H41  1  0.75020000  0.17270000  0.99910000  1
  H  H42  1  0.74980000  0.67270000  0.99910000  1
  H  H43  1  0.74830000  0.82080000  0.50060000  1
  H  H44  1  0.74780000  0.67800000  0.21070000  1
  H  H45  1  0.74280000  0.36200000  0.59910000  1
  H  H46  1  0.73800000  0.41700000  0.37010000  1
  H  H47  1  0.73540000  0.14620000  0.90050000  1
  H  H48  1  0.71400000  0.13460000  0.13310000  1
  H  H49  1  0.69400000  0.08340000  0.50280000  1
  H  H50  1  0.67980000  0.69210000  0.17670000  1
  H  H51  1  0.67690000  0.84950000  0.31450000  1
  H  H52  1  0.66370000  0.76220000  0.90100000  1
  H  H53  1  0.65680000  0.74760000  0.60160000  1
  H  H54  1  0.64840000  0.70720000  0.50320000  1
  H  H55  1  0.64100000  0.78590000  0.99950000  1
  H  H56  1  0.60360000  0.63790000  0.19810000  1
  H  H57  1  0.59490000  0.11600000  0.73040000  1
  H  H58  1  0.58640000  0.65800000  0.31340000  1
  H  H59  1  0.57750000  0.79360000  0.22800000  1
  H  H60  1  0.57690000  0.17470000  0.77850000  1
  H  H61  1  0.54990000  0.34840000  0.66430000  1
  H  H62  1  0.54420000  0.39230000  0.70080000  1
  H  H63  1  0.52900000  0.92850000  0.13060000  1
  H  H64  1  0.51440000  0.42410000  0.62510000  1
  H  H65  1  0.51400000  0.87210000  0.17460000  1
  H  H66  1  0.50220000  0.81800000  0.27730000  1
  H  H67  1  0.50100000  0.90180000  0.46000000  1
  H  H68  1  0.49900000  0.09820000  0.54000000  1
  H  H69  1  0.49780000  0.18200000  0.72270000  1
  H  H70  1  0.48600000  0.12790000  0.82540000  1
  H  H71  1  0.48560000  0.57590000  0.37490000  1
  H  H72  1  0.47100000  0.07150000  0.86940000  1
  H  H73  1  0.45580000  0.60770000  0.29920000  1
  H  H74  1  0.45010000  0.65160000  0.33570000  1
  H  H75  1  0.42310000  0.82530000  0.22150000  1
  H  H76  1  0.42250000  0.20640000  0.77200000  1
  H  H77  1  0.41360000  0.34200000  0.68660000  1
  H  H78  1  0.40510000  0.88400000  0.26960000  1
  H  H79  1  0.39640000  0.36210000  0.80190000  1
  H  H80  1  0.35900000  0.21410000  0.00050000  1
  H  H81  1  0.35160000  0.29280000  0.49680000  1
  H  H82  1  0.34320000  0.25240000  0.39840000  1
  H  H83  1  0.33630000  0.23780000  0.09900000  1
  H  H84  1  0.32310000  0.15050000  0.68550000  1
  H  H85  1  0.32020000  0.30790000  0.82330000  1
  H  H86  1  0.30600000  0.91660000  0.49720000  1
  H  H87  1  0.28600000  0.86540000  0.86690000  1
  H  H88  1  0.26460000  0.85380000  0.09950000  1
  H  H89  1  0.26200000  0.58300000  0.62990000  1
  H  H90  1  0.25720000  0.63800000  0.40090000  1
  H  H91  1  0.25220000  0.32200000  0.78930000  1
  H  H92  1  0.25170000  0.17920000  0.49940000  1
  H  H93  1  0.25020000  0.32730000  0.00090000  1
  H  H94  1  0.24980000  0.82730000  0.00090000  1
  H  H95  1  0.24830000  0.67920000  0.49940000  1
  H  H96  1  0.24780000  0.82200000  0.78930000  1
  H  H97  1  0.24280000  0.13800000  0.40090000  1
  H  H98  1  0.23800000  0.08300000  0.62990000  1
  H  H99  1  0.23540000  0.35380000  0.09950000  1
  H  H100  1  0.21400000  0.36540000  0.86690000  1
  H  H101  1  0.19400000  0.41660000  0.49720000  1
  H  H102  1  0.17980000  0.80790000  0.82330000  1
  H  H103  1  0.17690000  0.65050000  0.68550000  1
  H  H104  1  0.16370000  0.73780000  0.09900000  1
  H  H105  1  0.15680000  0.75240000  0.39840000  1
  H  H106  1  0.14840000  0.79280000  0.49680000  1
  H  H107  1  0.14100000  0.71410000  0.00050000  1
  H  H108  1  0.10360000  0.86210000  0.80190000  1
  H  H109  1  0.09490000  0.38400000  0.26960000  1
  H  H110  1  0.08640000  0.84200000  0.68660000  1
  H  H111  1  0.07750000  0.70640000  0.77200000  1
  H  H112  1  0.07690000  0.32530000  0.22150000  1
  H  H113  1  0.04990000  0.15160000  0.33570000  1
  H  H114  1  0.04420000  0.10770000  0.29920000  1
  H  H115  1  0.02900000  0.57150000  0.86940000  1
  H  H116  1  0.01440000  0.07590000  0.37490000  1
  H  H117  1  0.01400000  0.62790000  0.82540000  1
  H  H118  1  0.00220000  0.68200000  0.72270000  1
  H  H119  1  0.00100000  0.59820000  0.54000000  1
  C  C120  1  1.00000000  0.63830000  0.73408000  1
  C  C121  1  0.00000000  0.36170000  0.26592000  1
  C  C122  1  0.99960000  0.06630000  0.02165000  1
  C  C123  1  0.99810000  0.43860000  0.47704000  1
  C  C124  1  0.98840000  0.12500000  0.31885000  1
  C  C125  1  0.98400000  0.33750000  0.23199000  1
  C  C126  1  0.95000000  0.04370000  0.36225000  1
  C  C127  1  0.94100000  0.41130000  0.18890000  1
  C  C128  1  0.92490000  0.47640000  0.14129000  1
  C  C129  1  0.92170000  0.13984000  0.55296000  1
  C  C130  1  0.91990000  0.05720000  0.33214000  1
  C  C131  1  0.91810000  0.35909000  0.95097000  1
  C  C132  1  0.89090000  0.47460000  0.17491000  1
  C  C133  1  0.89000000  0.54868000  0.50211000  1
  C  C134  1  0.88880000  0.01697000  0.02039000  1
  C  C135  1  0.88620000  0.48549000  0.47824000  1
  C  C136  1  0.88420000  0.95091000  0.99928000  1
  C  C137  1  0.85900000  0.21485000  0.55268000  1
  C  C138  1  0.85620000  0.28394000  0.95090000  1
  C  C139  1  0.85230000  0.57902000  0.94934000  1
  C  C140  1  0.84730000  0.91962000  0.54801000  1
  C  C141  1  0.83170000  0.25772000  0.97925000  1
  C  C142  1  0.83090000  0.01300000  0.31129000  1
  C  C143  1  0.82910000  0.23850000  0.52297000  1
  C  C144  1  0.82450000  0.26200000  0.58086000  1
  C  C145  1  0.81960000  0.24360000  0.92090000  1
  C  C146  1  0.81940000  0.39690000  0.30813000  1
  C  C147  1  0.81800000  0.58770000  0.14140000  1
  C  C148  1  0.81120000  0.53310000  0.19177000  1
  C  C149  1  0.80810000  0.94400000  0.35730000  1
  C  C150  1  0.80490000  0.15560000  0.19135000  1
  C  C151  1  0.77920000  0.59120000  0.17340000  1
  C  C152  1  0.77180000  0.64849000  0.94943000  1
  C  C153  1  0.76830000  0.30544000  0.52125000  1
  C  C154  1  0.76770000  0.84922000  0.54939000  1
  C  C155  1  0.76760000  0.19054000  0.97905000  1
  C  C156  1  0.76760000  0.95410000  0.32587000  1
  C  C157  1  0.76720000  0.03470000  0.04334000  1
  C  C158  1  0.76550000  0.47065000  0.45499000  1
  C  C159  1  0.76320000  0.32954000  0.57950000  1
  C  C160  1  0.75780000  0.17530000  0.92087000  1
  C  C161  1  0.74220000  0.67530000  0.92087000  1
  C  C162  1  0.73680000  0.82954000  0.57950000  1
  C  C163  1  0.73450000  0.97065000  0.45499000  1
  C  C164  1  0.73280000  0.53470000  0.04334000  1
  C  C165  1  0.73240000  0.69054000  0.97905000  1
  C  C166  1  0.73240000  0.45410000  0.32587000  1
  C  C167  1  0.73230000  0.34922000  0.54939000  1
  C  C168  1  0.73170000  0.80544000  0.52125000  1
  C  C169  1  0.72820000  0.14849000  0.94943000  1
  C  C170  1  0.72080000  0.09120000  0.17340000  1
  C  C171  1  0.69510000  0.65560000  0.19135000  1
  C  C172  1  0.69190000  0.44400000  0.35730000  1
  C  C173  1  0.68880000  0.03310000  0.19177000  1
  C  C174  1  0.68200000  0.08770000  0.14140000  1
  C  C175  1  0.68060000  0.89690000  0.30813000  1
  C  C176  1  0.68040000  0.74360000  0.92090000  1
  C  C177  1  0.67550000  0.76200000  0.58086000  1
  C  C178  1  0.67090000  0.73850000  0.52297000  1
  C  C179  1  0.66910000  0.51300000  0.31129000  1
  C  C180  1  0.66830000  0.75772000  0.97925000  1
  C  C181  1  0.65270000  0.41962000  0.54801000  1
  C  C182  1  0.64770000  0.07902000  0.94934000  1
  C  C183  1  0.64380000  0.78394000  0.95090000  1
  C  C184  1  0.64100000  0.71485000  0.55268000  1
  C  C185  1  0.61580000  0.45091000  0.99928000  1
  C  C186  1  0.61380000  0.98549000  0.47824000  1
  C  C187  1  0.61120000  0.51697000  0.02039000  1
  C  C188  1  0.61000000  0.04868000  0.50211000  1
  C  C189  1  0.60910000  0.97460000  0.17491000  1
  C  C190  1  0.58190000  0.85909000  0.95097000  1
  C  C191  1  0.58010000  0.55720000  0.33214000  1
  C  C192  1  0.57830000  0.63984000  0.55296000  1
  C  C193  1  0.57510000  0.97640000  0.14129000  1
  C  C194  1  0.55900000  0.91130000  0.18890000  1
  C  C195  1  0.55000000  0.54370000  0.36225000  1
  C  C196  1  0.51600000  0.83750000  0.23199000  1
  C  C197  1  0.51160000  0.62500000  0.31885000  1
  C  C198  1  0.50190000  0.93860000  0.47704000  1
  C  C199  1  0.50040000  0.56630000  0.02165000  1
  C  C200  1  0.50000000  0.13830000  0.73408000  1
  C  C201  1  0.50000000  0.86170000  0.26592000  1
  C  C202  1  0.49960000  0.43370000  0.97835000  1
  C  C203  1  0.49810000  0.06140000  0.52296000  1
  C  C204  1  0.48840000  0.37500000  0.68115000  1
  C  C205  1  0.48400000  0.16250000  0.76801000  1
  C  C206  1  0.45000000  0.45630000  0.63775000  1
  C  C207  1  0.44100000  0.08870000  0.81110000  1
  C  C208  1  0.42490000  0.02360000  0.85871000  1
  C  C209  1  0.42170000  0.36016000  0.44704000  1
  C  C210  1  0.41990000  0.44280000  0.66786000  1
  C  C211  1  0.41810000  0.14091000  0.04903000  1
  C  C212  1  0.39090000  0.02540000  0.82509000  1
  C  C213  1  0.39000000  0.95132000  0.49789000  1
  C  C214  1  0.38880000  0.48303000  0.97961000  1
  C  C215  1  0.38620000  0.01451000  0.52176000  1
  C  C216  1  0.38420000  0.54909000  0.00072000  1
  C  C217  1  0.35900000  0.28515000  0.44732000  1
  C  C218  1  0.35620000  0.21606000  0.04910000  1
  C  C219  1  0.35230000  0.92098000  0.05066000  1
  C  C220  1  0.34730000  0.58038000  0.45199000  1
  C  C221  1  0.33170000  0.24228000  0.02075000  1
  C  C222  1  0.33090000  0.48700000  0.68871000  1
  C  C223  1  0.32910000  0.26150000  0.47703000  1
  C  C224  1  0.32450000  0.23800000  0.41914000  1
  C  C225  1  0.31960000  0.25640000  0.07910000  1
  C  C226  1  0.31940000  0.10310000  0.69187000  1
  C  C227  1  0.31800000  0.91230000  0.85860000  1
  C  C228  1  0.31120000  0.96690000  0.80823000  1
  C  C229  1  0.30810000  0.55600000  0.64270000  1
  C  C230  1  0.30490000  0.34440000  0.80865000  1
  C  C231  1  0.27920000  0.90880000  0.82660000  1
  C  C232  1  0.27180000  0.85151000  0.05057000  1
  C  C233  1  0.26830000  0.19456000  0.47875000  1
  C  C234  1  0.26770000  0.65078000  0.45061000  1
  C  C235  1  0.26760000  0.54590000  0.67413000  1
  C  C236  1  0.26760000  0.30946000  0.02095000  1
  C  C237  1  0.26720000  0.46530000  0.95666000  1
  C  C238  1  0.26550000  0.02935000  0.54501000  1
  C  C239  1  0.26320000  0.17046000  0.42050000  1
  C  C240  1  0.25780000  0.32470000  0.07913000  1
  C  C241  1  0.24220000  0.82470000  0.07913000  1
  C  C242  1  0.23680000  0.67046000  0.42050000  1
  C  C243  1  0.23450000  0.52935000  0.54501000  1
  C  C244  1  0.23280000  0.96530000  0.95666000  1
  C  C245  1  0.23240000  0.04590000  0.67413000  1
  C  C246  1  0.23240000  0.80946000  0.02095000  1
  C  C247  1  0.23230000  0.15078000  0.45061000  1
  C  C248  1  0.23170000  0.69456000  0.47875000  1
  C  C249  1  0.22820000  0.35151000  0.05057000  1
  C  C250  1  0.22080000  0.40880000  0.82660000  1
  C  C251  1  0.19510000  0.84440000  0.80865000  1
  C  C252  1  0.19190000  0.05600000  0.64270000  1
  C  C253  1  0.18880000  0.46690000  0.80823000  1
  C  C254  1  0.18200000  0.41230000  0.85860000  1
  C  C255  1  0.18060000  0.60310000  0.69187000  1
  C  C256  1  0.18040000  0.75640000  0.07910000  1
  C  C257  1  0.17550000  0.73800000  0.41914000  1
  C  C258  1  0.17090000  0.76150000  0.47703000  1
  C  C259  1  0.16910000  0.98700000  0.68871000  1
  C  C260  1  0.16830000  0.74228000  0.02075000  1
  C  C261  1  0.15270000  0.08038000  0.45199000  1
  C  C262  1  0.14770000  0.42098000  0.05066000  1
  C  C263  1  0.14380000  0.71606000  0.04910000  1
  C  C264  1  0.14100000  0.78515000  0.44732000  1
  C  C265  1  0.11580000  0.04909000  0.00072000  1
  C  C266  1  0.11380000  0.51451000  0.52176000  1
  C  C267  1  0.11120000  0.98303000  0.97961000  1
  C  C268  1  0.11000000  0.45132000  0.49789000  1
  C  C269  1  0.10910000  0.52540000  0.82509000  1
  C  C270  1  0.08190000  0.64091000  0.04903000  1
  C  C271  1  0.08010000  0.94280000  0.66786000  1
  C  C272  1  0.07830000  0.86016000  0.44704000  1
  C  C273  1  0.07510000  0.52360000  0.85871000  1
  C  C274  1  0.05900000  0.58870000  0.81110000  1
  C  C275  1  0.05000000  0.95630000  0.63775000  1
  C  C276  1  0.01600000  0.66250000  0.76801000  1
  C  C277  1  0.01160000  0.87500000  0.68115000  1
  C  C278  1  0.00190000  0.56140000  0.52296000  1
  C  C279  1  0.00040000  0.93370000  0.97835000  1
  N  N280  1  0.91400000  0.40411000  0.21814000  1
  N  N281  1  0.89830000  0.41330000  0.28133000  1
  N  N282  1  0.89700000  0.98858000  0.37588000  1
  N  N283  1  0.89020000  0.53010000  0.12544000  1
  N  N284  1  0.60980000  0.03010000  0.12544000  1
  N  N285  1  0.60300000  0.48858000  0.37588000  1
  N  N286  1  0.60170000  0.91330000  0.28133000  1
  N  N287  1  0.58600000  0.90411000  0.21814000  1
  N  N288  1  0.41400000  0.09589000  0.78186000  1
  N  N289  1  0.39830000  0.08670000  0.71867000  1
  N  N290  1  0.39700000  0.51142000  0.62412000  1
  N  N291  1  0.39020000  0.96990000  0.87456000  1
  N  N292  1  0.10980000  0.46990000  0.87456000  1
  N  N293  1  0.10300000  0.01142000  0.62412000  1
  N  N294  1  0.10170000  0.58670000  0.71867000  1
  N  N295  1  0.08600000  0.59589000  0.78186000  1
  O  O296  1  0.95560000  0.12487000  0.58100000  1
  O  O297  1  0.94310000  0.39597000  0.97877000  1
  O  O298  1  0.94170000  0.37992000  0.92335000  1
  O  O299  1  0.93090000  0.09878000  0.52685000  1
  O  O300  1  0.90800000  0.55118000  0.92285000  1
  O  O301  1  0.89140000  0.95420000  0.57432000  1
  O  O302  1  0.86350000  0.93770000  0.51953000  1
  O  O303  1  0.85760000  0.55229000  0.97539000  1
  O  O304  1  0.84720000  0.00963000  0.46083000  1
  O  O305  1  0.84610000  0.49490000  0.03946000  1
  O  O306  1  0.80080000  0.02931000  0.28250000  1
  O  O307  1  0.77550000  0.42334000  0.43051000  1
  O  O308  1  0.77520000  0.08455000  0.06687000  1
  O  O309  1  0.77020000  0.53688000  0.22148000  1
  O  O310  1  0.72980000  0.03688000  0.22148000  1
  O  O311  1  0.72480000  0.58455000  0.06687000  1
  O  O312  1  0.72450000  0.92334000  0.43051000  1
  O  O313  1  0.69920000  0.52931000  0.28250000  1
  O  O314  1  0.65390000  0.99490000  0.03946000  1
  O  O315  1  0.65280000  0.50963000  0.46083000  1
  O  O316  1  0.64240000  0.05229000  0.97539000  1
  O  O317  1  0.63650000  0.43770000  0.51953000  1
  O  O318  1  0.60860000  0.45420000  0.57432000  1
  O  O319  1  0.59200000  0.05118000  0.92285000  1
  O  O320  1  0.56910000  0.59878000  0.52685000  1
  O  O321  1  0.55830000  0.87992000  0.92335000  1
  O  O322  1  0.55690000  0.89597000  0.97877000  1
  O  O323  1  0.54440000  0.62487000  0.58100000  1
  O  O324  1  0.45560000  0.37513000  0.41900000  1
  O  O325  1  0.44310000  0.10403000  0.02123000  1
  O  O326  1  0.44170000  0.12008000  0.07665000  1
  O  O327  1  0.43090000  0.40122000  0.47315000  1
  O  O328  1  0.40800000  0.94882000  0.07715000  1
  O  O329  1  0.39140000  0.54580000  0.42568000  1
  O  O330  1  0.36350000  0.56230000  0.48047000  1
  O  O331  1  0.35760000  0.94771000  0.02461000  1
  O  O332  1  0.34720000  0.49037000  0.53917000  1
  O  O333  1  0.34610000  0.00510000  0.96054000  1
  O  O334  1  0.30080000  0.47069000  0.71750000  1
  O  O335  1  0.27550000  0.07666000  0.56949000  1
  O  O336  1  0.27520000  0.41545000  0.93313000  1
  O  O337  1  0.27020000  0.96312000  0.77852000  1
  O  O338  1  0.22980000  0.46312000  0.77852000  1
  O  O339  1  0.22480000  0.91545000  0.93313000  1
  O  O340  1  0.22450000  0.57666000  0.56949000  1
  O  O341  1  0.19920000  0.97069000  0.71750000  1
  O  O342  1  0.15390000  0.50510000  0.96054000  1
  O  O343  1  0.15280000  0.99037000  0.53917000  1
  O  O344  1  0.14240000  0.44771000  0.02461000  1
  O  O345  1  0.13650000  0.06230000  0.48047000  1
  O  O346  1  0.10860000  0.04580000  0.42568000  1
  O  O347  1  0.09200000  0.44882000  0.07715000  1
  O  O348  1  0.06910000  0.90122000  0.47315000  1
  O  O349  1  0.05830000  0.62008000  0.07665000  1
  O  O350  1  0.05690000  0.60403000  0.02123000  1
  O  O351  1  0.04440000  0.87513000  0.41900000  1
