# generated using pymatgen
data_Mn3H61C64(N2O3)4
_symmetry_space_group_name_H-M   'P 1'
_cell_length_a   9.77700000
_cell_length_b   9.77700000
_cell_length_c   33.61100000
_cell_angle_alpha   90.00000000
_cell_angle_beta   90.00000000
_cell_angle_gamma   89.65900000
_symmetry_Int_Tables_number   1
_chemical_formula_structural   Mn3H61C64(N2O3)4
_chemical_formula_sum   'Mn6 H122 C128 N16 O24'
_cell_volume   3212.80947977
_cell_formula_units_Z   2
loop_
 _symmetry_equiv_pos_site_id
 _symmetry_equiv_pos_as_xyz
  1  'x, y, z'
loop_
 _atom_site_type_symbol
 _atom_site_label
 _atom_site_symmetry_multiplicity
 _atom_site_fract_x
 _atom_site_fract_y
 _atom_site_fract_z
 _atom_site_occupancy
  Mn  Mn0  1  0.04735000  0.02741000  0.60742000  1
  Mn  Mn1  1  0.04735000  0.02741000  0.89258000  1
  Mn  Mn2  1  0.97259000  0.95265000  0.10742000  1
  Mn  Mn3  1  0.97259000  0.95265000  0.39258000  1
  Mn  Mn4  1  0.02731000  0.97269000  0.00000000  1
  Mn  Mn5  1  0.02731000  0.97269000  0.50000000  1
  H  H6  1  0.53350000  0.01070000  0.06520000  1
  H  H7  1  0.53350000  0.01070000  0.43480000  1
  H  H8  1  0.60700000  0.04600000  0.10530000  1
  H  H9  1  0.60700000  0.04600000  0.39470000  1
  H  H10  1  0.44900000  0.04860000  0.17080000  1
  H  H11  1  0.44900000  0.04860000  0.32920000  1
  H  H12  1  0.49160000  0.05420000  0.71270000  1
  H  H13  1  0.49160000  0.05420000  0.78730000  1
  H  H14  1  0.03830000  0.06810000  0.75000000  1
  H  H15  1  0.41470000  0.10170000  0.67410000  1
  H  H16  1  0.41470000  0.10170000  0.82590000  1
  H  H17  1  0.57420000  0.11420000  0.67680000  1
  H  H18  1  0.57420000  0.11420000  0.82320000  1
  H  H19  1  0.72410000  0.23150000  0.07050000  1
  H  H20  1  0.72410000  0.23150000  0.42950000  1
  H  H21  1  0.69880000  0.23180000  0.19080000  1
  H  H22  1  0.69880000  0.23180000  0.30920000  1
  H  H23  1  0.20640000  0.23680000  0.54450000  1
  H  H24  1  0.20640000  0.23680000  0.95550000  1
  H  H25  1  0.32360000  0.24920000  0.08360000  1
  H  H26  1  0.32360000  0.24920000  0.41640000  1
  H  H27  1  0.04020000  0.27340000  0.11710000  1
  H  H28  1  0.04020000  0.27340000  0.38290000  1
  H  H29  1  0.76850000  0.27590000  0.57050000  1
  H  H30  1  0.76850000  0.27590000  0.92950000  1
  H  H31  1  0.54670000  0.27830000  0.55080000  1
  H  H32  1  0.54670000  0.27830000  0.94920000  1
  H  H33  1  0.20060000  0.28000000  0.65990000  1
  H  H34  1  0.20060000  0.28000000  0.84010000  1
  H  H35  1  0.08030000  0.28170000  0.17840000  1
  H  H36  1  0.08030000  0.28170000  0.32160000  1
  H  H37  1  0.76820000  0.30120000  0.69080000  1
  H  H38  1  0.76820000  0.30120000  0.80920000  1
  H  H39  1  0.51250000  0.32970000  0.71100000  1
  H  H40  1  0.51250000  0.32970000  0.78900000  1
  H  H41  1  0.22800000  0.33340000  0.16850000  1
  H  H42  1  0.22800000  0.33340000  0.33150000  1
  H  H43  1  0.16350000  0.36330000  0.21030000  1
  H  H44  1  0.16350000  0.36330000  0.28970000  1
  H  H45  1  0.95400000  0.39300000  0.60530000  1
  H  H46  1  0.95400000  0.39300000  0.89470000  1
  H  H47  1  0.55440000  0.40060000  0.19130000  1
  H  H48  1  0.55440000  0.40060000  0.30870000  1
  H  H49  1  0.88580000  0.42580000  0.17680000  1
  H  H50  1  0.88580000  0.42580000  0.32320000  1
  H  H51  1  0.34400000  0.43980000  0.52220000  1
  H  H52  1  0.34400000  0.43980000  0.97780000  1
  H  H53  1  0.59940000  0.44560000  0.69130000  1
  H  H54  1  0.59940000  0.44560000  0.80870000  1
  H  H55  1  0.72170000  0.45330000  0.05080000  1
  H  H56  1  0.72170000  0.45330000  0.44920000  1
  H  H57  1  0.02400000  0.46040000  0.01110000  1
  H  H58  1  0.02400000  0.46040000  0.48890000  1
  H  H59  1  0.98930000  0.46650000  0.56520000  1
  H  H60  1  0.98930000  0.46650000  0.93480000  1
  H  H61  1  0.32370000  0.47370000  0.63280000  1
  H  H62  1  0.32370000  0.47370000  0.86720000  1
  H  H63  1  0.32640000  0.47760000  0.06810000  1
  H  H64  1  0.32640000  0.47760000  0.43190000  1
  H  H65  1  0.47170000  0.48350000  0.71740000  1
  H  H66  1  0.47170000  0.48350000  0.78260000  1
  H  H67  1  0.67030000  0.48750000  0.21100000  1
  H  H68  1  0.67030000  0.48750000  0.28900000  1
  H  H69  1  0.94580000  0.50840000  0.21270000  1
  H  H70  1  0.94580000  0.50840000  0.28730000  1
  H  H71  1  0.51650000  0.52830000  0.21740000  1
  H  H72  1  0.51650000  0.52830000  0.28260000  1
  H  H73  1  0.95140000  0.55100000  0.67080000  1
  H  H74  1  0.95140000  0.55100000  0.82920000  1
  H  H75  1  0.32190000  0.56650000  0.55030000  1
  H  H76  1  0.32190000  0.56650000  0.94970000  1
  H  H77  1  0.89830000  0.58530000  0.17410000  1
  H  H78  1  0.89830000  0.58530000  0.32590000  1
  H  H79  1  0.18370000  0.59930000  0.20860000  1
  H  H80  1  0.18370000  0.59930000  0.29140000  1
  H  H81  1  0.25680000  0.60340000  0.16710000  1
  H  H82  1  0.25680000  0.60340000  0.33290000  1
  H  H83  1  0.56020000  0.65600000  0.02220000  1
  H  H84  1  0.56020000  0.65600000  0.47780000  1
  H  H85  1  0.52240000  0.67360000  0.56810000  1
  H  H86  1  0.52240000  0.67360000  0.93190000  1
  H  H87  1  0.52630000  0.67630000  0.13280000  1
  H  H88  1  0.52630000  0.67630000  0.36720000  1
  H  H89  1  0.75080000  0.67640000  0.58360000  1
  H  H90  1  0.75080000  0.67640000  0.91640000  1
  H  H91  1  0.43350000  0.67810000  0.05030000  1
  H  H92  1  0.43350000  0.67810000  0.44970000  1
  H  H93  1  0.07470000  0.68010000  0.11030000  1
  H  H94  1  0.07470000  0.68010000  0.38970000  1
  H  H95  1  0.12350000  0.68990000  0.17420000  1
  H  H96  1  0.12350000  0.68990000  0.32580000  1
  H  H97  1  0.03320000  0.72620000  0.56800000  1
  H  H98  1  0.03320000  0.72620000  0.93200000  1
  H  H99  1  0.39660000  0.74320000  0.66710000  1
  H  H100  1  0.39660000  0.74320000  0.83290000  1
  H  H101  1  0.66660000  0.77200000  0.66850000  1
  H  H102  1  0.66660000  0.77200000  0.83150000  1
  H  H103  1  0.01350000  0.78770000  0.68260000  1
  H  H104  1  0.01350000  0.78770000  0.81740000  1
  H  H105  1  0.76320000  0.79360000  0.04450000  1
  H  H106  1  0.76320000  0.79360000  0.45550000  1
  H  H107  1  0.72000000  0.79940000  0.15990000  1
  H  H108  1  0.72000000  0.79940000  0.34010000  1
  H  H109  1  0.40070000  0.81630000  0.70860000  1
  H  H110  1  0.40070000  0.81630000  0.79140000  1
  H  H111  1  0.63670000  0.83650000  0.71030000  1
  H  H112  1  0.63670000  0.83650000  0.78970000  1
  H  H113  1  0.31010000  0.87650000  0.67420000  1
  H  H114  1  0.31010000  0.87650000  0.82580000  1
  H  H115  1  0.71830000  0.91970000  0.67840000  1
  H  H116  1  0.71830000  0.91970000  0.82160000  1
  H  H117  1  0.31990000  0.92530000  0.61030000  1
  H  H118  1  0.31990000  0.92530000  0.88970000  1
  H  H119  1  0.72660000  0.95980000  0.61710000  1
  H  H120  1  0.72660000  0.95980000  0.88290000  1
  H  H121  1  0.93190000  0.96170000  0.25000000  1
  H  H122  1  0.27380000  0.96680000  0.06800000  1
  H  H123  1  0.27380000  0.96680000  0.43200000  1
  H  H124  1  0.53960000  0.97600000  0.51110000  1
  H  H125  1  0.53960000  0.97600000  0.98890000  1
  H  H126  1  0.21230000  0.98650000  0.18260000  1
  H  H127  1  0.21230000  0.98650000  0.31740000  1
  C  C128  1  0.38520000  0.02560000  0.15149000  1
  C  C129  1  0.38520000  0.02560000  0.34851000  1
  C  C130  1  0.87050000  0.03470000  0.25000000  1
  C  C131  1  0.87810000  0.03510000  0.17560000  1
  C  C132  1  0.87810000  0.03510000  0.32440000  1
  C  C133  1  0.49670000  0.05990000  0.68420000  1
  C  C134  1  0.49670000  0.05990000  0.81580000  1
  C  C135  1  0.52610000  0.06430000  0.08944000  1
  C  C136  1  0.52610000  0.06430000  0.41056000  1
  C  C137  1  0.82450000  0.08930000  0.21416000  1
  C  C138  1  0.82450000  0.08930000  0.28584000  1
  C  C139  1  0.96490000  0.12190000  0.67560000  1
  C  C140  1  0.96490000  0.12190000  0.82440000  1
  C  C141  1  0.96530000  0.12950000  0.75000000  1
  C  C142  1  0.91070000  0.17550000  0.71416000  1
  C  C143  1  0.91070000  0.17550000  0.78584000  1
  C  C144  1  0.73000000  0.19640000  0.21478000  1
  C  C145  1  0.73000000  0.19640000  0.28522000  1
  C  C146  1  0.01910000  0.20990000  0.04169000  1
  C  C147  1  0.01910000  0.20990000  0.45831000  1
  C  C148  1  0.52250000  0.21570000  0.07855000  1
  C  C149  1  0.52250000  0.21570000  0.42145000  1
  C  C150  1  0.68080000  0.25180000  0.25000000  1
  C  C151  1  0.80360000  0.27000000  0.71478000  1
  C  C152  1  0.80360000  0.27000000  0.78522000  1
  C  C153  1  0.21990000  0.27150000  0.56997000  1
  C  C154  1  0.21990000  0.27150000  0.93003000  1
  C  C155  1  0.64180000  0.27940000  0.06930000  1
  C  C156  1  0.64180000  0.27940000  0.43070000  1
  C  C157  1  0.40640000  0.29080000  0.07760000  1
  C  C158  1  0.40640000  0.29080000  0.42240000  1
  C  C159  1  0.21730000  0.29550000  0.63303000  1
  C  C160  1  0.21730000  0.29550000  0.86697000  1
  C  C161  1  0.43540000  0.29960000  0.25000000  1
  C  C162  1  0.74820000  0.31920000  0.75000000  1
  C  C163  1  0.03030000  0.34590000  0.06134000  1
  C  C164  1  0.03030000  0.34590000  0.43866000  1
  C  C165  1  0.04460000  0.35340000  0.10224000  1
  C  C166  1  0.04460000  0.35340000  0.39776000  1
  C  C167  1  0.14480000  0.35420000  0.18240000  1
  C  C168  1  0.14480000  0.35420000  0.31760000  1
  C  C169  1  0.72060000  0.35820000  0.56930000  1
  C  C170  1  0.72060000  0.35820000  0.93070000  1
  C  C171  1  0.58690000  0.36010000  0.55850000  1
  C  C172  1  0.58690000  0.36010000  0.94150000  1
  C  C173  1  0.57380000  0.36520000  0.25000000  1
  C  C174  1  0.28490000  0.40270000  0.61834000  1
  C  C175  1  0.28490000  0.40270000  0.88166000  1
  C  C176  1  0.63990000  0.41310000  0.05850000  1
  C  C177  1  0.63990000  0.41310000  0.44150000  1
  C  C178  1  0.54690000  0.42070000  0.71430000  1
  C  C179  1  0.54690000  0.42070000  0.78570000  1
  C  C180  1  0.63480000  0.42620000  0.75000000  1
  C  C181  1  0.40780000  0.42800000  0.06790000  1
  C  C182  1  0.40780000  0.42800000  0.43210000  1
  C  C183  1  0.57930000  0.45310000  0.21430000  1
  C  C184  1  0.57930000  0.45310000  0.28570000  1
  C  C185  1  0.03200000  0.46500000  0.03863000  1
  C  C186  1  0.03200000  0.46500000  0.46137000  1
  C  C187  1  0.93570000  0.47390000  0.58944000  1
  C  C188  1  0.93570000  0.47390000  0.91056000  1
  C  C189  1  0.35820000  0.47400000  0.54899000  1
  C  C190  1  0.35820000  0.47400000  0.95101000  1
  C  C191  1  0.50940000  0.47540000  0.55826000  1
  C  C192  1  0.50940000  0.47540000  0.94174000  1
  C  C193  1  0.78430000  0.47750000  0.57855000  1
  C  C194  1  0.78430000  0.47750000  0.92145000  1
  C  C195  1  0.06540000  0.47780000  0.12186000  1
  C  C196  1  0.06540000  0.47780000  0.37814000  1
  C  C197  1  0.08500000  0.48760000  0.16664000  1
  C  C198  1  0.08500000  0.48760000  0.33333333  1
  C  C199  1  0.52460000  0.49060000  0.05826000  1
  C  C200  1  0.52460000  0.49060000  0.44174000  1
  C  C201  1  0.94010000  0.50330000  0.18420000  1
  C  C202  1  0.94010000  0.50330000  0.31580000  1
  C  C203  1  0.70040000  0.56460000  0.75000000  1
  C  C204  1  0.04590000  0.59050000  0.05735000  1
  C  C205  1  0.04590000  0.59050000  0.44265000  1
  C  C206  1  0.57200000  0.59220000  0.56790000  1
  C  C207  1  0.57200000  0.59220000  0.93210000  1
  C  C208  1  0.70920000  0.59360000  0.57760000  1
  C  C209  1  0.70920000  0.59360000  0.92240000  1
  C  C210  1  0.06360000  0.59540000  0.09814000  1
  C  C211  1  0.06360000  0.59540000  0.40186000  1
  C  C212  1  0.16990000  0.60570000  0.18040000  1
  C  C213  1  0.16990000  0.60570000  0.31960000  1
  C  C214  1  0.97440000  0.61480000  0.65149000  1
  C  C215  1  0.97440000  0.61480000  0.84851000  1
  C  C216  1  0.52600000  0.64180000  0.04899000  1
  C  C217  1  0.52600000  0.64180000  0.45101000  1
  C  C218  1  0.01950000  0.71290000  0.59513000  1
  C  C219  1  0.01950000  0.71290000  0.90487000  1
  C  C220  1  0.59730000  0.71510000  0.11834000  1
  C  C221  1  0.59730000  0.71510000  0.38166000  1
  C  C222  1  0.04160000  0.72060000  0.03371000  1
  C  C223  1  0.04160000  0.72060000  0.46629000  1
  C  C224  1  0.00910000  0.74590000  0.65784000  1
  C  C225  1  0.00910000  0.74590000  0.84216000  1
  C  C226  1  0.72850000  0.78010000  0.06997000  1
  C  C227  1  0.72850000  0.78010000  0.43003000  1
  C  C228  1  0.70450000  0.78270000  0.13303000  1
  C  C229  1  0.70450000  0.78270000  0.36697000  1
  C  C230  1  0.39430000  0.83010000  0.68040000  1
  C  C231  1  0.39430000  0.83010000  0.81960000  1
  C  C232  1  0.64580000  0.85520000  0.68240000  1
  C  C233  1  0.64580000  0.85520000  0.81760000  1
  C  C234  1  0.51240000  0.91500000  0.66666667  1
  C  C235  1  0.51240000  0.91500000  0.83336000  1
  C  C236  1  0.52220000  0.93460000  0.62186000  1
  C  C237  1  0.52220000  0.93460000  0.87814000  1
  C  C238  1  0.40460000  0.93640000  0.59814000  1
  C  C239  1  0.40460000  0.93640000  0.90186000  1
  C  C240  1  0.40950000  0.95410000  0.55735000  1
  C  C241  1  0.40950000  0.95410000  0.94265000  1
  C  C242  1  0.64660000  0.95540000  0.60224000  1
  C  C243  1  0.64660000  0.95540000  0.89776000  1
  C  C244  1  0.27940000  0.95840000  0.53371000  1
  C  C245  1  0.27940000  0.95840000  0.96629000  1
  C  C246  1  0.53500000  0.96800000  0.53863000  1
  C  C247  1  0.53500000  0.96800000  0.96137000  1
  C  C248  1  0.65410000  0.96970000  0.56134000  1
  C  C249  1  0.65410000  0.96970000  0.93866000  1
  C  C250  1  0.28710000  0.98050000  0.09513000  1
  C  C251  1  0.28710000  0.98050000  0.40487000  1
  C  C252  1  0.79010000  0.98090000  0.54169000  1
  C  C253  1  0.79010000  0.98090000  0.95831000  1
  C  C254  1  0.25410000  0.99090000  0.15784000  1
  C  C255  1  0.25410000  0.99090000  0.34216000  1
  N  N256  1  0.40700000  0.02100000  0.11124000  1
  N  N257  1  0.40700000  0.02100000  0.38876000  1
  N  N258  1  0.17600000  0.21180000  0.60250000  1
  N  N259  1  0.17600000  0.21180000  0.89750000  1
  N  N260  1  0.28560000  0.38700000  0.57755000  1
  N  N261  1  0.28560000  0.38700000  0.92245000  1
  N  N262  1  0.97900000  0.59300000  0.61124000  1
  N  N263  1  0.97900000  0.59300000  0.88876000  1
  N  N264  1  0.61300000  0.71440000  0.07755000  1
  N  N265  1  0.61300000  0.71440000  0.42245000  1
  N  N266  1  0.03730000  0.80890000  0.62223000  1
  N  N267  1  0.03730000  0.80890000  0.87777000  1
  N  N268  1  0.78820000  0.82400000  0.10250000  1
  N  N269  1  0.78820000  0.82400000  0.39750000  1
  N  N270  1  0.19110000  0.96270000  0.12223000  1
  N  N271  1  0.19110000  0.96270000  0.37777000  1
  O  O272  1  0.89343000  0.00903000  0.56231000  1
  O  O273  1  0.89343000  0.00903000  0.93769000  1
  O  O274  1  0.07102000  0.04962000  0.67536000  1
  O  O275  1  0.07102000  0.04962000  0.82464000  1
  O  O276  1  0.85100000  0.09900000  0.14387000  1
  O  O277  1  0.85100000  0.09900000  0.35613000  1
  O  O278  1  0.99097000  0.10657000  0.06231000  1
  O  O279  1  0.99097000  0.10657000  0.43769000  1
  O  O280  1  0.90100000  0.14900000  0.64387000  1
  O  O281  1  0.90100000  0.14900000  0.85613000  1
  O  O282  1  0.03790000  0.19850000  0.00501000  1
  O  O283  1  0.03790000  0.19850000  0.49499000  1
  O  O284  1  0.03510000  0.71710000  0.50290000  1
  O  O285  1  0.03510000  0.71710000  0.99710000  1
  O  O286  1  0.04101000  0.83481000  0.05202000  1
  O  O287  1  0.04101000  0.83481000  0.44798000  1
  O  O288  1  0.95038000  0.92898000  0.17536000  1
  O  O289  1  0.95038000  0.92898000  0.32464000  1
  O  O290  1  0.16519000  0.95899000  0.55202000  1
  O  O291  1  0.16519000  0.95899000  0.94798000  1
  O  O292  1  0.80150000  0.96210000  0.50501000  1
  O  O293  1  0.80150000  0.96210000  0.99499000  1
  O  O294  1  0.28290000  0.96490000  0.00290000  1
  O  O295  1  0.28290000  0.96490000  0.49710000  1
