# generated using pymatgen
data_DyZnH7C12(NO2)4
_symmetry_space_group_name_H-M   'P 1'
_cell_length_a   9.18160000
_cell_length_b   12.98510000
_cell_length_c   18.46270000
_cell_angle_alpha   72.06440000
_cell_angle_beta   75.60220000
_cell_angle_gamma   69.29580000
_symmetry_Int_Tables_number   1
_chemical_formula_structural   DyZnH7C12(NO2)4
_chemical_formula_sum   'Dy4 Zn4 H28 C48 N16 O32'
_cell_volume   1934.66309730
_cell_formula_units_Z   4
loop_
 _symmetry_equiv_pos_site_id
 _symmetry_equiv_pos_as_xyz
  1  'x, y, z'
loop_
 _atom_site_type_symbol
 _atom_site_label
 _atom_site_symmetry_multiplicity
 _atom_site_fract_x
 _atom_site_fract_y
 _atom_site_fract_z
 _atom_site_occupancy
  Dy  Dy0  1  0.15406000  0.08929000  0.99339000  1
  Dy  Dy1  1  0.23674000  0.41071000  0.50661000  1
  Dy  Dy2  1  0.76326000  0.58929000  0.49339000  1
  Dy  Dy3  1  0.84594000  0.91071000  0.00661000  1
  Zn  Zn4  1  0.20005000  0.91138000  0.66478000  1
  Zn  Zn5  1  0.22379000  0.41138000  0.16478000  1
  Zn  Zn6  1  0.77621000  0.58862000  0.83522000  1
  Zn  Zn7  1  0.79995000  0.08862000  0.33522000  1
  H  H8  1  0.00760000  0.67390000  0.64230000  1
  H  H9  1  0.11670000  0.10520000  0.41000000  1
  H  H10  1  0.12260000  0.57750000  0.69530000  1
  H  H11  1  0.17570000  0.68110000  0.63990000  1
  H  H12  1  0.24460000  0.04560000  0.34960000  1
  H  H13  1  0.26840000  0.80580000  0.46300000  1
  H  H14  1  0.26850000  0.00930000  0.43610000  1
  H  H15  1  0.28610000  0.50930000  0.93610000  1
  H  H16  1  0.32380000  0.82610000  0.85770000  1
  H  H17  1  0.36020000  0.54560000  0.84960000  1
  H  H18  1  0.36810000  0.60520000  0.91000000  1
  H  H19  1  0.39540000  0.92250000  0.80470000  1
  H  H20  1  0.46280000  0.30580000  0.96300000  1
  H  H21  1  0.49670000  0.81890000  0.86010000  1
  H  H22  1  0.50330000  0.18110000  0.13990000  1
  H  H23  1  0.53720000  0.69420000  0.03700000  1
  H  H24  1  0.60460000  0.07750000  0.19530000  1
  H  H25  1  0.63190000  0.39480000  0.09000000  1
  H  H26  1  0.63980000  0.45440000  0.15040000  1
  H  H27  1  0.67620000  0.17390000  0.14230000  1
  H  H28  1  0.71390000  0.49070000  0.06390000  1
  H  H29  1  0.73150000  0.99070000  0.56390000  1
  H  H30  1  0.73160000  0.19420000  0.53700000  1
  H  H31  1  0.75540000  0.95440000  0.65040000  1
  H  H32  1  0.82430000  0.31890000  0.36010000  1
  H  H33  1  0.87740000  0.42250000  0.30470000  1
  H  H34  1  0.88330000  0.89480000  0.59000000  1
  H  H35  1  0.99240000  0.32610000  0.35770000  1
  C  C36  1  0.00130000  0.05920000  0.18440000  1
  C  C37  1  0.02136000  0.15758000  0.20050000  1
  C  C38  1  0.02388000  0.71974000  0.73370000  1
  C  C39  1  0.06040000  0.13850000  0.57170000  1
  C  C40  1  0.06300000  0.64010000  0.07990000  1
  C  C41  1  0.06850000  0.77860000  0.45740000  1
  C  C42  1  0.08800000  0.65770000  0.67250000  1
  C  C43  1  0.10851000  0.23268000  0.16130000  1
  C  C44  1  0.10940000  0.94740000  0.41840000  1
  C  C45  1  0.11690000  0.65440000  0.48020000  1
  C  C46  1  0.19220000  0.03470000  0.40210000  1
  C  C47  1  0.21700000  0.14010000  0.57990000  1
  C  C48  1  0.22605000  0.23910000  0.09060000  1
  C  C49  1  0.22940000  0.63850000  0.07170000  1
  C  C50  1  0.24490000  0.44080000  0.31560000  1
  C  C51  1  0.25150000  0.84560000  0.01980000  1
  C  C52  1  0.30450000  0.72140000  0.04260000  1
  C  C53  1  0.37100000  0.53470000  0.90210000  1
  C  C54  1  0.37944000  0.34242000  0.29950000  1
  C  C55  1  0.41820000  0.84230000  0.82750000  1
  C  C56  1  0.44425000  0.73910000  0.59060000  1
  C  C57  1  0.47520000  0.55260000  0.08160000  1
  C  C58  1  0.47732000  0.78026000  0.76630000  1
  C  C59  1  0.49751000  0.73268000  0.66130000  1
  C  C60  1  0.50249000  0.26732000  0.33870000  1
  C  C61  1  0.52268000  0.21974000  0.23370000  1
  C  C62  1  0.52480000  0.44740000  0.91840000  1
  C  C63  1  0.55575000  0.26090000  0.40940000  1
  C  C64  1  0.58180000  0.15770000  0.17250000  1
  C  C65  1  0.62056000  0.65758000  0.70050000  1
  C  C66  1  0.62900000  0.46530000  0.09790000  1
  C  C67  1  0.69550000  0.27860000  0.95740000  1
  C  C68  1  0.74850000  0.15440000  0.98020000  1
  C  C69  1  0.75510000  0.55920000  0.68440000  1
  C  C70  1  0.77060000  0.36150000  0.92830000  1
  C  C71  1  0.77395000  0.76090000  0.90940000  1
  C  C72  1  0.78300000  0.85990000  0.42010000  1
  C  C73  1  0.80780000  0.96530000  0.59790000  1
  C  C74  1  0.88310000  0.34560000  0.51980000  1
  C  C75  1  0.89060000  0.05260000  0.58160000  1
  C  C76  1  0.89149000  0.76732000  0.83870000  1
  C  C77  1  0.91200000  0.34230000  0.32750000  1
  C  C78  1  0.93150000  0.22140000  0.54260000  1
  C  C79  1  0.93700000  0.35990000  0.92010000  1
  C  C80  1  0.93960000  0.86150000  0.42830000  1
  C  C81  1  0.97612000  0.28026000  0.26630000  1
  C  C82  1  0.97864000  0.84242000  0.79950000  1
  C  C83  1  0.99870000  0.94080000  0.81560000  1
  N  N84  1  0.03233000  0.03534000  0.59640000  1
  N  N85  1  0.06074000  0.81091000  0.73301000  1
  N  N86  1  0.07812000  0.30926000  0.20430000  1
  N  N87  1  0.17385000  0.83650000  0.44960000  1
  N  N88  1  0.33593000  0.53534000  0.09640000  1
  N  N89  1  0.39534000  0.31091000  0.23301000  1
  N  N90  1  0.40832000  0.80926000  0.70430000  1
  N  N91  1  0.45995000  0.66350000  0.05040000  1
  N  N92  1  0.54005000  0.33650000  0.94960000  1
  N  N93  1  0.59168000  0.19074000  0.29570000  1
  N  N94  1  0.60466000  0.68909000  0.76699000  1
  N  N95  1  0.66407000  0.46466000  0.90360000  1
  N  N96  1  0.82615000  0.16350000  0.55040000  1
  N  N97  1  0.92188000  0.69074000  0.79570000  1
  N  N98  1  0.93926000  0.18909000  0.26699000  1
  N  N99  1  0.96767000  0.96466000  0.40360000  1
  O  O100  1  0.01924000  0.59973000  0.49519000  1
  O  O101  1  0.03018000  0.55224000  0.12020000  1
  O  O102  1  0.03497000  0.27396000  0.95370000  1
  O  O103  1  0.05883000  0.03315000  0.12099000  1
  O  O104  1  0.07721000  0.99643000  0.76235000  1
  O  O105  1  0.11416000  0.90027000  0.00481000  1
  O  O106  1  0.16401000  0.49643000  0.26235000  1
  O  O107  1  0.21297000  0.46685000  0.37901000  1
  O  O108  1  0.25984000  0.60205000  0.48327000  1
  O  O109  1  0.26263000  0.22604000  0.54630000  1
  O  O110  1  0.26788000  0.16585000  0.05239000  1
  O  O111  1  0.28655000  0.31934000  0.07356000  1
  O  O112  1  0.29738000  0.05224000  0.62020000  1
  O  O113  1  0.32055000  0.81934000  0.57356000  1
  O  O114  1  0.34516000  0.89795000  0.01673000  1
  O  O115  1  0.48612000  0.33415000  0.44761000  1
  O  O116  1  0.51388000  0.66585000  0.55239000  1
  O  O117  1  0.65484000  0.10205000  0.98327000  1
  O  O118  1  0.67945000  0.18066000  0.42644000  1
  O  O119  1  0.70262000  0.94776000  0.37980000  1
  O  O120  1  0.71345000  0.68066000  0.92644000  1
  O  O121  1  0.73212000  0.83415000  0.94761000  1
  O  O122  1  0.73737000  0.77396000  0.45370000  1
  O  O123  1  0.74016000  0.39795000  0.51673000  1
  O  O124  1  0.78703000  0.53315000  0.62099000  1
  O  O125  1  0.83599000  0.50357000  0.73765000  1
  O  O126  1  0.88584000  0.09973000  0.99519000  1
  O  O127  1  0.92279000  0.00357000  0.23765000  1
  O  O128  1  0.94117000  0.96685000  0.87901000  1
  O  O129  1  0.96503000  0.72604000  0.04630000  1
  O  O130  1  0.96982000  0.44776000  0.87980000  1
  O  O131  1  0.98076000  0.40027000  0.50481000  1
