# generated using pymatgen
data_ErH6(C2O)6
_symmetry_space_group_name_H-M   'P 1'
_cell_length_a   8.52470000
_cell_length_b   10.20040000
_cell_length_c   10.88980000
_cell_angle_alpha   63.72200000
_cell_angle_beta   71.28100000
_cell_angle_gamma   81.14800000
_symmetry_Int_Tables_number   1
_chemical_formula_structural   ErH6(C2O)6
_chemical_formula_sum   'Er2 H12 C24 O12'
_cell_volume   804.07768457
_cell_formula_units_Z   2
loop_
 _symmetry_equiv_pos_site_id
 _symmetry_equiv_pos_as_xyz
  1  'x, y, z'
loop_
 _atom_site_type_symbol
 _atom_site_label
 _atom_site_symmetry_multiplicity
 _atom_site_fract_x
 _atom_site_fract_y
 _atom_site_fract_z
 _atom_site_occupancy
  Er  Er0  1  0.13362000  0.93626000  0.66037000  1
  Er  Er1  1  0.86638000  0.06374000  0.33963000  1
  H  H2  1  0.01500000  0.46420000  0.73070000  1
  H  H3  1  0.05100000  0.73660000  0.30360000  1
  H  H4  1  0.21300000  0.54500000  0.09000000  1
  H  H5  1  0.27900000  0.88600000  0.01600000  1
  H  H6  1  0.37400000  0.37000000  0.23900000  1
  H  H7  1  0.46200000  0.15800000  0.10100000  1
  H  H8  1  0.53800000  0.84200000  0.89900000  1
  H  H9  1  0.62600000  0.63000000  0.76100000  1
  H  H10  1  0.72100000  0.11400000  0.98400000  1
  H  H11  1  0.78700000  0.45500000  0.91000000  1
  H  H12  1  0.94900000  0.26340000  0.69640000  1
  H  H13  1  0.98500000  0.53580000  0.26930000  1
  C  C14  1  0.00365000  0.47982000  0.63385000  1
  C  C15  1  0.02603000  0.63824000  0.38638000  1
  C  C16  1  0.02872000  0.61846000  0.52043000  1
  C  C17  1  0.05726000  0.74469000  0.54485000  1
  C  C18  1  0.17258000  0.04854000  0.15915000  1
  C  C19  1  0.32183000  0.72980000  0.82143000  1
  C  C20  1  0.33444000  0.52771000  0.05568000  1
  C  C21  1  0.34229000  0.02262000  0.07700000  1
  C  C22  1  0.36540000  0.92804000  0.01181000  1
  C  C23  1  0.41483000  0.60932000  0.91195000  1
  C  C24  1  0.41947000  0.41921000  0.14319000  1
  C  C25  1  0.47611000  0.09337000  0.06588000  1
  C  C26  1  0.52389000  0.90663000  0.93412000  1
  C  C27  1  0.58053000  0.58079000  0.85681000  1
  C  C28  1  0.58517000  0.39068000  0.08805000  1
  C  C29  1  0.63460000  0.07196000  0.98819000  1
  C  C30  1  0.65771000  0.97738000  0.92300000  1
  C  C31  1  0.66556000  0.47229000  0.94432000  1
  C  C32  1  0.67817000  0.27020000  0.17857000  1
  C  C33  1  0.82742000  0.95146000  0.84085000  1
  C  C34  1  0.94274000  0.25531000  0.45515000  1
  C  C35  1  0.97128000  0.38154000  0.47957000  1
  C  C36  1  0.97397000  0.36176000  0.61362000  1
  C  C37  1  0.99635000  0.52018000  0.36615000  1
  O  O38  1  0.01655000  0.87284000  0.47131000  1
  O  O39  1  0.05091000  0.99064000  0.16228000  1
  O  O40  1  0.12527000  0.71820000  0.64001000  1
  O  O41  1  0.15325000  0.12732000  0.22681000  1
  O  O42  1  0.17228000  0.75392000  0.87673000  1
  O  O43  1  0.39372000  0.80688000  0.69093000  1
  O  O44  1  0.60628000  0.19312000  0.30907000  1
  O  O45  1  0.82772000  0.24608000  0.12327000  1
  O  O46  1  0.84675000  0.87268000  0.77319000  1
  O  O47  1  0.87473000  0.28180000  0.35999000  1
  O  O48  1  0.94909000  0.00936000  0.83772000  1
  O  O49  1  0.98345000  0.12716000  0.52869000  1
