# generated using pymatgen
data_Nd2H18C42(SO6)3
_symmetry_space_group_name_H-M   'P 1'
_cell_length_a   15.01620000
_cell_length_b   19.21410000
_cell_length_c   30.38120000
_cell_angle_alpha   98.39490000
_cell_angle_beta   90.00000000
_cell_angle_gamma   113.00200000
_symmetry_Int_Tables_number   1
_chemical_formula_structural   Nd2H18C42(SO6)3
_chemical_formula_sum   'Nd8 H72 C168 S12 O72'
_cell_volume   7966.58673775
_cell_formula_units_Z   4
loop_
 _symmetry_equiv_pos_site_id
 _symmetry_equiv_pos_as_xyz
  1  'x, y, z'
loop_
 _atom_site_type_symbol
 _atom_site_label
 _atom_site_symmetry_multiplicity
 _atom_site_fract_x
 _atom_site_fract_y
 _atom_site_fract_z
 _atom_site_occupancy
  Nd  Nd0  1  0.23120000  0.58170000  0.14105000  1
  Nd  Nd1  1  0.35050000  0.58170000  0.64105000  1
  Nd  Nd2  1  0.39006000  0.83026000  0.15679000  1
  Nd  Nd3  1  0.44020000  0.83026000  0.65679000  1
  Nd  Nd4  1  0.55980000  0.16974000  0.34321000  1
  Nd  Nd5  1  0.60994000  0.16974000  0.84321000  1
  Nd  Nd6  1  0.64950000  0.41830000  0.35895000  1
  Nd  Nd7  1  0.76880000  0.41830000  0.85895000  1
  H  H8  1  0.02080000  0.58240000  0.64200000  1
  H  H9  1  0.02550000  0.38020000  0.85210000  1
  H  H10  1  0.02590000  0.69520000  0.25420000  1
  H  H11  1  0.05400000  0.14560000  0.84080000  1
  H  H12  1  0.06220000  0.33840000  0.60140000  1
  H  H13  1  0.06710000  0.83900000  0.65560000  1
  H  H14  1  0.09160000  0.14560000  0.34080000  1
  H  H15  1  0.09840000  0.84800000  0.15940000  1
  H  H16  1  0.11110000  0.40680000  0.73290000  1
  H  H17  1  0.17480000  0.81600000  0.25330000  1
  H  H18  1  0.19000000  0.58780000  0.35010000  1
  H  H19  1  0.19740000  0.80400000  0.65070000  1
  H  H20  1  0.20350000  0.60460000  0.27700000  1
  H  H21  1  0.21010000  0.58200000  0.43120000  1
  H  H22  1  0.22810000  0.16100000  0.84440000  1
  H  H23  1  0.24930000  0.59360000  0.50580000  1
  H  H24  1  0.25040000  0.15200000  0.34060000  1
  H  H25  1  0.27620000  0.33840000  0.10140000  1
  H  H26  1  0.29160000  0.94560000  0.39670000  1
  H  H27  1  0.29570000  0.40680000  0.23290000  1
  H  H28  1  0.30900000  0.93100000  0.26310000  1
  H  H29  1  0.33070000  0.30480000  0.24580000  1
  H  H30  1  0.33870000  0.79960000  0.00430000  1
  H  H31  1  0.34430000  0.59360000  0.00580000  1
  H  H32  1  0.34600000  0.05440000  0.10330000  1
  H  H33  1  0.35470000  0.38020000  0.35210000  1
  H  H34  1  0.35880000  0.18400000  0.24670000  1
  H  H35  1  0.37190000  0.58200000  0.93120000  1
  H  H36  1  0.37800000  0.06900000  0.23690000  1
  H  H37  1  0.39340000  0.19600000  0.84930000  1
  H  H38  1  0.39540000  0.81200000  0.81100000  1
  H  H39  1  0.39780000  0.58780000  0.85010000  1
  H  H40  1  0.40110000  0.60460000  0.77700000  1
  H  H41  1  0.41660000  0.81200000  0.31100000  1
  H  H42  1  0.43840000  0.41760000  0.85800000  1
  H  H43  1  0.46090000  0.79960000  0.50430000  1
  H  H44  1  0.53910000  0.20040000  0.49570000  1
  H  H45  1  0.56160000  0.58240000  0.14200000  1
  H  H46  1  0.58340000  0.18800000  0.68900000  1
  H  H47  1  0.59890000  0.39540000  0.22300000  1
  H  H48  1  0.60220000  0.41220000  0.14990000  1
  H  H49  1  0.60460000  0.18800000  0.18900000  1
  H  H50  1  0.60660000  0.80400000  0.15070000  1
  H  H51  1  0.62200000  0.93100000  0.76310000  1
  H  H52  1  0.62810000  0.41800000  0.06880000  1
  H  H53  1  0.64120000  0.81600000  0.75330000  1
  H  H54  1  0.64530000  0.61980000  0.64790000  1
  H  H55  1  0.65400000  0.94560000  0.89670000  1
  H  H56  1  0.65570000  0.40640000  0.99420000  1
  H  H57  1  0.66130000  0.20040000  0.99570000  1
  H  H58  1  0.66930000  0.69520000  0.75420000  1
  H  H59  1  0.69100000  0.06900000  0.73690000  1
  H  H60  1  0.70430000  0.59320000  0.76710000  1
  H  H61  1  0.70840000  0.05440000  0.60330000  1
  H  H62  1  0.72380000  0.66160000  0.89860000  1
  H  H63  1  0.74960000  0.84800000  0.65940000  1
  H  H64  1  0.75070000  0.40640000  0.49420000  1
  H  H65  1  0.77190000  0.83900000  0.15560000  1
  H  H66  1  0.78990000  0.41800000  0.56880000  1
  H  H67  1  0.79650000  0.39540000  0.72300000  1
  H  H68  1  0.80260000  0.19600000  0.34930000  1
  H  H69  1  0.81000000  0.41220000  0.64990000  1
  H  H70  1  0.82520000  0.18400000  0.74670000  1
  H  H71  1  0.88890000  0.59320000  0.26710000  1
  H  H72  1  0.90160000  0.15200000  0.84060000  1
  H  H73  1  0.90840000  0.85440000  0.65920000  1
  H  H74  1  0.93290000  0.16100000  0.34440000  1
  H  H75  1  0.93780000  0.66160000  0.39860000  1
  H  H76  1  0.94600000  0.85440000  0.15920000  1
  H  H77  1  0.97410000  0.30480000  0.74580000  1
  H  H78  1  0.97450000  0.61980000  0.14790000  1
  H  H79  1  0.97920000  0.41760000  0.35800000  1
  C  C80  1  0.00890000  0.68880000  0.28320000  1
  C  C81  1  0.03053000  0.33306000  0.84940000  1
  C  C82  1  0.03054000  0.63388000  0.64550000  1
  C  C83  1  0.03573000  0.26786000  0.34740000  1
  C  C84  1  0.03817000  0.72834000  0.36140000  1
  C  C85  1  0.04270000  0.80340000  0.15700000  1
  C  C86  1  0.04442000  0.33244000  0.63040000  1
  C  C87  1  0.04597000  0.34314000  0.35140000  1
  C  C88  1  0.04920000  0.19280000  0.84290000  1
  C  C89  1  0.05024000  0.73448000  0.15340000  1
  C  C90  1  0.05725000  0.78770000  0.65330000  1
  C  C91  1  0.06441000  0.73962000  0.31850000  1
  C  C92  1  0.07275000  0.37230000  0.70890000  1
  C  C93  1  0.09886000  0.38332000  0.66610000  1
  C  C94  1  0.11960000  0.32720000  0.84800000  1
  C  C95  1  0.12248000  0.69116000  0.64760000  1
  C  C96  1  0.12745000  0.25870000  0.34570000  1
  C  C97  1  0.13125000  0.25870000  0.84570000  1
  C  C98  1  0.13517000  0.76654000  0.65060000  1
  C  C99  1  0.14360000  0.19280000  0.34290000  1
  C  C100  1  0.14895000  0.73170000  0.15160000  1
  C  C101  1  0.15347000  0.81214000  0.31820000  1
  C  C102  1  0.18973000  0.85106000  0.36030000  1
  C  C103  1  0.19102000  0.44944000  0.65840000  1
  C  C104  1  0.19843000  0.84206000  0.28190000  1
  C  C105  1  0.20760000  0.32720000  0.34800000  1
  C  C106  1  0.20975000  0.67050000  0.64630000  1
  C  C107  1  0.23213000  0.26786000  0.84740000  1
  C  C108  1  0.23763000  0.63146000  0.34220000  1
  C  C109  1  0.23930000  0.19660000  0.34300000  1
  C  C110  1  0.24397000  0.64314000  0.29890000  1
  C  C111  1  0.25842000  0.44944000  0.15840000  1
  C  C112  1  0.26125000  0.62510000  0.44550000  1
  C  C113  1  0.26870000  0.91980000  0.36800000  1
  C  C114  1  0.26955000  0.21230000  0.84670000  1
  C  C115  1  0.27851000  0.91062000  0.28770000  1
  C  C116  1  0.28446000  0.38332000  0.16610000  1
  C  C117  1  0.28477000  0.63254000  0.49020000  1
  C  C118  1  0.28802000  0.33244000  0.13040000  1
  C  C119  1  0.29717000  0.34314000  0.85140000  1
  C  C120  1  0.29955000  0.37230000  0.20890000  1
  C  C121  1  0.30253000  0.33306000  0.34940000  1
  C  C122  1  0.30458000  0.68676000  0.37460000  1
  C  C123  1  0.30912000  0.71084000  0.28630000  1
  C  C124  1  0.30983000  0.27166000  0.13860000  1
  C  C125  1  0.31285000  0.94870000  0.33030000  1
  C  C126  1  0.31298000  0.72036000  0.23810000  1
  C  C127  1  0.31528000  0.68316000  0.42220000  1
  C  C128  1  0.31576000  0.26552000  0.34660000  1
  C  C129  1  0.31657000  0.69994000  0.06130000  1
  C  C130  1  0.32010000  0.31120000  0.21680000  1
  C  C131  1  0.32479000  0.26038000  0.18150000  1
  C  C132  1  0.33676000  0.69632000  0.01231000  1
  C  C133  1  0.33867000  0.14894000  0.13970000  1
  C  C134  1  0.34133000  0.18786000  0.18180000  1
  C  C135  1  0.34403000  0.75546000  0.98970000  1
  C  C136  1  0.34777000  0.63254000  0.99020000  1
  C  C137  1  0.34890000  0.08020000  0.13200000  1
  C  C138  1  0.35637000  0.15794000  0.21810000  1
  C  C139  1  0.35921000  0.74762000  0.94550000  1
  C  C140  1  0.35956000  0.69632000  0.51231000  1
  C  C141  1  0.36385000  0.62510000  0.94550000  1
  C  C142  1  0.36415000  0.05130000  0.16970000  1
  C  C143  1  0.36788000  0.68316000  0.92220000  1
  C  C144  1  0.36789000  0.08938000  0.21230000  1
  C  C145  1  0.36863000  0.23346000  0.84940000  1
  C  C146  1  0.36948000  0.75256000  0.36200000  1
  C  C147  1  0.37256000  0.76632000  0.31850000  1
  C  C148  1  0.37578000  0.97516000  0.16310000  1
  C  C149  1  0.38218000  0.68676000  0.87460000  1
  C  C150  1  0.38308000  0.75256000  0.86200000  1
  C  C151  1  0.38337000  0.69994000  0.56130000  1
  C  C152  1  0.38841000  0.74762000  0.44550000  1
  C  C153  1  0.39376000  0.76632000  0.81850000  1
  C  C154  1  0.39383000  0.63146000  0.84220000  1
  C  C155  1  0.39666000  0.36612000  0.85450000  1
  C  C156  1  0.39917000  0.64314000  0.79890000  1
  C  C157  1  0.40062000  0.02484000  0.33690000  1
  C  C158  1  0.40172000  0.71084000  0.78630000  1
  C  C159  1  0.40738000  0.72036000  0.73810000  1
  C  C160  1  0.41143000  0.75546000  0.48970000  1
  C  C161  1  0.41725000  0.26830000  0.34840000  1
  C  C162  1  0.43132000  0.30884000  0.85240000  1
  C  C163  1  0.46075000  0.67050000  0.14630000  1
  C  C164  1  0.53925000  0.32950000  0.85370000  1
  C  C165  1  0.56868000  0.69116000  0.14760000  1
  C  C166  1  0.58275000  0.73170000  0.65160000  1
  C  C167  1  0.58857000  0.24454000  0.51030000  1
  C  C168  1  0.59262000  0.27964000  0.26190000  1
  C  C169  1  0.59828000  0.28916000  0.21370000  1
  C  C170  1  0.59938000  0.97516000  0.66310000  1
  C  C171  1  0.60083000  0.35686000  0.20110000  1
  C  C172  1  0.60334000  0.63388000  0.14550000  1
  C  C173  1  0.60617000  0.36854000  0.15780000  1
  C  C174  1  0.60624000  0.23368000  0.18150000  1
  C  C175  1  0.61159000  0.25238000  0.55450000  1
  C  C176  1  0.61663000  0.30006000  0.43870000  1
  C  C177  1  0.61692000  0.24744000  0.13800000  1
  C  C178  1  0.61782000  0.31324000  0.12540000  1
  C  C179  1  0.62422000  0.02484000  0.83690000  1
  C  C180  1  0.62744000  0.23368000  0.68150000  1
  C  C181  1  0.63052000  0.24744000  0.63800000  1
  C  C182  1  0.63137000  0.76654000  0.15060000  1
  C  C183  1  0.63211000  0.91062000  0.78770000  1
  C  C184  1  0.63212000  0.31684000  0.07780000  1
  C  C185  1  0.63585000  0.94870000  0.83030000  1
  C  C186  1  0.63615000  0.37490000  0.05450000  1
  C  C187  1  0.64044000  0.30368000  0.48769000  1
  C  C188  1  0.64079000  0.25238000  0.05450000  1
  C  C189  1  0.64363000  0.84206000  0.78190000  1
  C  C190  1  0.65110000  0.91980000  0.86800000  1
  C  C191  1  0.65223000  0.36746000  0.00980000  1
  C  C192  1  0.65597000  0.24454000  0.01030000  1
  C  C193  1  0.65867000  0.81214000  0.81820000  1
  C  C194  1  0.66133000  0.85106000  0.86030000  1
  C  C195  1  0.66324000  0.30368000  0.98769000  1
  C  C196  1  0.67521000  0.73962000  0.81850000  1
  C  C197  1  0.67990000  0.68880000  0.78320000  1
  C  C198  1  0.68343000  0.30006000  0.93870000  1
  C  C199  1  0.68424000  0.73448000  0.65340000  1
  C  C200  1  0.68472000  0.31684000  0.57780000  1
  C  C201  1  0.68702000  0.27964000  0.76190000  1
  C  C202  1  0.68715000  0.05130000  0.66970000  1
  C  C203  1  0.69017000  0.72834000  0.86140000  1
  C  C204  1  0.69088000  0.28916000  0.71370000  1
  C  C205  1  0.69542000  0.31324000  0.62540000  1
  C  C206  1  0.69747000  0.66694000  0.65060000  1
  C  C207  1  0.70045000  0.62770000  0.79110000  1
  C  C208  1  0.70283000  0.65686000  0.14860000  1
  C  C209  1  0.71198000  0.66756000  0.86960000  1
  C  C210  1  0.71523000  0.36746000  0.50980000  1
  C  C211  1  0.71554000  0.61668000  0.83390000  1
  C  C212  1  0.72149000  0.08938000  0.71230000  1
  C  C213  1  0.73045000  0.78770000  0.15330000  1
  C  C214  1  0.73130000  0.08020000  0.63200000  1
  C  C215  1  0.73875000  0.37490000  0.55450000  1
  C  C216  1  0.74158000  0.55056000  0.84160000  1
  C  C217  1  0.75603000  0.35686000  0.70110000  1
  C  C218  1  0.76070000  0.80340000  0.65700000  1
  C  C219  1  0.76237000  0.36854000  0.65780000  1
  C  C220  1  0.76787000  0.73214000  0.15260000  1
  C  C221  1  0.79025000  0.32950000  0.35370000  1
  C  C222  1  0.79240000  0.67280000  0.65200000  1
  C  C223  1  0.80157000  0.15794000  0.71810000  1
  C  C224  1  0.80898000  0.55056000  0.34160000  1
  C  C225  1  0.81027000  0.14894000  0.63970000  1
  C  C226  1  0.84653000  0.18786000  0.68180000  1
  C  C227  1  0.85105000  0.26830000  0.84840000  1
  C  C228  1  0.85640000  0.80720000  0.65710000  1
  C  C229  1  0.86483000  0.23346000  0.34940000  1
  C  C230  1  0.86875000  0.74130000  0.15430000  1
  C  C231  1  0.87255000  0.74130000  0.65430000  1
  C  C232  1  0.87752000  0.30884000  0.35240000  1
  C  C233  1  0.88040000  0.67280000  0.15200000  1
  C  C234  1  0.90114000  0.61668000  0.33390000  1
  C  C235  1  0.92725000  0.62770000  0.29110000  1
  C  C236  1  0.93559000  0.26038000  0.68150000  1
  C  C237  1  0.94275000  0.21230000  0.34670000  1
  C  C238  1  0.94976000  0.26552000  0.84660000  1
  C  C239  1  0.95080000  0.80720000  0.15710000  1
  C  C240  1  0.95403000  0.65686000  0.64860000  1
  C  C241  1  0.95558000  0.66756000  0.36960000  1
  C  C242  1  0.95730000  0.19660000  0.84300000  1
  C  C243  1  0.96183000  0.27166000  0.63860000  1
  C  C244  1  0.96427000  0.73214000  0.65260000  1
  C  C245  1  0.96946000  0.36612000  0.35450000  1
  C  C246  1  0.96947000  0.66694000  0.15060000  1
  C  C247  1  0.99110000  0.31120000  0.71680000  1
  S  S248  1  0.12020000  0.80156000  0.40169000  1
  S  S249  1  0.16939000  0.40404000  0.34975000  1
  S  S250  1  0.23465000  0.40404000  0.84975000  1
  S  S251  1  0.31864000  0.19844000  0.09831000  1
  S  S252  1  0.36359000  0.81208000  0.90815000  1
  S  S253  1  0.44849000  0.81208000  0.40815000  1
  S  S254  1  0.55151000  0.18792000  0.59185000  1
  S  S255  1  0.63641000  0.18792000  0.09185000  1
  S  S256  1  0.68136000  0.80156000  0.90169000  1
  S  S257  1  0.76535000  0.59596000  0.15025000  1
  S  S258  1  0.83061000  0.59596000  0.65025000  1
  S  S259  1  0.87980000  0.19844000  0.59831000  1
  O  O260  1  0.07344000  0.84508000  0.42617000  1
  O  O261  1  0.15091000  0.66782000  0.13801000  1
  O  O262  1  0.17457000  0.77174000  0.42639000  1
  O  O263  1  0.18510000  0.43520000  0.30860000  1
  O  O264  1  0.19874000  0.60408000  0.64303000  1
  O  O265  1  0.20458000  0.45576000  0.39070000  1
  O  O266  1  0.21729000  0.45298000  0.61934000  1
  O  O267  1  0.21986000  0.79452000  0.16237000  1
  O  O268  1  0.22836000  0.15492000  0.07383000  1
  O  O269  1  0.23569000  0.45298000  0.11934000  1
  O  O270  1  0.23826000  0.49712000  0.69157000  1
  O  O271  1  0.25010000  0.43520000  0.80860000  1
  O  O272  1  0.25118000  0.45576000  0.89070000  1
  O  O273  1  0.25886000  0.49712000  0.19157000  1
  O  O274  1  0.26887000  0.66174000  0.21079000  1
  O  O275  1  0.27125000  0.81550000  0.90237000  1
  O  O276  1  0.28901000  0.63782000  0.07577000  1
  O  O277  1  0.29168000  0.72356000  0.64900000  1
  O  O278  1  0.32796000  0.76392000  0.08280000  1
  O  O279  1  0.34881000  0.63782000  0.57577000  1
  O  O280  1  0.35808000  0.78576000  0.22907000  1
  O  O281  1  0.36388000  0.93716000  0.12484000  1
  O  O282  1  0.39287000  0.66174000  0.71079000  1
  O  O283  1  0.39652000  0.95304000  0.19657000  1
  O  O284  1  0.40283000  0.22826000  0.07361000  1
  O  O285  1  0.40534000  0.60408000  0.14303000  1
  O  O286  1  0.42534000  0.20548000  0.33763000  1
  O  O287  1  0.42672000  0.06284000  0.37516000  1
  O  O288  1  0.42768000  0.78576000  0.72907000  1
  O  O289  1  0.43188000  0.72356000  0.14900000  1
  O  O290  1  0.43596000  0.76392000  0.58280000  1
  O  O291  1  0.43873000  0.88386000  0.41912000  1
  O  O292  1  0.44348000  0.04696000  0.30343000  1
  O  O293  1  0.44513000  0.88386000  0.91912000  1
  O  O294  1  0.45575000  0.18450000  0.59763000  1
  O  O295  1  0.48309000  0.33218000  0.36199000  1
  O  O296  1  0.51691000  0.66782000  0.63801000  1
  O  O297  1  0.54425000  0.81550000  0.40237000  1
  O  O298  1  0.55487000  0.11614000  0.08088000  1
  O  O299  1  0.55652000  0.95304000  0.69657000  1
  O  O300  1  0.56127000  0.11614000  0.58088000  1
  O  O301  1  0.56404000  0.23608000  0.41720000  1
  O  O302  1  0.56812000  0.27644000  0.85100000  1
  O  O303  1  0.57232000  0.21424000  0.27093000  1
  O  O304  1  0.57328000  0.93716000  0.62484000  1
  O  O305  1  0.57466000  0.79452000  0.66237000  1
  O  O306  1  0.59466000  0.39592000  0.85697000  1
  O  O307  1  0.59717000  0.77174000  0.92639000  1
  O  O308  1  0.60348000  0.04696000  0.80343000  1
  O  O309  1  0.60713000  0.33826000  0.28921000  1
  O  O310  1  0.63612000  0.06284000  0.87516000  1
  O  O311  1  0.64192000  0.21424000  0.77093000  1
  O  O312  1  0.65119000  0.36218000  0.42423000  1
  O  O313  1  0.67204000  0.23608000  0.91720000  1
  O  O314  1  0.70832000  0.27644000  0.35100000  1
  O  O315  1  0.71099000  0.36218000  0.92423000  1
  O  O316  1  0.72875000  0.18450000  0.09763000  1
  O  O317  1  0.73113000  0.33826000  0.78921000  1
  O  O318  1  0.74114000  0.50288000  0.80843000  1
  O  O319  1  0.74882000  0.54424000  0.10930000  1
  O  O320  1  0.74990000  0.56480000  0.19140000  1
  O  O321  1  0.76174000  0.50288000  0.30843000  1
  O  O322  1  0.76431000  0.54702000  0.88066000  1
  O  O323  1  0.77164000  0.84508000  0.92617000  1
  O  O324  1  0.78014000  0.20548000  0.83763000  1
  O  O325  1  0.78271000  0.54702000  0.38066000  1
  O  O326  1  0.79542000  0.54424000  0.60930000  1
  O  O327  1  0.80126000  0.39592000  0.35697000  1
  O  O328  1  0.81490000  0.56480000  0.69140000  1
  O  O329  1  0.82543000  0.22826000  0.57361000  1
  O  O330  1  0.84909000  0.33218000  0.86199000  1
  O  O331  1  0.92656000  0.15492000  0.57383000  1
