# generated using pymatgen
data_CoH13C17O7
_symmetry_space_group_name_H-M   'P 1'
_cell_length_a   10.16800000
_cell_length_b   18.03500000
_cell_length_c   27.05400000
_cell_angle_alpha   90.00000000
_cell_angle_beta   99.32100000
_cell_angle_gamma   90.00000000
_symmetry_Int_Tables_number   1
_chemical_formula_structural   CoH13C17O7
_chemical_formula_sum   'Co8 H104 C136 O56'
_cell_volume   4895.65420633
_cell_formula_units_Z   8
loop_
 _symmetry_equiv_pos_site_id
 _symmetry_equiv_pos_as_xyz
  1  'x, y, z'
loop_
 _atom_site_type_symbol
 _atom_site_label
 _atom_site_symmetry_multiplicity
 _atom_site_fract_x
 _atom_site_fract_y
 _atom_site_fract_z
 _atom_site_occupancy
  Co  Co0  1  0.35915000  0.23429000  0.78309000  1
  Co  Co1  1  0.35915000  0.26571000  0.28309000  1
  Co  Co2  1  0.46930000  0.69084000  0.30951000  1
  Co  Co3  1  0.46930000  0.80916000  0.80951000  1
  Co  Co4  1  0.53070000  0.19084000  0.19049000  1
  Co  Co5  1  0.53070000  0.30916000  0.69049000  1
  Co  Co6  1  0.64085000  0.73429000  0.71691000  1
  Co  Co7  1  0.64085000  0.76571000  0.21691000  1
  H  H8  1  0.00440000  0.20330000  0.20240000  1
  H  H9  1  0.00440000  0.29670000  0.70240000  1
  H  H10  1  0.01910000  0.13300000  0.64580000  1
  H  H11  1  0.01910000  0.36700000  0.14580000  1
  H  H12  1  0.04790000  0.53660000  0.07870000  1
  H  H13  1  0.04790000  0.96340000  0.57870000  1
  H  H14  1  0.05920000  0.09980000  0.42970000  1
  H  H15  1  0.05920000  0.40020000  0.92970000  1
  H  H16  1  0.09160000  0.61970000  0.08700000  1
  H  H17  1  0.09160000  0.88030000  0.58700000  1
  H  H18  1  0.11550000  0.67500000  0.87160000  1
  H  H19  1  0.11550000  0.82500000  0.37160000  1
  H  H20  1  0.11650000  0.59020000  0.85880000  1
  H  H21  1  0.11650000  0.90980000  0.35880000  1
  H  H22  1  0.12300000  0.20030000  0.77720000  1
  H  H23  1  0.12300000  0.29970000  0.27720000  1
  H  H24  1  0.12890000  0.52660000  0.62200000  1
  H  H25  1  0.12890000  0.97340000  0.12200000  1
  H  H26  1  0.16540000  0.65710000  0.47790000  1
  H  H27  1  0.16540000  0.84290000  0.97790000  1
  H  H28  1  0.16650000  0.18490000  0.30800000  1
  H  H29  1  0.16650000  0.31510000  0.80800000  1
  H  H30  1  0.18240000  0.59640000  0.68540000  1
  H  H31  1  0.18240000  0.90360000  0.18540000  1
  H  H32  1  0.18740000  0.10450000  0.10060000  1
  H  H33  1  0.18740000  0.39550000  0.60060000  1
  H  H34  1  0.19400000  0.16830000  0.82410000  1
  H  H35  1  0.19400000  0.33170000  0.32410000  1
  H  H36  1  0.20490000  0.58350000  0.40690000  1
  H  H37  1  0.20490000  0.91650000  0.90690000  1
  H  H38  1  0.24000000  0.73580000  0.99620000  1
  H  H39  1  0.24000000  0.76420000  0.49620000  1
  H  H40  1  0.24680000  0.22320000  0.35880000  1
  H  H41  1  0.24680000  0.27680000  0.85880000  1
  H  H42  1  0.26200000  0.54180000  0.06920000  1
  H  H43  1  0.26200000  0.95820000  0.56920000  1
  H  H44  1  0.28410000  0.56070000  0.90040000  1
  H  H45  1  0.28410000  0.93930000  0.40040000  1
  H  H46  1  0.31640000  0.55480000  0.68280000  1
  H  H47  1  0.31640000  0.94520000  0.18280000  1
  H  H48  1  0.31810000  0.63100000  0.71070000  1
  H  H49  1  0.31810000  0.86900000  0.21070000  1
  H  H50  1  0.37220000  0.70210000  0.02550000  1
  H  H51  1  0.37220000  0.79790000  0.52550000  1
  H  H52  1  0.37640000  0.72430000  0.49490000  1
  H  H53  1  0.37640000  0.77570000  0.99490000  1
  H  H54  1  0.46340000  0.01510000  0.74090000  1
  H  H55  1  0.46340000  0.48490000  0.24090000  1
  H  H56  1  0.48500000  0.11680000  0.61180000  1
  H  H57  1  0.48500000  0.38320000  0.11180000  1
  H  H58  1  0.49600000  0.60430000  0.11920000  1
  H  H59  1  0.49600000  0.89570000  0.61920000  1
  H  H60  1  0.50400000  0.10430000  0.38080000  1
  H  H61  1  0.50400000  0.39570000  0.88080000  1
  H  H62  1  0.51500000  0.61680000  0.88820000  1
  H  H63  1  0.51500000  0.88320000  0.38820000  1
  H  H64  1  0.53660000  0.51510000  0.75910000  1
  H  H65  1  0.53660000  0.98490000  0.25910000  1
  H  H66  1  0.62360000  0.22430000  0.00510000  1
  H  H67  1  0.62360000  0.27570000  0.50510000  1
  H  H68  1  0.62780000  0.20210000  0.47450000  1
  H  H69  1  0.62780000  0.29790000  0.97450000  1
  H  H70  1  0.68190000  0.13100000  0.78930000  1
  H  H71  1  0.68190000  0.36900000  0.28930000  1
  H  H72  1  0.68360000  0.05480000  0.81720000  1
  H  H73  1  0.68360000  0.44520000  0.31720000  1
  H  H74  1  0.71590000  0.06070000  0.59960000  1
  H  H75  1  0.71590000  0.43930000  0.09960000  1
  H  H76  1  0.73800000  0.04180000  0.43080000  1
  H  H77  1  0.73800000  0.45820000  0.93080000  1
  H  H78  1  0.75320000  0.72320000  0.14120000  1
  H  H79  1  0.75320000  0.77680000  0.64120000  1
  H  H80  1  0.76000000  0.23580000  0.50380000  1
  H  H81  1  0.76000000  0.26420000  0.00380000  1
  H  H82  1  0.79510000  0.08350000  0.09310000  1
  H  H83  1  0.79510000  0.41650000  0.59310000  1
  H  H84  1  0.80600000  0.66830000  0.67590000  1
  H  H85  1  0.80600000  0.83170000  0.17590000  1
  H  H86  1  0.81260000  0.60450000  0.39940000  1
  H  H87  1  0.81260000  0.89550000  0.89940000  1
  H  H88  1  0.81760000  0.09640000  0.81460000  1
  H  H89  1  0.81760000  0.40360000  0.31460000  1
  H  H90  1  0.83350000  0.68490000  0.19200000  1
  H  H91  1  0.83350000  0.81510000  0.69200000  1
  H  H92  1  0.83460000  0.15710000  0.02210000  1
  H  H93  1  0.83460000  0.34290000  0.52210000  1
  H  H94  1  0.87110000  0.02660000  0.87800000  1
  H  H95  1  0.87110000  0.47340000  0.37800000  1
  H  H96  1  0.87700000  0.70030000  0.72280000  1
  H  H97  1  0.87700000  0.79970000  0.22280000  1
  H  H98  1  0.88350000  0.09020000  0.64120000  1
  H  H99  1  0.88350000  0.40980000  0.14120000  1
  H  H100  1  0.88450000  0.17500000  0.62840000  1
  H  H101  1  0.88450000  0.32500000  0.12840000  1
  H  H102  1  0.90840000  0.11970000  0.41300000  1
  H  H103  1  0.90840000  0.38030000  0.91300000  1
  H  H104  1  0.94080000  0.59980000  0.07030000  1
  H  H105  1  0.94080000  0.90020000  0.57030000  1
  H  H106  1  0.95210000  0.03660000  0.42130000  1
  H  H107  1  0.95210000  0.46340000  0.92130000  1
  H  H108  1  0.98090000  0.63300000  0.85420000  1
  H  H109  1  0.98090000  0.86700000  0.35420000  1
  H  H110  1  0.99560000  0.70330000  0.29760000  1
  H  H111  1  0.99560000  0.79670000  0.79760000  1
  C  C112  1  0.00090000  0.17390000  0.17395000  1
  C  C113  1  0.00090000  0.32610000  0.67395000  1
  C  C114  1  0.00960000  0.58570000  0.41031000  1
  C  C115  1  0.00960000  0.91430000  0.91031000  1
  C  C116  1  0.00970000  0.54000000  0.45619000  1
  C  C117  1  0.00970000  0.96000000  0.95619000  1
  C  C118  1  0.03050000  0.58650000  0.06720000  1
  C  C119  1  0.03050000  0.91350000  0.56720000  1
  C  C120  1  0.06910000  0.52290000  0.54650000  1
  C  C121  1  0.06910000  0.97710000  0.04650000  1
  C  C122  1  0.06920000  0.62880000  0.87290000  1
  C  C123  1  0.06920000  0.87120000  0.37290000  1
  C  C124  1  0.08080000  0.56320000  0.50189000  1
  C  C125  1  0.08080000  0.93680000  0.00189000  1
  C  C126  1  0.10980000  0.11430000  0.11344000  1
  C  C127  1  0.10980000  0.38570000  0.61344000  1
  C  C128  1  0.11610000  0.15710000  0.15595000  1
  C  C129  1  0.11610000  0.34290000  0.65595000  1
  C  C130  1  0.12000000  0.64740000  0.35020000  1
  C  C131  1  0.12000000  0.85260000  0.85020000  1
  C  C132  1  0.12370000  0.60270000  0.39145000  1
  C  C133  1  0.12370000  0.89730000  0.89145000  1
  C  C134  1  0.13760000  0.55080000  0.59238000  1
  C  C135  1  0.13760000  0.94920000  0.09238000  1
  C  C136  1  0.16050000  0.62880000  0.50628000  1
  C  C137  1  0.16050000  0.87120000  0.00628000  1
  C  C138  1  0.16090000  0.57210000  0.00399000  1
  C  C139  1  0.16090000  0.92790000  0.50399000  1
  C  C140  1  0.16900000  0.57990000  0.95175000  1
  C  C141  1  0.16900000  0.92010000  0.45175000  1
  C  C142  1  0.21500000  0.61120000  0.59418000  1
  C  C143  1  0.21500000  0.88880000  0.09418000  1
  C  C144  1  0.22810000  0.65020000  0.55033000  1
  C  C145  1  0.22810000  0.84980000  0.05033000  1
  C  C146  1  0.24540000  0.66760000  0.33175000  1
  C  C147  1  0.24540000  0.83240000  0.83175000  1
  C  C148  1  0.24800000  0.18330000  0.18185000  1
  C  C149  1  0.24800000  0.31670000  0.68185000  1
  C  C150  1  0.26730000  0.54580000  0.03527000  1
  C  C151  1  0.26730000  0.95420000  0.53527000  1
  C  C152  1  0.27480000  0.60260000  0.68280000  1
  C  C153  1  0.27480000  0.89740000  0.18280000  1
  C  C154  1  0.28100000  0.55690000  0.93445000  1
  C  C155  1  0.28100000  0.94310000  0.43445000  1
  C  C156  1  0.32570000  0.74730000  0.01520000  1
  C  C157  1  0.32570000  0.75270000  0.51520000  1
  C  C158  1  0.38610000  0.52420000  0.01887000  1
  C  C159  1  0.38610000  0.97580000  0.51887000  1
  C  C160  1  0.39170000  0.52780000  0.96628000  1
  C  C161  1  0.39170000  0.97220000  0.46628000  1
  C  C162  1  0.47220000  0.01290000  0.70725000  1
  C  C163  1  0.47220000  0.48710000  0.20725000  1
  C  C164  1  0.47570000  0.15110000  0.70457000  1
  C  C165  1  0.47570000  0.34890000  0.20457000  1
  C  C166  1  0.47670000  0.07735000  0.68020000  1
  C  C167  1  0.47670000  0.42265000  0.18020000  1
  C  C168  1  0.48060000  0.55416000  0.18463000  1
  C  C169  1  0.48060000  0.94584000  0.68463000  1
  C  C170  1  0.48420000  0.07321000  0.63010000  1
  C  C171  1  0.48420000  0.42679000  0.13010000  1
  C  C172  1  0.48580000  0.62430000  0.21488000  1
  C  C173  1  0.48580000  0.87570000  0.71488000  1
  C  C174  1  0.49000000  0.55830000  0.13426000  1
  C  C175  1  0.49000000  0.94170000  0.63426000  1
  C  C176  1  0.49070000  0.00610000  0.60603000  1
  C  C177  1  0.49070000  0.49390000  0.10603000  1
  C  C178  1  0.49590000  0.00290000  0.55151000  1
  C  C179  1  0.49590000  0.49710000  0.05151000  1
  C  C180  1  0.50410000  0.50290000  0.94849000  1
  C  C181  1  0.50410000  0.99710000  0.44849000  1
  C  C182  1  0.50930000  0.50610000  0.89397000  1
  C  C183  1  0.50930000  0.99390000  0.39397000  1
  C  C184  1  0.51000000  0.05830000  0.36574000  1
  C  C185  1  0.51000000  0.44170000  0.86574000  1
  C  C186  1  0.51420000  0.12430000  0.28512000  1
  C  C187  1  0.51420000  0.37570000  0.78512000  1
  C  C188  1  0.51580000  0.57321000  0.86990000  1
  C  C189  1  0.51580000  0.92679000  0.36990000  1
  C  C190  1  0.51940000  0.05416000  0.31537000  1
  C  C191  1  0.51940000  0.44584000  0.81537000  1
  C  C192  1  0.52330000  0.57735000  0.81980000  1
  C  C193  1  0.52330000  0.92265000  0.31980000  1
  C  C194  1  0.52430000  0.65110000  0.79543000  1
  C  C195  1  0.52430000  0.84890000  0.29543000  1
  C  C196  1  0.52780000  0.51290000  0.79275000  1
  C  C197  1  0.52780000  0.98710000  0.29275000  1
  C  C198  1  0.60830000  0.02780000  0.53372000  1
  C  C199  1  0.60830000  0.47220000  0.03372000  1
  C  C200  1  0.61390000  0.02420000  0.48113000  1
  C  C201  1  0.61390000  0.47580000  0.98113000  1
  C  C202  1  0.67430000  0.24730000  0.48480000  1
  C  C203  1  0.67430000  0.25270000  0.98480000  1
  C  C204  1  0.71900000  0.05690000  0.56555000  1
  C  C205  1  0.71900000  0.44310000  0.06555000  1
  C  C206  1  0.72520000  0.10260000  0.81720000  1
  C  C207  1  0.72520000  0.39740000  0.31720000  1
  C  C208  1  0.73270000  0.04580000  0.46473000  1
  C  C209  1  0.73270000  0.45420000  0.96473000  1
  C  C210  1  0.75200000  0.68330000  0.31815000  1
  C  C211  1  0.75200000  0.81670000  0.81815000  1
  C  C212  1  0.75460000  0.16760000  0.16825000  1
  C  C213  1  0.75460000  0.33240000  0.66825000  1
  C  C214  1  0.77190000  0.15020000  0.94967000  1
  C  C215  1  0.77190000  0.34980000  0.44967000  1
  C  C216  1  0.78500000  0.11120000  0.90582000  1
  C  C217  1  0.78500000  0.38880000  0.40582000  1
  C  C218  1  0.83100000  0.07990000  0.54825000  1
  C  C219  1  0.83100000  0.42010000  0.04825000  1
  C  C220  1  0.83910000  0.07210000  0.49601000  1
  C  C221  1  0.83910000  0.42790000  0.99601000  1
  C  C222  1  0.83950000  0.12880000  0.99372000  1
  C  C223  1  0.83950000  0.37120000  0.49372000  1
  C  C224  1  0.86240000  0.05080000  0.90762000  1
  C  C225  1  0.86240000  0.44920000  0.40762000  1
  C  C226  1  0.87630000  0.10270000  0.10855000  1
  C  C227  1  0.87630000  0.39730000  0.60855000  1
  C  C228  1  0.88000000  0.14740000  0.14980000  1
  C  C229  1  0.88000000  0.35260000  0.64980000  1
  C  C230  1  0.88390000  0.65710000  0.34405000  1
  C  C231  1  0.88390000  0.84290000  0.84405000  1
  C  C232  1  0.89020000  0.61430000  0.38656000  1
  C  C233  1  0.89020000  0.88570000  0.88656000  1
  C  C234  1  0.91920000  0.06320000  0.99811000  1
  C  C235  1  0.91920000  0.43680000  0.49811000  1
  C  C236  1  0.93080000  0.12880000  0.62710000  1
  C  C237  1  0.93080000  0.37120000  0.12710000  1
  C  C238  1  0.93090000  0.02290000  0.95350000  1
  C  C239  1  0.93090000  0.47710000  0.45350000  1
  C  C240  1  0.96950000  0.08650000  0.43280000  1
  C  C241  1  0.96950000  0.41350000  0.93280000  1
  C  C242  1  0.99030000  0.04000000  0.04381000  1
  C  C243  1  0.99030000  0.46000000  0.54381000  1
  C  C244  1  0.99040000  0.08570000  0.08969000  1
  C  C245  1  0.99040000  0.41430000  0.58969000  1
  C  C246  1  0.99910000  0.67390000  0.32605000  1
  C  C247  1  0.99910000  0.82610000  0.82605000  1
  O  O248  1  0.04550000  0.59350000  0.01551000  1
  O  O249  1  0.04550000  0.90650000  0.51551000  1
  O  O250  1  0.06140000  0.61100000  0.92421000  1
  O  O251  1  0.06140000  0.88900000  0.42421000  1
  O  O252  1  0.19470000  0.19380000  0.79770000  1
  O  O253  1  0.19470000  0.30620000  0.29770000  1
  O  O254  1  0.22220000  0.22550000  0.32260000  1
  O  O255  1  0.22220000  0.27450000  0.82260000  1
  O  O256  1  0.24180000  0.70493000  0.29330000  1
  O  O257  1  0.24180000  0.79507000  0.79330000  1
  O  O258  1  0.25170000  0.21696000  0.22133000  1
  O  O259  1  0.25170000  0.28304000  0.72133000  1
  O  O260  1  0.28580000  0.64080000  0.63694000  1
  O  O261  1  0.28580000  0.85920000  0.13694000  1
  O  O262  1  0.30880000  0.71110000  0.55812000  1
  O  O263  1  0.30880000  0.78890000  0.05812000  1
  O  O264  1  0.34510000  0.16851000  0.16126000  1
  O  O265  1  0.34510000  0.33149000  0.66126000  1
  O  O266  1  0.35500000  0.64781000  0.35658000  1
  O  O267  1  0.35500000  0.85219000  0.85658000  1
  O  O268  1  0.43740000  0.15520000  0.74601000  1
  O  O269  1  0.43740000  0.34480000  0.24601000  1
  O  O270  1  0.45490000  0.61749000  0.25704000  1
  O  O271  1  0.45490000  0.88251000  0.75704000  1
  O  O272  1  0.48170000  0.70285000  0.81803000  1
  O  O273  1  0.48170000  0.79715000  0.31803000  1
  O  O274  1  0.48370000  0.18283000  0.30331000  1
  O  O275  1  0.48370000  0.31717000  0.80331000  1
  O  O276  1  0.51630000  0.68283000  0.19669000  1
  O  O277  1  0.51630000  0.81717000  0.69669000  1
  O  O278  1  0.51830000  0.20285000  0.68197000  1
  O  O279  1  0.51830000  0.29715000  0.18197000  1
  O  O280  1  0.54510000  0.11749000  0.24296000  1
  O  O281  1  0.54510000  0.38251000  0.74296000  1
  O  O282  1  0.56260000  0.65520000  0.75399000  1
  O  O283  1  0.56260000  0.84480000  0.25399000  1
  O  O284  1  0.64500000  0.14781000  0.14342000  1
  O  O285  1  0.64500000  0.35219000  0.64342000  1
  O  O286  1  0.65490000  0.66851000  0.33874000  1
  O  O287  1  0.65490000  0.83149000  0.83874000  1
  O  O288  1  0.69120000  0.21110000  0.94188000  1
  O  O289  1  0.69120000  0.28890000  0.44188000  1
  O  O290  1  0.71420000  0.14080000  0.86306000  1
  O  O291  1  0.71420000  0.35920000  0.36306000  1
  O  O292  1  0.74830000  0.71696000  0.27867000  1
  O  O293  1  0.74830000  0.78304000  0.77867000  1
  O  O294  1  0.75820000  0.20493000  0.20670000  1
  O  O295  1  0.75820000  0.29507000  0.70670000  1
  O  O296  1  0.77780000  0.72550000  0.17740000  1
  O  O297  1  0.77780000  0.77450000  0.67740000  1
  O  O298  1  0.80530000  0.69380000  0.70230000  1
  O  O299  1  0.80530000  0.80620000  0.20230000  1
  O  O300  1  0.93860000  0.11100000  0.57579000  1
  O  O301  1  0.93860000  0.38900000  0.07579000  1
  O  O302  1  0.95450000  0.09350000  0.48449000  1
  O  O303  1  0.95450000  0.40650000  0.98449000  1
