# generated using pymatgen
data_Zn3H16C32(NO7)2
_symmetry_space_group_name_H-M   'P 1'
_cell_length_a   8.43580000
_cell_length_b   10.07400000
_cell_length_c   15.07900000
_cell_angle_alpha   71.07100000
_cell_angle_beta   87.93100000
_cell_angle_gamma   67.63100000
_symmetry_Int_Tables_number   1
_chemical_formula_structural   Zn3H16C32(NO7)2
_chemical_formula_sum   'Zn3 H16 C32 N2 O14'
_cell_volume   1115.33357903
_cell_formula_units_Z   1
loop_
 _symmetry_equiv_pos_site_id
 _symmetry_equiv_pos_as_xyz
  1  'x, y, z'
loop_
 _atom_site_type_symbol
 _atom_site_label
 _atom_site_symmetry_multiplicity
 _atom_site_fract_x
 _atom_site_fract_y
 _atom_site_fract_z
 _atom_site_occupancy
  Zn  Zn0  1  0.18147000  0.78964000  0.04176000  1
  Zn  Zn1  1  0.50000000  0.50000000  0.00000000  1
  Zn  Zn2  1  0.81853000  0.21036000  0.95824000  1
  H  H3  1  0.03010000  0.22210000  0.60400000  1
  H  H4  1  0.09160000  0.08670000  0.76310000  1
  H  H5  1  0.15260000  0.32710000  0.03250000  1
  H  H6  1  0.18930000  0.97800000  0.26720000  1
  H  H7  1  0.19830000  0.36070000  0.28880000  1
  H  H8  1  0.28290000  0.99180000  0.41570000  1
  H  H9  1  0.38590000  0.87600000  0.54720000  1
  H  H10  1  0.44880000  0.73820000  0.70520000  1
  H  H11  1  0.55120000  0.26180000  0.29480000  1
  H  H12  1  0.61410000  0.12400000  0.45280000  1
  H  H13  1  0.71710000  0.00820000  0.58430000  1
  H  H14  1  0.80170000  0.63930000  0.71120000  1
  H  H15  1  0.81070000  0.02200000  0.73280000  1
  H  H16  1  0.84740000  0.67290000  0.96750000  1
  H  H17  1  0.90840000  0.91330000  0.23690000  1
  H  H18  1  0.96990000  0.77790000  0.39600000  1
  C  C19  1  0.11410000  0.12350000  0.62420000  1
  C  C20  1  0.14280000  0.05320000  0.08170000  1
  C  C21  1  0.14900000  0.15810000  0.45660000  1
  C  C22  1  0.15080000  0.04290000  0.71980000  1
  C  C23  1  0.16470000  0.28470000  0.09790000  1
  C  C24  1  0.16540000  0.13910000  0.14160000  1
  C  C25  1  0.18260000  0.36530000  0.15380000  1
  C  C26  1  0.18430000  0.07660000  0.23860000  1
  C  C27  1  0.19310000  0.30410000  0.25180000  1
  C  C28  1  0.19580000  0.15950000  0.29350000  1
  C  C29  1  0.19610000  0.51560000  0.10940000  1
  C  C30  1  0.19800000  0.06240000  0.55830000  1
  C  C31  1  0.27650000  0.89630000  0.75050000  1
  C  C32  1  0.31450000  0.80450000  0.85410000  1
  C  C33  1  0.32460000  0.91870000  0.59040000  1
  C  C34  1  0.36310000  0.83600000  0.68530000  1
  C  C35  1  0.63690000  0.16400000  0.31470000  1
  C  C36  1  0.67540000  0.08130000  0.40960000  1
  C  C37  1  0.68550000  0.19550000  0.14590000  1
  C  C38  1  0.72350000  0.10370000  0.24950000  1
  C  C39  1  0.80200000  0.93760000  0.44170000  1
  C  C40  1  0.80390000  0.48440000  0.89060000  1
  C  C41  1  0.80420000  0.84050000  0.70650000  1
  C  C42  1  0.80690000  0.69590000  0.74820000  1
  C  C43  1  0.81570000  0.92340000  0.76140000  1
  C  C44  1  0.81740000  0.63470000  0.84620000  1
  C  C45  1  0.83460000  0.86090000  0.85840000  1
  C  C46  1  0.83530000  0.71530000  0.90210000  1
  C  C47  1  0.84920000  0.95710000  0.28020000  1
  C  C48  1  0.85100000  0.84190000  0.54340000  1
  C  C49  1  0.85720000  0.94680000  0.91830000  1
  C  C50  1  0.88590000  0.87650000  0.37580000  1
  N  N51  1  0.21920000  0.08750000  0.39370000  1
  N  N52  1  0.78080000  0.91250000  0.60630000  1
  O  O53  1  0.05010000  0.29260000  0.43250000  1
  O  O54  1  0.07660000  0.12510000  0.99850000  1
  O  O55  1  0.16780000  0.60600000  0.15420000  1
  O  O56  1  0.19730000  0.90870000  0.12010000  1
  O  O57  1  0.23150000  0.86870000  0.90950000  1
  O  O58  1  0.23480000  0.55140000  0.02560000  1
  O  O59  1  0.42470000  0.67080000  0.87580000  1
  O  O60  1  0.57530000  0.32920000  0.12420000  1
  O  O61  1  0.76520000  0.44860000  0.97440000  1
  O  O62  1  0.76850000  0.13130000  0.09050000  1
  O  O63  1  0.80270000  0.09130000  0.87990000  1
  O  O64  1  0.83220000  0.39400000  0.84580000  1
  O  O65  1  0.92340000  0.87490000  0.00150000  1
  O  O66  1  0.94990000  0.70740000  0.56750000  1
