# generated using pymatgen
data_CdH20C20(NO2)2
_symmetry_space_group_name_H-M   'P 1'
_cell_length_a   17.83720000
_cell_length_b   21.16400000
_cell_length_c   21.72100000
_cell_angle_alpha   90.00000000
_cell_angle_beta   90.30000000
_cell_angle_gamma   90.00000000
_symmetry_Int_Tables_number   1
_chemical_formula_structural   CdH20C20(NO2)2
_chemical_formula_sum   'Cd8 H160 C160 N16 O32'
_cell_volume   8199.70630279
_cell_formula_units_Z   8
loop_
 _symmetry_equiv_pos_site_id
 _symmetry_equiv_pos_as_xyz
  1  'x, y, z'
loop_
 _atom_site_type_symbol
 _atom_site_label
 _atom_site_symmetry_multiplicity
 _atom_site_fract_x
 _atom_site_fract_y
 _atom_site_fract_z
 _atom_site_occupancy
  Cd  Cd0  1  0.20036000  0.58415000  0.98289000  1
  Cd  Cd1  1  0.20036000  0.91585000  0.48289000  1
  Cd  Cd2  1  0.39801000  0.65932000  0.48552000  1
  Cd  Cd3  1  0.39801000  0.84068000  0.98552000  1
  Cd  Cd4  1  0.60199000  0.15932000  0.01448000  1
  Cd  Cd5  1  0.60199000  0.34068000  0.51448000  1
  Cd  Cd6  1  0.79964000  0.08415000  0.51711000  1
  Cd  Cd7  1  0.79964000  0.41585000  0.01711000  1
  H  H8  1  0.03030000  0.68650000  0.08100000  1
  H  H9  1  0.03030000  0.81350000  0.58100000  1
  H  H10  1  0.04210000  0.05590000  0.58160000  1
  H  H11  1  0.04210000  0.44410000  0.08160000  1
  H  H12  1  0.04580000  0.63460000  0.90080000  1
  H  H13  1  0.04580000  0.86540000  0.40080000  1
  H  H14  1  0.05790000  0.10590000  0.40410000  1
  H  H15  1  0.05790000  0.39410000  0.90410000  1
  H  H16  1  0.09690000  0.74550000  0.50620000  1
  H  H17  1  0.09690000  0.75450000  0.00620000  1
  H  H18  1  0.10240000  0.73410000  0.93540000  1
  H  H19  1  0.10240000  0.76590000  0.43540000  1
  H  H20  1  0.15690000  0.61010000  0.12930000  1
  H  H21  1  0.15690000  0.88990000  0.62930000  1
  H  H22  1  0.15710000  0.59670000  0.83550000  1
  H  H23  1  0.15710000  0.90330000  0.33550000  1
  H  H24  1  0.15820000  0.70330000  0.08180000  1
  H  H25  1  0.15820000  0.79670000  0.58180000  1
  H  H26  1  0.18580000  0.67790000  0.75520000  1
  H  H27  1  0.18580000  0.82210000  0.25520000  1
  H  H28  1  0.18890000  0.69810000  0.86640000  1
  H  H29  1  0.18890000  0.80190000  0.36640000  1
  H  H30  1  0.19050000  0.54020000  0.12500000  1
  H  H31  1  0.19050000  0.95980000  0.62500000  1
  H  H32  1  0.19670000  0.68000000  0.21320000  1
  H  H33  1  0.19670000  0.82000000  0.71320000  1
  H  H34  1  0.21330000  0.53870000  0.84470000  1
  H  H35  1  0.21330000  0.96130000  0.34470000  1
  H  H36  1  0.21560000  0.74400000  0.55830000  1
  H  H37  1  0.21560000  0.75600000  0.05830000  1
  H  H38  1  0.22890000  0.73440000  0.44250000  1
  H  H39  1  0.22890000  0.76560000  0.94250000  1
  H  H40  1  0.23420000  0.69420000  0.65740000  1
  H  H41  1  0.23420000  0.80580000  0.15740000  1
  H  H42  1  0.24540000  0.69010000  0.30960000  1
  H  H43  1  0.24540000  0.80990000  0.80960000  1
  H  H44  1  0.26540000  0.05110000  0.45890000  1
  H  H45  1  0.26540000  0.44890000  0.95890000  1
  H  H46  1  0.27600000  0.03940000  0.53080000  1
  H  H47  1  0.27600000  0.46060000  0.03080000  1
  H  H48  1  0.27730000  0.70850000  0.86050000  1
  H  H49  1  0.27730000  0.79150000  0.36050000  1
  H  H50  1  0.27780000  0.50050000  0.20140000  1
  H  H51  1  0.27780000  0.99950000  0.70140000  1
  H  H52  1  0.27840000  0.68750000  0.12410000  1
  H  H53  1  0.27840000  0.81250000  0.62410000  1
  H  H54  1  0.28990000  0.71550000  0.96570000  1
  H  H55  1  0.28990000  0.78450000  0.46570000  1
  H  H56  1  0.30160000  0.51570000  0.76870000  1
  H  H57  1  0.30160000  0.98430000  0.26870000  1
  H  H58  1  0.31280000  0.68140000  0.05670000  1
  H  H59  1  0.31280000  0.81860000  0.55670000  1
  H  H60  1  0.31840000  0.52790000  0.10360000  1
  H  H61  1  0.31840000  0.97210000  0.60360000  1
  H  H62  1  0.31880000  0.50850000  0.30320000  1
  H  H63  1  0.31880000  0.99150000  0.80320000  1
  H  H64  1  0.32910000  0.50950000  0.88580000  1
  H  H65  1  0.32910000  0.99050000  0.38580000  1
  H  H66  1  0.35010000  0.61140000  0.84830000  1
  H  H67  1  0.35010000  0.88860000  0.34830000  1
  H  H68  1  0.35370000  0.10760000  0.40300000  1
  H  H69  1  0.35370000  0.39240000  0.90300000  1
  H  H70  1  0.35390000  0.63870000  0.91680000  1
  H  H71  1  0.35390000  0.86130000  0.41680000  1
  H  H72  1  0.35640000  0.53420000  0.67290000  1
  H  H73  1  0.35640000  0.96580000  0.17290000  1
  H  H74  1  0.36290000  0.59250000  0.11520000  1
  H  H75  1  0.36290000  0.90750000  0.61520000  1
  H  H76  1  0.38150000  0.60550000  0.00860000  1
  H  H77  1  0.38150000  0.89450000  0.50860000  1
  H  H78  1  0.40040000  0.06780000  0.57910000  1
  H  H79  1  0.40040000  0.43220000  0.07910000  1
  H  H80  1  0.40450000  0.53740000  0.91570000  1
  H  H81  1  0.40450000  0.96260000  0.41570000  1
  H  H82  1  0.41300000  0.53790000  0.02930000  1
  H  H83  1  0.41300000  0.96210000  0.52930000  1
  H  H84  1  0.44340000  0.18650000  0.40230000  1
  H  H85  1  0.44340000  0.31350000  0.90230000  1
  H  H86  1  0.48570000  0.14950000  0.58170000  1
  H  H87  1  0.48570000  0.35050000  0.08170000  1
  H  H88  1  0.51430000  0.64950000  0.91830000  1
  H  H89  1  0.51430000  0.85050000  0.41830000  1
  H  H90  1  0.55660000  0.68650000  0.09770000  1
  H  H91  1  0.55660000  0.81350000  0.59770000  1
  H  H92  1  0.58700000  0.03790000  0.47070000  1
  H  H93  1  0.58700000  0.46210000  0.97070000  1
  H  H94  1  0.59550000  0.03740000  0.58430000  1
  H  H95  1  0.59550000  0.46260000  0.08430000  1
  H  H96  1  0.59960000  0.56780000  0.92090000  1
  H  H97  1  0.59960000  0.93220000  0.42090000  1
  H  H98  1  0.61850000  0.10550000  0.49140000  1
  H  H99  1  0.61850000  0.39450000  0.99140000  1
  H  H100  1  0.63710000  0.09250000  0.38480000  1
  H  H101  1  0.63710000  0.40750000  0.88480000  1
  H  H102  1  0.64360000  0.03420000  0.82710000  1
  H  H103  1  0.64360000  0.46580000  0.32710000  1
  H  H104  1  0.64610000  0.13870000  0.58320000  1
  H  H105  1  0.64610000  0.36130000  0.08320000  1
  H  H106  1  0.64630000  0.60760000  0.09700000  1
  H  H107  1  0.64630000  0.89240000  0.59700000  1
  H  H108  1  0.64990000  0.11140000  0.65170000  1
  H  H109  1  0.64990000  0.38860000  0.15170000  1
  H  H110  1  0.67090000  0.00950000  0.61420000  1
  H  H111  1  0.67090000  0.49050000  0.11420000  1
  H  H112  1  0.68120000  0.00850000  0.19680000  1
  H  H113  1  0.68120000  0.49150000  0.69680000  1
  H  H114  1  0.68160000  0.02790000  0.39640000  1
  H  H115  1  0.68160000  0.47210000  0.89640000  1
  H  H116  1  0.68720000  0.18140000  0.44330000  1
  H  H117  1  0.68720000  0.31860000  0.94330000  1
  H  H118  1  0.69840000  0.01570000  0.73130000  1
  H  H119  1  0.69840000  0.48430000  0.23130000  1
  H  H120  1  0.71010000  0.21550000  0.53430000  1
  H  H121  1  0.71010000  0.28450000  0.03430000  1
  H  H122  1  0.72160000  0.18750000  0.37590000  1
  H  H123  1  0.72160000  0.31250000  0.87590000  1
  H  H124  1  0.72220000  0.00050000  0.29860000  1
  H  H125  1  0.72220000  0.49950000  0.79860000  1
  H  H126  1  0.72270000  0.20850000  0.63950000  1
  H  H127  1  0.72270000  0.29150000  0.13950000  1
  H  H128  1  0.72400000  0.53940000  0.96920000  1
  H  H129  1  0.72400000  0.96060000  0.46920000  1
  H  H130  1  0.73460000  0.55110000  0.04110000  1
  H  H131  1  0.73460000  0.94890000  0.54110000  1
  H  H132  1  0.75460000  0.19010000  0.19040000  1
  H  H133  1  0.75460000  0.30990000  0.69040000  1
  H  H134  1  0.76580000  0.19420000  0.84260000  1
  H  H135  1  0.76580000  0.30580000  0.34260000  1
  H  H136  1  0.77110000  0.23440000  0.05750000  1
  H  H137  1  0.77110000  0.26560000  0.55750000  1
  H  H138  1  0.78440000  0.24400000  0.94170000  1
  H  H139  1  0.78440000  0.25600000  0.44170000  1
  H  H140  1  0.78670000  0.03870000  0.65530000  1
  H  H141  1  0.78670000  0.46130000  0.15530000  1
  H  H142  1  0.80330000  0.18000000  0.28680000  1
  H  H143  1  0.80330000  0.32000000  0.78680000  1
  H  H144  1  0.80950000  0.04020000  0.37500000  1
  H  H145  1  0.80950000  0.45980000  0.87500000  1
  H  H146  1  0.81110000  0.19810000  0.63360000  1
  H  H147  1  0.81110000  0.30190000  0.13360000  1
  H  H148  1  0.81420000  0.17790000  0.74480000  1
  H  H149  1  0.81420000  0.32210000  0.24480000  1
  H  H150  1  0.84180000  0.20330000  0.41820000  1
  H  H151  1  0.84180000  0.29670000  0.91820000  1
  H  H152  1  0.84290000  0.09670000  0.66450000  1
  H  H153  1  0.84290000  0.40330000  0.16450000  1
  H  H154  1  0.84310000  0.11010000  0.37070000  1
  H  H155  1  0.84310000  0.38990000  0.87070000  1
  H  H156  1  0.89760000  0.23410000  0.56460000  1
  H  H157  1  0.89760000  0.26590000  0.06460000  1
  H  H158  1  0.90310000  0.24550000  0.99380000  1
  H  H159  1  0.90310000  0.25450000  0.49380000  1
  H  H160  1  0.94210000  0.60590000  0.09590000  1
  H  H161  1  0.94210000  0.89410000  0.59590000  1
  H  H162  1  0.95420000  0.13460000  0.59920000  1
  H  H163  1  0.95420000  0.36540000  0.09920000  1
  H  H164  1  0.95790000  0.55590000  0.91840000  1
  H  H165  1  0.95790000  0.94410000  0.41840000  1
  H  H166  1  0.96970000  0.18650000  0.41900000  1
  H  H167  1  0.96970000  0.31350000  0.91900000  1
  C  C168  1  0.01610000  0.65980000  0.04770000  1
  C  C169  1  0.01610000  0.84020000  0.54770000  1
  C  C170  1  0.02550000  0.62920000  0.94080000  1
  C  C171  1  0.02550000  0.87080000  0.44080000  1
  C  C172  1  0.02620000  0.08180000  0.54830000  1
  C  C173  1  0.02620000  0.41820000  0.04830000  1
  C  C174  1  0.03560000  0.11140000  0.44340000  1
  C  C175  1  0.03560000  0.38860000  0.94340000  1
  C  C176  1  0.04760000  0.66880000  0.98840000  1
  C  C177  1  0.04760000  0.83120000  0.48840000  1
  C  C178  1  0.05490000  0.07130000  0.49130000  1
  C  C179  1  0.05490000  0.42870000  0.99130000  1
  C  C180  1  0.10620000  0.71840000  0.97820000  1
  C  C181  1  0.10620000  0.78160000  0.47820000  1
  C  C182  1  0.10710000  0.01790000  0.48110000  1
  C  C183  1  0.10710000  0.48210000  0.98110000  1
  C  C184  1  0.20310000  0.71050000  0.05610000  1
  C  C185  1  0.20310000  0.78950000  0.55610000  1
  C  C186  1  0.20370000  0.58500000  0.13250000  1
  C  C187  1  0.20370000  0.91500000  0.63250000  1
  C  C188  1  0.21070000  0.58450000  0.83590000  1
  C  C189  1  0.21070000  0.91550000  0.33590000  1
  C  C190  1  0.22040000  0.64840000  0.73860000  1
  C  C191  1  0.22040000  0.85160000  0.23860000  1
  C  C192  1  0.22420000  0.64590000  0.23050000  1
  C  C193  1  0.22420000  0.85410000  0.73050000  1
  C  C194  1  0.23400000  0.59110000  0.19590000  1
  C  C195  1  0.23400000  0.90890000  0.69590000  1
  C  C196  1  0.23780000  0.68920000  0.88640000  1
  C  C197  1  0.23780000  0.81080000  0.38640000  1
  C  C198  1  0.23920000  0.71990000  0.94760000  1
  C  C199  1  0.23920000  0.78010000  0.44760000  1
  C  C200  1  0.24200000  0.59580000  0.77340000  1
  C  C201  1  0.24200000  0.90420000  0.27340000  1
  C  C202  1  0.24900000  0.65780000  0.68010000  1
  C  C203  1  0.24900000  0.84220000  0.18010000  1
  C  C204  1  0.25290000  0.65180000  0.28780000  1
  C  C205  1  0.25290000  0.84820000  0.78780000  1
  C  C206  1  0.26780000  0.67270000  0.08180000  1
  C  C207  1  0.26780000  0.82730000  0.58180000  1
  C  C208  1  0.27110000  0.53880000  0.22370000  1
  C  C209  1  0.27110000  0.96120000  0.72370000  1
  C  C210  1  0.28940000  0.55320000  0.74690000  1
  C  C211  1  0.28940000  0.94680000  0.24690000  1
  C  C212  1  0.29300000  0.60320000  0.31600000  1
  C  C213  1  0.29300000  0.89680000  0.81600000  1
  C  C214  1  0.29740000  0.54430000  0.28340000  1
  C  C215  1  0.29740000  0.95570000  0.78340000  1
  C  C216  1  0.29890000  0.61510000  0.65410000  1
  C  C217  1  0.29890000  0.88490000  0.15410000  1
  C  C218  1  0.30140000  0.03630000  0.49050000  1
  C  C219  1  0.30140000  0.46370000  0.99050000  1
  C  C220  1  0.32050000  0.56310000  0.68870000  1
  C  C221  1  0.32050000  0.93690000  0.18870000  1
  C  C222  1  0.32830000  0.57050000  0.08660000  1
  C  C223  1  0.32830000  0.92950000  0.58660000  1
  C  C224  1  0.32850000  0.61090000  0.37990000  1
  C  C225  1  0.32850000  0.88910000  0.87990000  1
  C  C226  1  0.32940000  0.60670000  0.89020000  1
  C  C227  1  0.32940000  0.89330000  0.39020000  1
  C  C228  1  0.33210000  0.62790000  0.59170000  1
  C  C229  1  0.33210000  0.87210000  0.09170000  1
  C  C230  1  0.34930000  0.54200000  0.91410000  1
  C  C231  1  0.34930000  0.95800000  0.41410000  1
  C  C232  1  0.36480000  0.08040000  0.49120000  1
  C  C233  1  0.36480000  0.41960000  0.99120000  1
  C  C234  1  0.36690000  0.56330000  0.02410000  1
  C  C235  1  0.36690000  0.93670000  0.52410000  1
  C  C236  1  0.38090000  0.11600000  0.43980000  1
  C  C237  1  0.38090000  0.38400000  0.93980000  1
  C  C238  1  0.40740000  0.09290000  0.54330000  1
  C  C239  1  0.40740000  0.40710000  0.04330000  1
  C  C240  1  0.43430000  0.16310000  0.43880000  1
  C  C241  1  0.43430000  0.33690000  0.93880000  1
  C  C242  1  0.45950000  0.14040000  0.54450000  1
  C  C243  1  0.45950000  0.35960000  0.04450000  1
  C  C244  1  0.47350000  0.73120000  0.00370000  1
  C  C245  1  0.47350000  0.76880000  0.50370000  1
  C  C246  1  0.47430000  0.17550000  0.49210000  1
  C  C247  1  0.47430000  0.32450000  0.99210000  1
  C  C248  1  0.52570000  0.67550000  0.00790000  1
  C  C249  1  0.52570000  0.82450000  0.50790000  1
  C  C250  1  0.52650000  0.23120000  0.49630000  1
  C  C251  1  0.52650000  0.26880000  0.99630000  1
  C  C252  1  0.54050000  0.64040000  0.95550000  1
  C  C253  1  0.54050000  0.85960000  0.45550000  1
  C  C254  1  0.56570000  0.66310000  0.06120000  1
  C  C255  1  0.56570000  0.83690000  0.56120000  1
  C  C256  1  0.59260000  0.59290000  0.95670000  1
  C  C257  1  0.59260000  0.90710000  0.45670000  1
  C  C258  1  0.61910000  0.61600000  0.06020000  1
  C  C259  1  0.61910000  0.88400000  0.56020000  1
  C  C260  1  0.63310000  0.06330000  0.47590000  1
  C  C261  1  0.63310000  0.43670000  0.97590000  1
  C  C262  1  0.63520000  0.58040000  0.00880000  1
  C  C263  1  0.63520000  0.91960000  0.50880000  1
  C  C264  1  0.65070000  0.04200000  0.58590000  1
  C  C265  1  0.65070000  0.45800000  0.08590000  1
  C  C266  1  0.66790000  0.12790000  0.90830000  1
  C  C267  1  0.66790000  0.37210000  0.40830000  1
  C  C268  1  0.67060000  0.10670000  0.60980000  1
  C  C269  1  0.67060000  0.39330000  0.10980000  1
  C  C270  1  0.67150000  0.11090000  0.12010000  1
  C  C271  1  0.67150000  0.38910000  0.62010000  1
  C  C272  1  0.67170000  0.07050000  0.41340000  1
  C  C273  1  0.67170000  0.42950000  0.91340000  1
  C  C274  1  0.67950000  0.06310000  0.81130000  1
  C  C275  1  0.67950000  0.43690000  0.31130000  1
  C  C276  1  0.69860000  0.53630000  0.00950000  1
  C  C277  1  0.69860000  0.96370000  0.50950000  1
  C  C278  1  0.70110000  0.11510000  0.84590000  1
  C  C279  1  0.70110000  0.38490000  0.34590000  1
  C  C280  1  0.70260000  0.04430000  0.21660000  1
  C  C281  1  0.70260000  0.45570000  0.71660000  1
  C  C282  1  0.70700000  0.10320000  0.18400000  1
  C  C283  1  0.70700000  0.39680000  0.68400000  1
  C  C284  1  0.71060000  0.05320000  0.75310000  1
  C  C285  1  0.71060000  0.44680000  0.25310000  1
  C  C286  1  0.72890000  0.03880000  0.27630000  1
  C  C287  1  0.72890000  0.46120000  0.77630000  1
  C  C288  1  0.73220000  0.17270000  0.41820000  1
  C  C289  1  0.73220000  0.32730000  0.91820000  1
  C  C290  1  0.74710000  0.15180000  0.21220000  1
  C  C291  1  0.74710000  0.34820000  0.71220000  1
  C  C292  1  0.75100000  0.15780000  0.81990000  1
  C  C293  1  0.75100000  0.34220000  0.31990000  1
  C  C294  1  0.75800000  0.09580000  0.72660000  1
  C  C295  1  0.75800000  0.40420000  0.22660000  1
  C  C296  1  0.76080000  0.21990000  0.55240000  1
  C  C297  1  0.76080000  0.28010000  0.05240000  1
  C  C298  1  0.76220000  0.18920000  0.61360000  1
  C  C299  1  0.76220000  0.31080000  0.11360000  1
  C  C300  1  0.76600000  0.09110000  0.30410000  1
  C  C301  1  0.76600000  0.40890000  0.80410000  1
  C  C302  1  0.77580000  0.14590000  0.26950000  1
  C  C303  1  0.77580000  0.35410000  0.76950000  1
  C  C304  1  0.77960000  0.14840000  0.76140000  1
  C  C305  1  0.77960000  0.35160000  0.26140000  1
  C  C306  1  0.78930000  0.08450000  0.66410000  1
  C  C307  1  0.78930000  0.41550000  0.16410000  1
  C  C308  1  0.79630000  0.08500000  0.36750000  1
  C  C309  1  0.79630000  0.41500000  0.86750000  1
  C  C310  1  0.79690000  0.21050000  0.44390000  1
  C  C311  1  0.79690000  0.28950000  0.94390000  1
  C  C312  1  0.89290000  0.51790000  0.01890000  1
  C  C313  1  0.89290000  0.98210000  0.51890000  1
  C  C314  1  0.89380000  0.21840000  0.52180000  1
  C  C315  1  0.89380000  0.28160000  0.02180000  1
  C  C316  1  0.94510000  0.57130000  0.00870000  1
  C  C317  1  0.94510000  0.92870000  0.50870000  1
  C  C318  1  0.95240000  0.16880000  0.51160000  1
  C  C319  1  0.95240000  0.33120000  0.01160000  1
  C  C320  1  0.96440000  0.61140000  0.05660000  1
  C  C321  1  0.96440000  0.88860000  0.55660000  1
  C  C322  1  0.97380000  0.58180000  0.95170000  1
  C  C323  1  0.97380000  0.91820000  0.45170000  1
  C  C324  1  0.97450000  0.12920000  0.55920000  1
  C  C325  1  0.97450000  0.37080000  0.05920000  1
  C  C326  1  0.98390000  0.15980000  0.45230000  1
  C  C327  1  0.98390000  0.34020000  0.95230000  1
  N  N328  1  0.18470000  0.69319000  0.98960000  1
  N  N329  1  0.18470000  0.80681000  0.48960000  1
  N  N330  1  0.24950000  0.61960000  0.88791000  1
  N  N331  1  0.24950000  0.88040000  0.38791000  1
  N  N332  1  0.25610000  0.60630000  0.08337000  1
  N  N333  1  0.25610000  0.89370000  0.58337000  1
  N  N334  1  0.31690000  0.53220000  0.97842000  1
  N  N335  1  0.31690000  0.96780000  0.47842000  1
  N  N336  1  0.68310000  0.03220000  0.52158000  1
  N  N337  1  0.68310000  0.46780000  0.02158000  1
  N  N338  1  0.74390000  0.10630000  0.41663000  1
  N  N339  1  0.74390000  0.39370000  0.91663000  1
  N  N340  1  0.75050000  0.11960000  0.61209000  1
  N  N341  1  0.75050000  0.38040000  0.11209000  1
  N  N342  1  0.81530000  0.19319000  0.51040000  1
  N  N343  1  0.81530000  0.30681000  0.01040000  1
  O  O344  1  0.12470000  0.51488000  0.02874000  1
  O  O345  1  0.12470000  0.98512000  0.52874000  1
  O  O346  1  0.13560000  0.00673000  0.42998000  1
  O  O347  1  0.13560000  0.49327000  0.92998000  1
  O  O348  1  0.31010000  0.67480000  0.56300000  1
  O  O349  1  0.31010000  0.82520000  0.06300000  1
  O  O350  1  0.32840000  0.66370000  0.40062000  1
  O  O351  1  0.32840000  0.83630000  0.90062000  1
  O  O352  1  0.35020000  0.56170000  0.40610000  1
  O  O353  1  0.35020000  0.93830000  0.90610000  1
  O  O354  1  0.38080000  0.59224000  0.57123000  1
  O  O355  1  0.38080000  0.90776000  0.07123000  1
  O  O356  1  0.42640000  0.73310000  0.96640000  1
  O  O357  1  0.42640000  0.76690000  0.46640000  1
  O  O358  1  0.48210000  0.72310000  0.54160000  1
  O  O359  1  0.48210000  0.77690000  0.04160000  1
  O  O360  1  0.51790000  0.22310000  0.95840000  1
  O  O361  1  0.51790000  0.27690000  0.45840000  1
  O  O362  1  0.57360000  0.23310000  0.53360000  1
  O  O363  1  0.57360000  0.26690000  0.03360000  1
  O  O364  1  0.61920000  0.09224000  0.92877000  1
  O  O365  1  0.61920000  0.40776000  0.42877000  1
  O  O366  1  0.64980000  0.06170000  0.09390000  1
  O  O367  1  0.64980000  0.43830000  0.59390000  1
  O  O368  1  0.67160000  0.16370000  0.09938000  1
  O  O369  1  0.67160000  0.33630000  0.59938000  1
  O  O370  1  0.68990000  0.17480000  0.93700000  1
  O  O371  1  0.68990000  0.32520000  0.43700000  1
  O  O372  1  0.86440000  0.50673000  0.07002000  1
  O  O373  1  0.86440000  0.99327000  0.57002000  1
  O  O374  1  0.87530000  0.01488000  0.47126000  1
  O  O375  1  0.87530000  0.48512000  0.97126000  1
