# generated using pymatgen
data_CuH11C17(NO)2
_symmetry_space_group_name_H-M   'P 1'
_cell_length_a   14.98280000
_cell_length_b   16.26900000
_cell_length_c   20.73000000
_cell_angle_alpha   90.00000000
_cell_angle_beta   90.00000000
_cell_angle_gamma   90.00000000
_symmetry_Int_Tables_number   1
_chemical_formula_structural   CuH11C17(NO)2
_chemical_formula_sum   'Cu8 H88 C136 N16 O16'
_cell_volume   5053.04474044
_cell_formula_units_Z   8
loop_
 _symmetry_equiv_pos_site_id
 _symmetry_equiv_pos_as_xyz
  1  'x, y, z'
loop_
 _atom_site_type_symbol
 _atom_site_label
 _atom_site_symmetry_multiplicity
 _atom_site_fract_x
 _atom_site_fract_y
 _atom_site_fract_z
 _atom_site_occupancy
  Cu  Cu0  1  0.53314000  0.10619000  0.56630000  1
  Cu  Cu1  1  0.03314000  0.10619000  0.93370000  1
  Cu  Cu2  1  0.03314000  0.39381000  0.56630000  1
  Cu  Cu3  1  0.53314000  0.39381000  0.93370000  1
  Cu  Cu4  1  0.46686000  0.60619000  0.06630000  1
  Cu  Cu5  1  0.96686000  0.60619000  0.43370000  1
  Cu  Cu6  1  0.96686000  0.89381000  0.06630000  1
  Cu  Cu7  1  0.46686000  0.89381000  0.43370000  1
  H  H8  1  0.30730000  0.03230000  0.67270000  1
  H  H9  1  0.80730000  0.03230000  0.82730000  1
  H  H10  1  0.91060000  0.05770000  0.11190000  1
  H  H11  1  0.41060000  0.05770000  0.38810000  1
  H  H12  1  0.18300000  0.10620000  0.72070000  1
  H  H13  1  0.68300000  0.10620000  0.77930000  1
  H  H14  1  0.85420000  0.11910000  0.20310000  1
  H  H15  1  0.35420000  0.11910000  0.29690000  1
  H  H16  1  0.21770000  0.13320000  0.02840000  1
  H  H17  1  0.71770000  0.13320000  0.47160000  1
  H  H18  1  0.38490000  0.14360000  0.18240000  1
  H  H19  1  0.88490000  0.14360000  0.31760000  1
  H  H20  1  0.34360000  0.15300000  0.54940000  1
  H  H21  1  0.84360000  0.15300000  0.95060000  1
  H  H22  1  0.62270000  0.16150000  0.68650000  1
  H  H23  1  0.12270000  0.16150000  0.81350000  1
  H  H24  1  0.05490000  0.19970000  0.05670000  1
  H  H25  1  0.55490000  0.19970000  0.44330000  1
  H  H26  1  0.47820000  0.20360000  0.11580000  1
  H  H27  1  0.97820000  0.20360000  0.38420000  1
  H  H28  1  0.75780000  0.24210000  0.01140000  1
  H  H29  1  0.25780000  0.24210000  0.48860000  1
  H  H30  1  0.25780000  0.25790000  0.01140000  1
  H  H31  1  0.75780000  0.25790000  0.48860000  1
  H  H32  1  0.97820000  0.29640000  0.11580000  1
  H  H33  1  0.47820000  0.29640000  0.38420000  1
  H  H34  1  0.55490000  0.30030000  0.05670000  1
  H  H35  1  0.05490000  0.30030000  0.44330000  1
  H  H36  1  0.12270000  0.33850000  0.68650000  1
  H  H37  1  0.62270000  0.33850000  0.81350000  1
  H  H38  1  0.84360000  0.34700000  0.54940000  1
  H  H39  1  0.34360000  0.34700000  0.95060000  1
  H  H40  1  0.88490000  0.35640000  0.18240000  1
  H  H41  1  0.38490000  0.35640000  0.31760000  1
  H  H42  1  0.71770000  0.36680000  0.02840000  1
  H  H43  1  0.21770000  0.36680000  0.47160000  1
  H  H44  1  0.35420000  0.38090000  0.20310000  1
  H  H45  1  0.85420000  0.38090000  0.29690000  1
  H  H46  1  0.68300000  0.39380000  0.72070000  1
  H  H47  1  0.18300000  0.39380000  0.77930000  1
  H  H48  1  0.41060000  0.44230000  0.11190000  1
  H  H49  1  0.91060000  0.44230000  0.38810000  1
  H  H50  1  0.80730000  0.46770000  0.67270000  1
  H  H51  1  0.30730000  0.46770000  0.82730000  1
  H  H52  1  0.69270000  0.53230000  0.17270000  1
  H  H53  1  0.19270000  0.53230000  0.32730000  1
  H  H54  1  0.08940000  0.55770000  0.61190000  1
  H  H55  1  0.58940000  0.55770000  0.88810000  1
  H  H56  1  0.81700000  0.60620000  0.22070000  1
  H  H57  1  0.31700000  0.60620000  0.27930000  1
  H  H58  1  0.14580000  0.61910000  0.70310000  1
  H  H59  1  0.64580000  0.61910000  0.79690000  1
  H  H60  1  0.78230000  0.63320000  0.52840000  1
  H  H61  1  0.28230000  0.63320000  0.97160000  1
  H  H62  1  0.61510000  0.64360000  0.68240000  1
  H  H63  1  0.11510000  0.64360000  0.81760000  1
  H  H64  1  0.65640000  0.65300000  0.04940000  1
  H  H65  1  0.15640000  0.65300000  0.45060000  1
  H  H66  1  0.37730000  0.66150000  0.18650000  1
  H  H67  1  0.87730000  0.66150000  0.31350000  1
  H  H68  1  0.94510000  0.69970000  0.55670000  1
  H  H69  1  0.44510000  0.69970000  0.94330000  1
  H  H70  1  0.52180000  0.70360000  0.61580000  1
  H  H71  1  0.02180000  0.70360000  0.88420000  1
  H  H72  1  0.24220000  0.74210000  0.51140000  1
  H  H73  1  0.74220000  0.74210000  0.98860000  1
  H  H74  1  0.74220000  0.75790000  0.51140000  1
  H  H75  1  0.24220000  0.75790000  0.98860000  1
  H  H76  1  0.02180000  0.79640000  0.61580000  1
  H  H77  1  0.52180000  0.79640000  0.88420000  1
  H  H78  1  0.44510000  0.80030000  0.55670000  1
  H  H79  1  0.94510000  0.80030000  0.94330000  1
  H  H80  1  0.87730000  0.83850000  0.18650000  1
  H  H81  1  0.37730000  0.83850000  0.31350000  1
  H  H82  1  0.15640000  0.84700000  0.04940000  1
  H  H83  1  0.65640000  0.84700000  0.45060000  1
  H  H84  1  0.11510000  0.85640000  0.68240000  1
  H  H85  1  0.61510000  0.85640000  0.81760000  1
  H  H86  1  0.28230000  0.86680000  0.52840000  1
  H  H87  1  0.78230000  0.86680000  0.97160000  1
  H  H88  1  0.64580000  0.88090000  0.70310000  1
  H  H89  1  0.14580000  0.88090000  0.79690000  1
  H  H90  1  0.31700000  0.89380000  0.22070000  1
  H  H91  1  0.81700000  0.89380000  0.27930000  1
  H  H92  1  0.58940000  0.94230000  0.61190000  1
  H  H93  1  0.08940000  0.94230000  0.88810000  1
  H  H94  1  0.19270000  0.96770000  0.17270000  1
  H  H95  1  0.69270000  0.96770000  0.32730000  1
  C  C96  1  0.11480000  0.00873000  0.06113000  1
  C  C97  1  0.61480000  0.00873000  0.43887000  1
  C  C98  1  0.32923000  0.01301000  0.24763000  1
  C  C99  1  0.82923000  0.01301000  0.25237000  1
  C  C100  1  0.22235000  0.01383000  0.15454000  1
  C  C101  1  0.72235000  0.01383000  0.34546000  1
  C  C102  1  0.89202000  0.02392000  0.14682000  1
  C  C103  1  0.39202000  0.02392000  0.35318000  1
  C  C104  1  0.19346000  0.04588000  0.09642000  1
  C  C105  1  0.69346000  0.04588000  0.40358000  1
  C  C106  1  0.29505000  0.04894000  0.18673000  1
  C  C107  1  0.79505000  0.04894000  0.31327000  1
  C  C108  1  0.85807000  0.06093000  0.20081000  1
  C  C109  1  0.35807000  0.06093000  0.29919000  1
  C  C110  1  0.66350000  0.07090000  0.74571000  1
  C  C111  1  0.16350000  0.07090000  0.75429000  1
  C  C112  1  0.62770000  0.10347000  0.68997000  1
  C  C113  1  0.12770000  0.10347000  0.81003000  1
  C  C114  1  0.23708000  0.11238000  0.06891000  1
  C  C115  1  0.73708000  0.11238000  0.43109000  1
  C  C116  1  0.33717000  0.11790000  0.15987000  1
  C  C117  1  0.83717000  0.11790000  0.34013000  1
  C  C118  1  0.30973000  0.14918000  0.10044000  1
  C  C119  1  0.80973000  0.14918000  0.39956000  1
  C  C120  1  0.37108000  0.18233000  0.51508000  1
  C  C121  1  0.87108000  0.18233000  0.98492000  1
  C  C122  1  0.99439000  0.21042000  0.04600000  1
  C  C123  1  0.49439000  0.21042000  0.45400000  1
  C  C124  1  0.35965000  0.21676000  0.06841000  1
  C  C125  1  0.85965000  0.21676000  0.43159000  1
  C  C126  1  0.44887000  0.23233000  0.08194000  1
  C  C127  1  0.94887000  0.23233000  0.41806000  1
  C  C128  1  0.81973000  0.23658000  0.02005000  1
  C  C129  1  0.31973000  0.23658000  0.47995000  1
  C  C130  1  0.31973000  0.26342000  0.02005000  1
  C  C131  1  0.81973000  0.26342000  0.47995000  1
  C  C132  1  0.94887000  0.26767000  0.08194000  1
  C  C133  1  0.44887000  0.26767000  0.41806000  1
  C  C134  1  0.85965000  0.28324000  0.06841000  1
  C  C135  1  0.35965000  0.28324000  0.43159000  1
  C  C136  1  0.49439000  0.28958000  0.04600000  1
  C  C137  1  0.99439000  0.28958000  0.45400000  1
  C  C138  1  0.87108000  0.31767000  0.51508000  1
  C  C139  1  0.37108000  0.31767000  0.98492000  1
  C  C140  1  0.80973000  0.35082000  0.10044000  1
  C  C141  1  0.30973000  0.35082000  0.39956000  1
  C  C142  1  0.83717000  0.38210000  0.15987000  1
  C  C143  1  0.33717000  0.38210000  0.34013000  1
  C  C144  1  0.73708000  0.38762000  0.06891000  1
  C  C145  1  0.23708000  0.38762000  0.43109000  1
  C  C146  1  0.12770000  0.39653000  0.68997000  1
  C  C147  1  0.62770000  0.39653000  0.81003000  1
  C  C148  1  0.16350000  0.42910000  0.74571000  1
  C  C149  1  0.66350000  0.42910000  0.75429000  1
  C  C150  1  0.35807000  0.43907000  0.20081000  1
  C  C151  1  0.85807000  0.43907000  0.29919000  1
  C  C152  1  0.79505000  0.45106000  0.18673000  1
  C  C153  1  0.29505000  0.45106000  0.31327000  1
  C  C154  1  0.69346000  0.45412000  0.09642000  1
  C  C155  1  0.19346000  0.45412000  0.40358000  1
  C  C156  1  0.39202000  0.47608000  0.14682000  1
  C  C157  1  0.89202000  0.47608000  0.35318000  1
  C  C158  1  0.72235000  0.48617000  0.15454000  1
  C  C159  1  0.22235000  0.48617000  0.34546000  1
  C  C160  1  0.82923000  0.48699000  0.24763000  1
  C  C161  1  0.32923000  0.48699000  0.25237000  1
  C  C162  1  0.61480000  0.49127000  0.06113000  1
  C  C163  1  0.11480000  0.49127000  0.43887000  1
  C  C164  1  0.88520000  0.50873000  0.56113000  1
  C  C165  1  0.38520000  0.50873000  0.93887000  1
  C  C166  1  0.67077000  0.51301000  0.74763000  1
  C  C167  1  0.17077000  0.51301000  0.75237000  1
  C  C168  1  0.77765000  0.51383000  0.65454000  1
  C  C169  1  0.27765000  0.51383000  0.84546000  1
  C  C170  1  0.10798000  0.52392000  0.64682000  1
  C  C171  1  0.60798000  0.52392000  0.85318000  1
  C  C172  1  0.80654000  0.54588000  0.59642000  1
  C  C173  1  0.30654000  0.54588000  0.90358000  1
  C  C174  1  0.70495000  0.54894000  0.68673000  1
  C  C175  1  0.20495000  0.54894000  0.81327000  1
  C  C176  1  0.14193000  0.56093000  0.70081000  1
  C  C177  1  0.64193000  0.56093000  0.79919000  1
  C  C178  1  0.33650000  0.57090000  0.24571000  1
  C  C179  1  0.83650000  0.57090000  0.25429000  1
  C  C180  1  0.37230000  0.60347000  0.18997000  1
  C  C181  1  0.87230000  0.60347000  0.31003000  1
  C  C182  1  0.76292000  0.61238000  0.56891000  1
  C  C183  1  0.26292000  0.61238000  0.93109000  1
  C  C184  1  0.66283000  0.61790000  0.65987000  1
  C  C185  1  0.16283000  0.61790000  0.84013000  1
  C  C186  1  0.69027000  0.64918000  0.60044000  1
  C  C187  1  0.19027000  0.64918000  0.89956000  1
  C  C188  1  0.62892000  0.68233000  0.01508000  1
  C  C189  1  0.12892000  0.68233000  0.48492000  1
  C  C190  1  0.00561000  0.71042000  0.54600000  1
  C  C191  1  0.50561000  0.71042000  0.95400000  1
  C  C192  1  0.64035000  0.71676000  0.56841000  1
  C  C193  1  0.14035000  0.71676000  0.93159000  1
  C  C194  1  0.55113000  0.73233000  0.58194000  1
  C  C195  1  0.05113000  0.73233000  0.91806000  1
  C  C196  1  0.18027000  0.73658000  0.52005000  1
  C  C197  1  0.68027000  0.73658000  0.97995000  1
  C  C198  1  0.68027000  0.76342000  0.52005000  1
  C  C199  1  0.18027000  0.76342000  0.97995000  1
  C  C200  1  0.05113000  0.76767000  0.58194000  1
  C  C201  1  0.55113000  0.76767000  0.91806000  1
  C  C202  1  0.14035000  0.78324000  0.56841000  1
  C  C203  1  0.64035000  0.78324000  0.93159000  1
  C  C204  1  0.50561000  0.78958000  0.54600000  1
  C  C205  1  0.00561000  0.78958000  0.95400000  1
  C  C206  1  0.12892000  0.81767000  0.01508000  1
  C  C207  1  0.62892000  0.81767000  0.48492000  1
  C  C208  1  0.19027000  0.85082000  0.60044000  1
  C  C209  1  0.69027000  0.85082000  0.89956000  1
  C  C210  1  0.16283000  0.88210000  0.65987000  1
  C  C211  1  0.66283000  0.88210000  0.84013000  1
  C  C212  1  0.26292000  0.88762000  0.56891000  1
  C  C213  1  0.76292000  0.88762000  0.93109000  1
  C  C214  1  0.87230000  0.89653000  0.18997000  1
  C  C215  1  0.37230000  0.89653000  0.31003000  1
  C  C216  1  0.83650000  0.92910000  0.24571000  1
  C  C217  1  0.33650000  0.92910000  0.25429000  1
  C  C218  1  0.64193000  0.93907000  0.70081000  1
  C  C219  1  0.14193000  0.93907000  0.79919000  1
  C  C220  1  0.20495000  0.95106000  0.68673000  1
  C  C221  1  0.70495000  0.95106000  0.81327000  1
  C  C222  1  0.30654000  0.95412000  0.59642000  1
  C  C223  1  0.80654000  0.95412000  0.90358000  1
  C  C224  1  0.60798000  0.97608000  0.64682000  1
  C  C225  1  0.10798000  0.97608000  0.85318000  1
  C  C226  1  0.27765000  0.98617000  0.65454000  1
  C  C227  1  0.77765000  0.98617000  0.84546000  1
  C  C228  1  0.17077000  0.98699000  0.74763000  1
  C  C229  1  0.67077000  0.98699000  0.75237000  1
  C  C230  1  0.38520000  0.99127000  0.56113000  1
  C  C231  1  0.88520000  0.99127000  0.93887000  1
  N  N232  1  0.59981000  0.05753000  0.64097000  1
  N  N233  1  0.09981000  0.05753000  0.85903000  1
  N  N234  1  0.45802000  0.16882000  0.50331000  1
  N  N235  1  0.95802000  0.16882000  0.99669000  1
  N  N236  1  0.95802000  0.33118000  0.50331000  1
  N  N237  1  0.45802000  0.33118000  0.99669000  1
  N  N238  1  0.09981000  0.44247000  0.64097000  1
  N  N239  1  0.59981000  0.44247000  0.85903000  1
  N  N240  1  0.40019000  0.55753000  0.14097000  1
  N  N241  1  0.90019000  0.55753000  0.35903000  1
  N  N242  1  0.54198000  0.66882000  0.00331000  1
  N  N243  1  0.04198000  0.66882000  0.49669000  1
  N  N244  1  0.04198000  0.83118000  0.00331000  1
  N  N245  1  0.54198000  0.83118000  0.49669000  1
  N  N246  1  0.90019000  0.94247000  0.14097000  1
  N  N247  1  0.40019000  0.94247000  0.35903000  1
  O  O248  1  0.10255000  0.02698000  0.00398000  1
  O  O249  1  0.60255000  0.02698000  0.49602000  1
  O  O250  1  0.43177000  0.04069000  0.59486000  1
  O  O251  1  0.93177000  0.04069000  0.90514000  1
  O  O252  1  0.93177000  0.45931000  0.59486000  1
  O  O253  1  0.43177000  0.45931000  0.90514000  1
  O  O254  1  0.60255000  0.47302000  0.00398000  1
  O  O255  1  0.10255000  0.47302000  0.49602000  1
  O  O256  1  0.89745000  0.52698000  0.50398000  1
  O  O257  1  0.39745000  0.52698000  0.99602000  1
  O  O258  1  0.56823000  0.54069000  0.09486000  1
  O  O259  1  0.06823000  0.54069000  0.40514000  1
  O  O260  1  0.06823000  0.95931000  0.09486000  1
  O  O261  1  0.56823000  0.95931000  0.40514000  1
  O  O262  1  0.39745000  0.97302000  0.50398000  1
  O  O263  1  0.89745000  0.97302000  0.99602000  1
