# generated using pymatgen
data_FePO4
_symmetry_space_group_name_H-M   'P 1'
_cell_length_a   8.73253417
_cell_length_b   8.73253417
_cell_length_c   8.73253417
_cell_angle_alpha   107.76958337
_cell_angle_beta   107.76958337
_cell_angle_gamma   112.93088107
_symmetry_Int_Tables_number   1
_chemical_formula_structural   FePO4
_chemical_formula_sum   'Fe4 P4 O16'
_cell_volume   511.21321266
_cell_formula_units_Z   4
loop_
 _symmetry_equiv_pos_site_id
 _symmetry_equiv_pos_as_xyz
  1  'x, y, z'
loop_
 _atom_site_type_symbol
 _atom_site_label
 _atom_site_symmetry_multiplicity
 _atom_site_fract_x
 _atom_site_fract_y
 _atom_site_fract_z
 _atom_site_occupancy
  Fe  Fe0  1  0.00091000  0.73465000  0.00000000  1
  Fe  Fe1  1  0.26535000  0.26535000  0.26626000  1
  Fe  Fe2  1  0.73465000  0.00091000  0.00000000  1
  Fe  Fe3  1  0.99909000  0.99909000  0.73374000  1
  O  O4  1  0.24280000  0.02440000  0.82760000  1
  O  O5  1  0.80320000  0.97560000  0.21840000  1
  O  O6  1  0.41520000  0.19680000  0.17240000  1
  O  O7  1  0.97560000  0.80320000  0.21840000  1
  O  O8  1  0.24920000  0.84760000  0.00000000  1
  O  O9  1  0.15240000  0.15240000  0.40160000  1
  O  O10  1  0.53400000  0.04640000  0.00000000  1
  O  O11  1  0.95360000  0.95360000  0.48760000  1
  O  O12  1  0.04640000  0.53400000  0.00000000  1
  O  O13  1  0.46600000  0.46600000  0.51240000  1
  O  O14  1  0.84760000  0.24920000  0.00000000  1
  O  O15  1  0.75080000  0.75080000  0.59840000  1
  O  O16  1  0.02440000  0.24280000  0.82760000  1
  O  O17  1  0.58480000  0.75720000  0.78160000  1
  O  O18  1  0.19680000  0.41520000  0.17240000  1
  O  O19  1  0.75720000  0.58480000  0.78160000  1
  P  P20  1  0.35659000  0.02921000  0.00000000  1
  P  P21  1  0.97079000  0.97079000  0.32738000  1
  P  P22  1  0.02921000  0.35659000  0.00000000  1
  P  P23  1  0.64341000  0.64341000  0.67262000  1
