# generated using pymatgen
data_ZnH3(CO2)3
_symmetry_space_group_name_H-M   'P 1'
_cell_length_a   8.34930000
_cell_length_b   8.90890000
_cell_length_c   11.72760000
_cell_angle_alpha   90.00000000
_cell_angle_beta   90.00000000
_cell_angle_gamma   90.00000000
_symmetry_Int_Tables_number   1
_chemical_formula_structural   ZnH3(CO2)3
_chemical_formula_sum   'Zn4 H12 C12 O24'
_cell_volume   872.33499458
_cell_formula_units_Z   4
loop_
 _symmetry_equiv_pos_site_id
 _symmetry_equiv_pos_as_xyz
  1  'x, y, z'
loop_
 _atom_site_type_symbol
 _atom_site_label
 _atom_site_symmetry_multiplicity
 _atom_site_fract_x
 _atom_site_fract_y
 _atom_site_fract_z
 _atom_site_occupancy
  Zn  Zn0  1  0.75565000  0.75000000  0.25000000  1
  Zn  Zn1  1  0.74435000  0.75000000  0.75000000  1
  Zn  Zn2  1  0.25565000  0.25000000  0.25000000  1
  Zn  Zn3  1  0.24435000  0.25000000  0.75000000  1
  H  H4  1  0.91670000  0.06330000  0.77780000  1
  H  H5  1  0.91670000  0.43670000  0.72220000  1
  H  H6  1  0.75000000  0.69750000  0.00000000  1
  H  H7  1  0.75000000  0.80250000  0.50000000  1
  H  H8  1  0.58330000  0.43670000  0.27780000  1
  H  H9  1  0.58330000  0.06330000  0.22220000  1
  H  H10  1  0.41670000  0.93670000  0.77780000  1
  H  H11  1  0.41670000  0.56330000  0.72220000  1
  H  H12  1  0.25000000  0.30250000  0.00000000  1
  H  H13  1  0.25000000  0.19750000  0.50000000  1
  H  H14  1  0.08330000  0.56330000  0.27780000  1
  H  H15  1  0.08330000  0.93670000  0.22220000  1
  C  C16  1  0.97740000  0.48390000  0.77822000  1
  C  C17  1  0.97740000  0.01610000  0.72178000  1
  C  C18  1  0.75000000  0.80190000  0.00000000  1
  C  C19  1  0.75000000  0.69810000  0.50000000  1
  C  C20  1  0.52260000  0.01610000  0.27822000  1
  C  C21  1  0.52260000  0.48390000  0.22178000  1
  C  C22  1  0.47740000  0.51610000  0.77822000  1
  C  C23  1  0.47740000  0.98390000  0.72178000  1
  C  C24  1  0.25000000  0.19810000  0.00000000  1
  C  C25  1  0.25000000  0.30190000  0.50000000  1
  C  C26  1  0.02260000  0.98390000  0.27822000  1
  C  C27  1  0.02260000  0.51610000  0.22178000  1
  O  O28  1  0.93621000  0.61254000  0.80766000  1
  O  O29  1  0.93621000  0.88746000  0.69234000  1
  O  O30  1  0.90672000  0.91359000  0.31791000  1
  O  O31  1  0.90672000  0.58641000  0.18209000  1
  O  O32  1  0.75761000  0.63549000  0.40584000  1
  O  O33  1  0.75761000  0.86451000  0.09416000  1
  O  O34  1  0.74239000  0.86451000  0.90584000  1
  O  O35  1  0.74239000  0.63549000  0.59416000  1
  O  O36  1  0.59328000  0.58641000  0.81791000  1
  O  O37  1  0.59328000  0.91359000  0.68209000  1
  O  O38  1  0.56379000  0.88746000  0.30766000  1
  O  O39  1  0.56379000  0.61254000  0.19234000  1
  O  O40  1  0.43621000  0.38746000  0.80766000  1
  O  O41  1  0.43621000  0.11254000  0.69234000  1
  O  O42  1  0.40672000  0.08641000  0.31791000  1
  O  O43  1  0.40672000  0.41359000  0.18209000  1
  O  O44  1  0.25761000  0.36451000  0.40584000  1
  O  O45  1  0.25761000  0.13549000  0.09416000  1
  O  O46  1  0.24239000  0.13549000  0.90584000  1
  O  O47  1  0.24239000  0.36451000  0.59416000  1
  O  O48  1  0.09328000  0.41359000  0.81791000  1
  O  O49  1  0.09328000  0.08641000  0.68209000  1
  O  O50  1  0.06379000  0.11254000  0.30766000  1
  O  O51  1  0.06379000  0.38746000  0.19234000  1
