# generated using pymatgen
data_Zn3H34(C22O5)2
_symmetry_space_group_name_H-M   'P 1'
_cell_length_a   5.96600000
_cell_length_b   19.01320000
_cell_length_c   19.01320000
_cell_angle_alpha   78.67300000
_cell_angle_beta   82.24850000
_cell_angle_gamma   82.24850000
_symmetry_Int_Tables_number   1
_chemical_formula_structural   Zn3H34(C22O5)2
_chemical_formula_sum   'Zn3 H34 C44 O10'
_cell_volume   2082.30834175
_cell_formula_units_Z   1
loop_
 _symmetry_equiv_pos_site_id
 _symmetry_equiv_pos_as_xyz
  1  'x, y, z'
loop_
 _atom_site_type_symbol
 _atom_site_label
 _atom_site_symmetry_multiplicity
 _atom_site_fract_x
 _atom_site_fract_y
 _atom_site_fract_z
 _atom_site_occupancy
  Zn  Zn0  1  0.00000000  0.06012000  0.93988000  1
  Zn  Zn1  1  0.50000000  0.00000000  1.00000000  1
  Zn  Zn2  1  0.00000000  0.93988000  0.06012000  1
  H  H3  1  0.98880000  0.97090000  0.69590000  1
  H  H4  1  0.98880000  0.69590000  0.97090000  1
  H  H5  1  0.95120000  0.91200000  0.43900000  1
  H  H6  1  0.95120000  0.43900000  0.91200000  1
  H  H7  1  0.83730000  0.91805000  0.98223000  1
  H  H8  1  0.80960000  0.99240000  0.80520000  1
  H  H9  1  0.80960000  0.80520000  0.99240000  1
  H  H10  1  0.75230000  0.92810000  0.28730000  1
  H  H11  1  0.75230000  0.28730000  0.92810000  1
  H  H12  1  0.65460000  0.86920000  0.52120000  1
  H  H13  1  0.65460000  0.52120000  0.86920000  1
  H  H14  1  0.64310000  0.88060000  0.60280000  1
  H  H15  1  0.64310000  0.60280000  0.88060000  1
  H  H16  1  0.55280000  0.94170000  0.39690000  1
  H  H17  1  0.55280000  0.39690000  0.94170000  1
  H  H18  1  0.50220000  0.45290000  0.06350000  1
  H  H19  1  0.50220000  0.06350000  0.45290000  1
  H  H20  1  0.49780000  0.93650000  0.54710000  1
  H  H21  1  0.49780000  0.54710000  0.93650000  1
  H  H22  1  0.44720000  0.60310000  0.05830000  1
  H  H23  1  0.44720000  0.05830000  0.60310000  1
  H  H24  1  0.35690000  0.39720000  0.11940000  1
  H  H25  1  0.35690000  0.11940000  0.39720000  1
  H  H26  1  0.34540000  0.47880000  0.13080000  1
  H  H27  1  0.34540000  0.13080000  0.47880000  1
  H  H28  1  0.24770000  0.71270000  0.07190000  1
  H  H29  1  0.24770000  0.07190000  0.71270000  1
  H  H30  1  0.19040000  0.19480000  0.00760000  1
  H  H31  1  0.19040000  0.00760000  0.19480000  1
  H  H32  1  0.16270000  0.08195000  0.01777000  1
  H  H33  1  0.04880000  0.56100000  0.08800000  1
  H  H34  1  0.04880000  0.08800000  0.56100000  1
  H  H35  1  0.01120000  0.30410000  0.02910000  1
  H  H36  1  0.01120000  0.02910000  0.30410000  1
  C  C37  1  0.97390000  0.94850000  0.46410000  1
  C  C38  1  0.97390000  0.46410000  0.94850000  1
  C  C39  1  0.87440000  0.56630000  0.00670000  1
  C  C40  1  0.87440000  0.00670000  0.56630000  1
  C  C41  1  0.84510000  0.95160000  0.53060000  1
  C  C42  1  0.84510000  0.53060000  0.95160000  1
  C  C43  1  0.83680000  0.99370000  0.69830000  1
  C  C44  1  0.83680000  0.69830000  0.99370000  1
  C  C45  1  0.74170000  0.63740000  0.01440000  1
  C  C46  1  0.74170000  0.01440000  0.63740000  1
  C  C47  1  0.72790000  0.76420000  0.00340000  1
  C  C48  1  0.72790000  0.00340000  0.76420000  1
  C  C49  1  0.64110000  0.90520000  0.55240000  1
  C  C50  1  0.64110000  0.55240000  0.90520000  1
  C  C51  1  0.62620000  0.96560000  0.15700000  1
  C  C52  1  0.62620000  0.15700000  0.96560000  1
  C  C53  1  0.59840000  0.94910000  0.28910000  1
  C  C54  1  0.59840000  0.28910000  0.94910000  1
  C  C55  1  0.52290000  0.64530000  0.04290000  1
  C  C56  1  0.52290000  0.04290000  0.64530000  1
  C  C57  1  0.50070000  0.97070000  0.22850000  1
  C  C58  1  0.50070000  0.22850000  0.97070000  1
  C  C59  1  0.49930000  0.77150000  0.02930000  1
  C  C60  1  0.49930000  0.02930000  0.77150000  1
  C  C61  1  0.47710000  0.95710000  0.35470000  1
  C  C62  1  0.47710000  0.35470000  0.95710000  1
  C  C63  1  0.40160000  0.71090000  0.05090000  1
  C  C64  1  0.40160000  0.05090000  0.71090000  1
  C  C65  1  0.37380000  0.84300000  0.03440000  1
  C  C66  1  0.37380000  0.03440000  0.84300000  1
  C  C67  1  0.35890000  0.44760000  0.09480000  1
  C  C68  1  0.35890000  0.09480000  0.44760000  1
  C  C69  1  0.27210000  0.99660000  0.23580000  1
  C  C70  1  0.27210000  0.23580000  0.99660000  1
  C  C71  1  0.25830000  0.98560000  0.36260000  1
  C  C72  1  0.25830000  0.36260000  0.98560000  1
  C  C73  1  0.16320000  0.30170000  0.00630000  1
  C  C74  1  0.16320000  0.00630000  0.30170000  1
  C  C75  1  0.15490000  0.46940000  0.04840000  1
  C  C76  1  0.15490000  0.04840000  0.46940000  1
  C  C77  1  0.12560000  0.99330000  0.43370000  1
  C  C78  1  0.12560000  0.43370000  0.99330000  1
  C  C79  1  0.02610000  0.53590000  0.05150000  1
  C  C80  1  0.02610000  0.05150000  0.53590000  1
  O  O81  1  0.83730000  0.97169000  0.97169000  1
  O  O82  1  0.82670000  0.93960000  0.15352000  1
  O  O83  1  0.82670000  0.15352000  0.93960000  1
  O  O84  1  0.54030000  0.98700000  0.10380000  1
  O  O85  1  0.54030000  0.10380000  0.98700000  1
  O  O86  1  0.45970000  0.89620000  0.01300000  1
  O  O87  1  0.45970000  0.01300000  0.89620000  1
  O  O88  1  0.17330000  0.84648000  0.06040000  1
  O  O89  1  0.17330000  0.06040000  0.84648000  1
  O  O90  1  0.16270000  0.02831000  0.02831000  1
