# generated using pymatgen
data_CaH3C7NO4
_symmetry_space_group_name_H-M   'P 1'
_cell_length_a   12.05010000
_cell_length_b   13.96380000
_cell_length_c   14.70730000
_cell_angle_alpha   98.25700000
_cell_angle_beta   111.86300000
_cell_angle_gamma   107.78500000
_symmetry_Int_Tables_number   1
_chemical_formula_structural   CaH3C7NO4
_chemical_formula_sum   'Ca6 H18 C42 N6 O24'
_cell_volume   2092.18210465
_cell_formula_units_Z   6
loop_
 _symmetry_equiv_pos_site_id
 _symmetry_equiv_pos_as_xyz
  1  'x, y, z'
loop_
 _atom_site_type_symbol
 _atom_site_label
 _atom_site_symmetry_multiplicity
 _atom_site_fract_x
 _atom_site_fract_y
 _atom_site_fract_z
 _atom_site_occupancy
  Ca  Ca0  1  0.00000000  0.00000000  0.50000000  1
  Ca  Ca1  1  0.29920000  0.41956000  0.42279000  1
  Ca  Ca2  1  0.46179000  0.93829000  0.13771000  1
  Ca  Ca3  1  0.53821000  0.06171000  0.86229000  1
  Ca  Ca4  1  0.70080000  0.58044000  0.57721000  1
  Ca  Ca5  1  0.00000000  0.50000000  0.00000000  1
  H  H6  1  0.03650000  0.20640000  0.37940000  1
  H  H7  1  0.06660000  0.35050000  0.17680000  1
  H  H8  1  0.25390000  0.90450000  0.90430000  1
  H  H9  1  0.30150000  0.70670000  0.15230000  1
  H  H10  1  0.31120000  0.65490000  0.88390000  1
  H  H11  1  0.32460000  0.13310000  0.69140000  1
  H  H12  1  0.33850000  0.49380000  0.66100000  1
  H  H13  1  0.42770000  0.20230000  0.20890000  1
  H  H14  1  0.49050000  0.39660000  0.63340000  1
  H  H15  1  0.50950000  0.60340000  0.36660000  1
  H  H16  1  0.57230000  0.79770000  0.79110000  1
  H  H17  1  0.66150000  0.50620000  0.33900000  1
  H  H18  1  0.67540000  0.86690000  0.30860000  1
  H  H19  1  0.68880000  0.34510000  0.11610000  1
  H  H20  1  0.69850000  0.29330000  0.84770000  1
  H  H21  1  0.74610000  0.09550000  0.09570000  1
  H  H22  1  0.93340000  0.64950000  0.82320000  1
  H  H23  1  0.96350000  0.79360000  0.62060000  1
  C  C24  1  0.00130000  0.21186000  0.31329000  1
  C  C25  1  0.01930000  0.29582000  0.19382000  1
  C  C26  1  0.10150000  0.77480000  0.88160000  1
  C  C27  1  0.12223000  0.86161000  0.75603000  1
  C  C28  1  0.15000000  0.76130000  0.98811000  1
  C  C29  1  0.17290000  0.85530000  0.85559000  1
  C  C30  1  0.19680000  0.94164000  0.71908000  1
  C  C31  1  0.25540000  0.24434000  0.56576000  1
  C  C32  1  0.26270000  0.55182000  0.23577000  1
  C  C33  1  0.35050000  0.65170000  0.84040000  1
  C  C34  1  0.36640000  0.55710000  0.70970000  1
  C  C35  1  0.38110000  0.71512000  0.20325000  1
  C  C36  1  0.38520000  0.26240000  0.64923000  1
  C  C37  1  0.38530000  0.64082000  0.25606000  1
  C  C38  1  0.39850000  0.19077000  0.70498000  1
  C  C39  1  0.44820000  0.74227000  0.85135000  1
  C  C40  1  0.46580000  0.64348000  0.71430000  1
  C  C41  1  0.46870000  0.36661000  0.35332000  1
  C  C42  1  0.49230000  0.84198000  0.93334000  1
  C  C43  1  0.49330000  0.26199000  0.21366000  1
  C  C44  1  0.49590000  0.34747000  0.66958000  1
  C  C45  1  0.50410000  0.65253000  0.33042000  1
  C  C46  1  0.50670000  0.73801000  0.78634000  1
  C  C47  1  0.50770000  0.15802000  0.06666000  1
  C  C48  1  0.53130000  0.63339000  0.64668000  1
  C  C49  1  0.53420000  0.35652000  0.28570000  1
  C  C50  1  0.55180000  0.25773000  0.14865000  1
  C  C51  1  0.60150000  0.80923000  0.29502000  1
  C  C52  1  0.61470000  0.35918000  0.74394000  1
  C  C53  1  0.61480000  0.73760000  0.35077000  1
  C  C54  1  0.61890000  0.28488000  0.79675000  1
  C  C55  1  0.63360000  0.44290000  0.29030000  1
  C  C56  1  0.64950000  0.34830000  0.15960000  1
  C  C57  1  0.73730000  0.44818000  0.76423000  1
  C  C58  1  0.74460000  0.75566000  0.43424000  1
  C  C59  1  0.80320000  0.05836000  0.28092000  1
  C  C60  1  0.82710000  0.14470000  0.14441000  1
  C  C61  1  0.85000000  0.23870000  0.01189000  1
  C  C62  1  0.87777000  0.13839000  0.24397000  1
  C  C63  1  0.89850000  0.22520000  0.11840000  1
  C  C64  1  0.98070000  0.70418000  0.80618000  1
  C  C65  1  0.99870000  0.78814000  0.68671000  1
  N  N66  1  0.07174000  0.28987000  0.28969000  1
  N  N67  1  0.30860000  0.55969000  0.77130000  1
  N  N68  1  0.48709000  0.79884000  0.22257000  1
  N  N69  1  0.51291000  0.20116000  0.77743000  1
  N  N70  1  0.69140000  0.44031000  0.22870000  1
  N  N71  1  0.92826000  0.71013000  0.71031000  1
  O  O72  1  0.09383000  0.67493000  0.99774000  1
  O  O73  1  0.13578000  0.95615000  0.63620000  1
  O  O74  1  0.15985000  0.53943000  0.16311000  1
  O  O75  1  0.15996000  0.16496000  0.54918000  1
  O  O76  1  0.24180000  0.83813000  0.05908000  1
  O  O77  1  0.25240000  0.31158000  0.51834000  1
  O  O78  1  0.27315000  0.49686000  0.29543000  1
  O  O79  1  0.31640000  0.98678000  0.77356000  1
  O  O80  1  0.35960000  0.29861000  0.32908000  1
  O  O81  1  0.44170000  0.07409000  0.07407000  1
  O  O82  1  0.45970000  0.83200000  0.00358000  1
  O  O83  1  0.47615000  0.55388000  0.56963000  1
  O  O84  1  0.52385000  0.44612000  0.43037000  1
  O  O85  1  0.54030000  0.16800000  0.99642000  1
  O  O86  1  0.55830000  0.92591000  0.92593000  1
  O  O87  1  0.64040000  0.70139000  0.67092000  1
  O  O88  1  0.68360000  0.01322000  0.22644000  1
  O  O89  1  0.72685000  0.50314000  0.70457000  1
  O  O90  1  0.74760000  0.68842000  0.48166000  1
  O  O91  1  0.75820000  0.16187000  0.94092000  1
  O  O92  1  0.84004000  0.83504000  0.45082000  1
  O  O93  1  0.84015000  0.46057000  0.83689000  1
  O  O94  1  0.86422000  0.04385000  0.36380000  1
  O  O95  1  0.90617000  0.32507000  0.00226000  1
