# generated using pymatgen
data_ZnH8C13N5O4
_symmetry_space_group_name_H-M   'P 1'
_cell_length_a   10.02500000
_cell_length_b   10.37000000
_cell_length_c   19.57500000
_cell_angle_alpha   92.13000000
_cell_angle_beta   90.00000000
_cell_angle_gamma   90.00000000
_symmetry_Int_Tables_number   1
_chemical_formula_structural   ZnH8C13N5O4
_chemical_formula_sum   'Zn4 H32 C52 N20 O16'
_cell_volume   2033.59627499
_cell_formula_units_Z   4
loop_
 _symmetry_equiv_pos_site_id
 _symmetry_equiv_pos_as_xyz
  1  'x, y, z'
loop_
 _atom_site_type_symbol
 _atom_site_label
 _atom_site_symmetry_multiplicity
 _atom_site_fract_x
 _atom_site_fract_y
 _atom_site_fract_z
 _atom_site_occupancy
  Zn  Zn0  1  0.75801000  0.99133000  0.84104000  1
  Zn  Zn1  1  0.74199000  0.99133000  0.34104000  1
  Zn  Zn2  1  0.25801000  0.00867000  0.65896000  1
  Zn  Zn3  1  0.24199000  0.00867000  0.15896000  1
  H  H4  1  0.48083000  0.82966000  0.52936000  1
  H  H5  1  0.01917000  0.82966000  0.02936000  1
  H  H6  1  0.96743000  0.81918000  0.46462000  1
  H  H7  1  0.53257000  0.81918000  0.96462000  1
  H  H8  1  0.41621000  0.80147000  0.23151000  1
  H  H9  1  0.08379000  0.80147000  0.73151000  1
  H  H10  1  0.95642000  0.79824000  0.77059000  1
  H  H11  1  0.54358000  0.79824000  0.27059000  1
  H  H12  1  0.39160000  0.66259000  0.59064000  1
  H  H13  1  0.10840000  0.66259000  0.09064000  1
  H  H14  1  0.90166000  0.64126000  0.40177000  1
  H  H15  1  0.59834000  0.64126000  0.90177000  1
  H  H16  1  0.36743000  0.60068000  0.10541000  1
  H  H17  1  0.13257000  0.60068000  0.60541000  1
  H  H18  1  0.86175000  0.57104000  0.89273000  1
  H  H19  1  0.63825000  0.57104000  0.39273000  1
  H  H20  1  0.36175000  0.42896000  0.60727000  1
  H  H21  1  0.13825000  0.42896000  0.10727000  1
  H  H22  1  0.86743000  0.39932000  0.39459000  1
  H  H23  1  0.63257000  0.39932000  0.89459000  1
  H  H24  1  0.40166000  0.35874000  0.09823000  1
  H  H25  1  0.09834000  0.35874000  0.59823000  1
  H  H26  1  0.89160000  0.33741000  0.90936000  1
  H  H27  1  0.60840000  0.33741000  0.40936000  1
  H  H28  1  0.45642000  0.20176000  0.72941000  1
  H  H29  1  0.04358000  0.20176000  0.22941000  1
  H  H30  1  0.91621000  0.19853000  0.26849000  1
  H  H31  1  0.58379000  0.19853000  0.76849000  1
  H  H32  1  0.46743000  0.18082000  0.03538000  1
  H  H33  1  0.03257000  0.18082000  0.53538000  1
  H  H34  1  0.98083000  0.17034000  0.97064000  1
  H  H35  1  0.51917000  0.17034000  0.47064000  1
  C  C36  1  0.48600000  0.97250000  0.25320000  1
  C  C37  1  0.01400000  0.97250000  0.75320000  1
  C  C38  1  0.38860000  0.84500000  0.07810000  1
  C  C39  1  0.11140000  0.84500000  0.57810000  1
  C  C40  1  0.86630000  0.82300000  0.91940000  1
  C  C41  1  0.63370000  0.82300000  0.41940000  1
  C  C42  1  0.49470000  0.74420000  0.51500000  1
  C  C43  1  0.00530000  0.74420000  0.01500000  1
  C  C44  1  0.98720000  0.73750000  0.47980000  1
  C  C45  1  0.51280000  0.73750000  0.97980000  1
  C  C46  1  0.43870000  0.72520000  0.04050000  1
  C  C47  1  0.06130000  0.72520000  0.54050000  1
  C  C48  1  0.92990000  0.71440000  0.95630000  1
  C  C49  1  0.57010000  0.71440000  0.45630000  1
  C  C50  1  0.44120000  0.64430000  0.55130000  1
  C  C51  1  0.05880000  0.64430000  0.05130000  1
  C  C52  1  0.94440000  0.63160000  0.44340000  1
  C  C53  1  0.55560000  0.63160000  0.94340000  1
  C  C54  1  0.41600000  0.60740000  0.06520000  1
  C  C55  1  0.08400000  0.60740000  0.56520000  1
  C  C56  1  0.90920000  0.58820000  0.93290000  1
  C  C57  1  0.59080000  0.58820000  0.43290000  1
  C  C58  1  0.46180000  0.51560000  0.52890000  1
  C  C59  1  0.03820000  0.51560000  0.02890000  1
  C  C60  1  0.96430000  0.50580000  0.46840000  1
  C  C61  1  0.53570000  0.50580000  0.96840000  1
  C  C62  1  0.46430000  0.49420000  0.03160000  1
  C  C63  1  0.03570000  0.49420000  0.53160000  1
  C  C64  1  0.96180000  0.48440000  0.97110000  1
  C  C65  1  0.53820000  0.48440000  0.47110000  1
  C  C66  1  0.40920000  0.41180000  0.56710000  1
  C  C67  1  0.09080000  0.41180000  0.06710000  1
  C  C68  1  0.91600000  0.39260000  0.43480000  1
  C  C69  1  0.58400000  0.39260000  0.93480000  1
  C  C70  1  0.44440000  0.36840000  0.05660000  1
  C  C71  1  0.05560000  0.36840000  0.55660000  1
  C  C72  1  0.94120000  0.35570000  0.94870000  1
  C  C73  1  0.55880000  0.35570000  0.44870000  1
  C  C74  1  0.42990000  0.28560000  0.54370000  1
  C  C75  1  0.07010000  0.28560000  0.04370000  1
  C  C76  1  0.93870000  0.27480000  0.45950000  1
  C  C77  1  0.56130000  0.27480000  0.95950000  1
  C  C78  1  0.48720000  0.26250000  0.02020000  1
  C  C79  1  0.01280000  0.26250000  0.52020000  1
  C  C80  1  0.99470000  0.25580000  0.98500000  1
  C  C81  1  0.50530000  0.25580000  0.48500000  1
  C  C82  1  0.36630000  0.17700000  0.58060000  1
  C  C83  1  0.13370000  0.17700000  0.08060000  1
  C  C84  1  0.88860000  0.15500000  0.42190000  1
  C  C85  1  0.61140000  0.15500000  0.92190000  1
  C  C86  1  0.98600000  0.02750000  0.24680000  1
  C  C87  1  0.51400000  0.02750000  0.74680000  1
  N  N88  1  0.41830000  0.96030000  0.71730000  1
  N  N89  1  0.08170000  0.96030000  0.21730000  1
  N  N90  1  0.89970000  0.95160000  0.27830000  1
  N  N91  1  0.60030000  0.95160000  0.77830000  1
  N  N92  1  0.48140000  0.84130000  0.25160000  1
  N  N93  1  0.01860000  0.84130000  0.75160000  1
  N  N94  1  0.44830000  0.83180000  0.72880000  1
  N  N95  1  0.05170000  0.83180000  0.22880000  1
  N  N96  1  0.94510000  0.82900000  0.26610000  1
  N  N97  1  0.55490000  0.82900000  0.76610000  1
  N  N98  1  0.44510000  0.17100000  0.23390000  1
  N  N99  1  0.05490000  0.17100000  0.73390000  1
  N  N100  1  0.94830000  0.16820000  0.77120000  1
  N  N101  1  0.55170000  0.16820000  0.27120000  1
  N  N102  1  0.98140000  0.15870000  0.24840000  1
  N  N103  1  0.51860000  0.15870000  0.74840000  1
  N  N104  1  0.39970000  0.04840000  0.22170000  1
  N  N105  1  0.10030000  0.04840000  0.72170000  1
  N  N106  1  0.91830000  0.03970000  0.78270000  1
  N  N107  1  0.58170000  0.03970000  0.28270000  1
  O  O108  1  0.43700000  0.95310000  0.06520000  1
  O  O109  1  0.06300000  0.95310000  0.56520000  1
  O  O110  1  0.86420000  0.93400000  0.94630000  1
  O  O111  1  0.63580000  0.93400000  0.44630000  1
  O  O112  1  0.29330000  0.83510000  0.12090000  1
  O  O113  1  0.20670000  0.83510000  0.62090000  1
  O  O114  1  0.81840000  0.80340000  0.86020000  1
  O  O115  1  0.68160000  0.80340000  0.36020000  1
  O  O116  1  0.31840000  0.19660000  0.63980000  1
  O  O117  1  0.18160000  0.19660000  0.13980000  1
  O  O118  1  0.79330000  0.16490000  0.37910000  1
  O  O119  1  0.70670000  0.16490000  0.87910000  1
  O  O120  1  0.36420000  0.06600000  0.55370000  1
  O  O121  1  0.13580000  0.06600000  0.05370000  1
  O  O122  1  0.93700000  0.04690000  0.43480000  1
  O  O123  1  0.56300000  0.04690000  0.93480000  1
