# generated using pymatgen
data_Co2H25C32N4O9
_symmetry_space_group_name_H-M   'P 1'
_cell_length_a   10.38904106
_cell_length_b   10.38904106
_cell_length_c   18.53740000
_cell_angle_alpha   100.34195351
_cell_angle_beta   100.34195351
_cell_angle_gamma   94.66495008
_symmetry_Int_Tables_number   1
_chemical_formula_structural   Co2H25C32N4O9
_chemical_formula_sum   'Co4 H50 C64 N8 O18'
_cell_volume   1922.92388715
_cell_formula_units_Z   2
loop_
 _symmetry_equiv_pos_site_id
 _symmetry_equiv_pos_as_xyz
  1  'x, y, z'
loop_
 _atom_site_type_symbol
 _atom_site_label
 _atom_site_symmetry_multiplicity
 _atom_site_fract_x
 _atom_site_fract_y
 _atom_site_fract_z
 _atom_site_occupancy
  C  C0  1  0.71190000  0.28650000  0.44230000  1
  C  C1  1  0.28650000  0.71190000  0.94230000  1
  C  C2  1  0.69300000  0.28200000  0.35850000  1
  C  C3  1  0.28200000  0.69300000  0.85850000  1
  C  C4  1  0.63120000  0.23680000  0.88420000  1
  C  C5  1  0.23680000  0.63120000  0.38420000  1
  C  C6  1  0.65460000  0.17740000  0.01290000  1
  C  C7  1  0.17740000  0.65460000  0.51290000  1
  C  C8  1  0.60140000  0.18860000  0.80800000  1
  C  C9  1  0.18860000  0.60140000  0.30800000  1
  C  C10  1  0.62870000  0.14430000  0.92980000  1
  C  C11  1  0.14430000  0.62870000  0.42980000  1
  C  C12  1  0.40200000  0.36460000  0.08540000  1
  C  C13  1  0.36460000  0.40200000  0.58540000  1
  C  C14  1  0.36450000  0.34810000  0.00120000  1
  C  C15  1  0.34810000  0.36450000  0.50120000  1
  C  C16  1  0.76720000  0.91780000  0.24870000  1
  C  C17  1  0.91780000  0.76720000  0.74870000  1
  C  C18  1  0.74040000  0.90940000  0.17220000  1
  C  C19  1  0.90940000  0.74040000  0.67220000  1
  C  C20  1  0.56920000  0.05560000  0.77860000  1
  C  C21  1  0.05560000  0.56920000  0.27860000  1
  C  C22  1  0.59250000  0.01350000  0.89660000  1
  C  C23  1  0.01350000  0.59250000  0.39660000  1
  C  C24  1  0.32240000  0.27600000  0.33820000  1
  C  C25  1  0.27600000  0.32240000  0.83820000  1
  C  C26  1  0.77180000  0.80880000  0.27880000  1
  C  C27  1  0.80880000  0.77180000  0.77880000  1
  C  C28  1  0.31710000  0.23450000  0.95460000  1
  C  C29  1  0.23450000  0.31710000  0.45460000  1
  C  C30  1  0.71720000  0.78440000  0.12740000  1
  C  C31  1  0.78440000  0.71720000  0.62740000  1
  C  C32  1  0.28280000  0.21560000  0.87260000  1
  C  C33  1  0.21560000  0.28280000  0.37260000  1
  C  C34  1  0.68290000  0.76550000  0.04540000  1
  C  C35  1  0.76550000  0.68290000  0.54540000  1
  C  C36  1  0.22820000  0.19120000  0.72120000  1
  C  C37  1  0.19120000  0.22820000  0.22120000  1
  C  C38  1  0.67760000  0.72400000  0.66180000  1
  C  C39  1  0.72400000  0.67760000  0.16180000  1
  C  C40  1  0.40750000  0.98650000  0.10340000  1
  C  C41  1  0.98650000  0.40750000  0.60340000  1
  C  C42  1  0.43080000  0.94440000  0.22140000  1
  C  C43  1  0.94440000  0.43080000  0.72140000  1
  C  C44  1  0.25960000  0.09060000  0.82780000  1
  C  C45  1  0.09060000  0.25960000  0.32780000  1
  C  C46  1  0.23280000  0.08220000  0.75130000  1
  C  C47  1  0.08220000  0.23280000  0.25130000  1
  C  C48  1  0.63550000  0.65190000  0.99880000  1
  C  C49  1  0.65190000  0.63550000  0.49880000  1
  C  C50  1  0.59800000  0.63540000  0.91460000  1
  C  C51  1  0.63540000  0.59800000  0.41460000  1
  C  C52  1  0.37130000  0.85570000  0.07020000  1
  C  C53  1  0.85570000  0.37130000  0.57020000  1
  C  C54  1  0.39860000  0.81140000  0.19200000  1
  C  C55  1  0.81140000  0.39860000  0.69200000  1
  C  C56  1  0.34540000  0.82260000  0.98710000  1
  C  C57  1  0.82260000  0.34540000  0.48710000  1
  C  C58  1  0.36880000  0.76320000  0.11580000  1
  C  C59  1  0.76320000  0.36880000  0.61580000  1
  C  C60  1  0.30700000  0.71800000  0.64150000  1
  C  C61  1  0.71800000  0.30700000  0.14150000  1
  C  C62  1  0.28810000  0.71350000  0.55770000  1
  C  C63  1  0.71350000  0.28810000  0.05770000  1
  Co  Co64  1  0.49314000  0.23844000  0.21686000  1
  Co  Co65  1  0.23844000  0.49314000  0.71686000  1
  Co  Co66  1  0.50686000  0.76156000  0.78314000  1
  Co  Co67  1  0.76156000  0.50686000  0.28314000  1
  H  H68  1  0.50920000  0.49080000  0.75000000  1
  H  H69  1  0.49080000  0.50920000  0.25000000  1
  H  H70  1  0.65230000  0.32850000  0.90450000  1
  H  H71  1  0.32850000  0.65230000  0.40450000  1
  H  H72  1  0.64420000  0.24700000  0.46240000  1
  H  H73  1  0.24700000  0.64420000  0.96240000  1
  H  H74  1  0.60310000  0.24850000  0.77490000  1
  H  H75  1  0.24850000  0.60310000  0.27490000  1
  H  H76  1  0.42420000  0.37560000  0.48020000  1
  H  H77  1  0.37560000  0.42420000  0.98020000  1
  H  H78  1  0.78250000  0.00210000  0.28080000  1
  H  H79  1  0.00210000  0.78250000  0.78080000  1
  H  H80  1  0.62510000  0.11050000  0.03700000  1
  H  H81  1  0.11050000  0.62510000  0.53700000  1
  H  H82  1  0.73810000  0.98610000  0.15110000  1
  H  H83  1  0.98610000  0.73810000  0.65110000  1
  H  H84  1  0.40730000  0.28950000  0.36940000  1
  H  H85  1  0.28950000  0.40730000  0.86940000  1
  H  H86  1  0.79230000  0.81910000  0.33170000  1
  H  H87  1  0.81910000  0.79230000  0.83170000  1
  H  H88  1  0.55110000  0.02630000  0.72580000  1
  H  H89  1  0.02630000  0.55110000  0.22580000  1
  H  H90  1  0.58800000  0.95160000  0.92830000  1
  H  H91  1  0.95160000  0.58800000  0.42830000  1
  H  H92  1  0.69570000  0.84070000  0.02390000  1
  H  H93  1  0.84070000  0.69570000  0.52390000  1
  H  H94  1  0.30430000  0.15930000  0.97610000  1
  H  H95  1  0.15930000  0.30430000  0.47610000  1
  H  H96  1  0.41200000  0.04840000  0.07170000  1
  H  H97  1  0.04840000  0.41200000  0.57170000  1
  H  H98  1  0.44890000  0.97370000  0.27420000  1
  H  H99  1  0.97370000  0.44890000  0.77420000  1
  H  H100  1  0.20770000  0.18090000  0.66830000  1
  H  H101  1  0.18090000  0.20770000  0.16830000  1
  H  H102  1  0.59270000  0.71050000  0.63060000  1
  H  H103  1  0.71050000  0.59270000  0.13060000  1
  H  H104  1  0.26190000  0.01390000  0.84890000  1
  H  H105  1  0.01390000  0.26190000  0.34890000  1
  H  H106  1  0.37490000  0.88950000  0.96300000  1
  H  H107  1  0.88950000  0.37490000  0.46300000  1
  H  H108  1  0.21750000  0.99790000  0.71920000  1
  H  H109  1  0.99790000  0.21750000  0.21920000  1
  H  H110  1  0.57580000  0.62440000  0.51980000  1
  H  H111  1  0.62440000  0.57580000  0.01980000  1
  H  H112  1  0.39690000  0.75150000  0.22510000  1
  H  H113  1  0.75150000  0.39690000  0.72510000  1
  H  H114  1  0.35580000  0.75300000  0.53760000  1
  H  H115  1  0.75300000  0.35580000  0.03760000  1
  H  H116  1  0.34770000  0.67150000  0.09550000  1
  H  H117  1  0.67150000  0.34770000  0.59550000  1
  N  N118  1  0.31590000  0.25190000  0.26380000  1
  N  N119  1  0.25190000  0.31590000  0.76380000  1
  N  N120  1  0.56300000  0.96780000  0.82180000  1
  N  N121  1  0.96780000  0.56300000  0.32180000  1
  N  N122  1  0.43700000  0.03220000  0.17820000  1
  N  N123  1  0.03220000  0.43700000  0.67820000  1
  N  N124  1  0.68410000  0.74810000  0.73620000  1
  N  N125  1  0.74810000  0.68410000  0.23620000  1
  O  O126  1  0.55300000  0.44700000  0.25000000  1
  O  O127  1  0.44700000  0.55300000  0.75000000  1
  O  O128  1  0.47870000  0.44930000  0.61890000  1
  O  O129  1  0.44930000  0.47870000  0.11890000  1
  O  O130  1  0.65300000  0.22200000  0.16440000  1
  O  O131  1  0.22200000  0.65300000  0.66440000  1
  O  O132  1  0.58910000  0.21330000  0.31950000  1
  O  O133  1  0.21330000  0.58910000  0.81950000  1
  O  O134  1  0.38550000  0.26810000  0.11550000  1
  O  O135  1  0.26810000  0.38550000  0.61550000  1
  O  O136  1  0.61450000  0.73190000  0.88450000  1
  O  O137  1  0.73190000  0.61450000  0.38450000  1
  O  O138  1  0.41090000  0.78670000  0.68050000  1
  O  O139  1  0.78670000  0.41090000  0.18050000  1
  O  O140  1  0.34700000  0.77800000  0.83560000  1
  O  O141  1  0.77800000  0.34700000  0.33560000  1
  O  O142  1  0.52130000  0.55070000  0.38110000  1
  O  O143  1  0.55070000  0.52130000  0.88110000  1
