# generated using pymatgen
data_CdH4(C5O2)2
_symmetry_space_group_name_H-M   'P 1'
_cell_length_a   18.16300000
_cell_length_b   19.93690000
_cell_length_c   19.93690000
_cell_angle_alpha   70.93000000
_cell_angle_beta   71.99700000
_cell_angle_gamma   71.99690000
_symmetry_Int_Tables_number   1
_chemical_formula_structural   CdH4(C5O2)2
_chemical_formula_sum   'Cd12 H48 C120 O48'
_cell_volume   6312.87538703
_cell_formula_units_Z   12
loop_
 _symmetry_equiv_pos_site_id
 _symmetry_equiv_pos_as_xyz
  1  'x, y, z'
loop_
 _atom_site_type_symbol
 _atom_site_label
 _atom_site_symmetry_multiplicity
 _atom_site_fract_x
 _atom_site_fract_y
 _atom_site_fract_z
 _atom_site_occupancy
  Cd  Cd0  1  0.93489000  0.15746000  0.22914000  1
  Cd  Cd1  1  0.89968000  0.26249000  0.05485000  1
  Cd  Cd2  1  0.83478000  0.34679000  0.53167000  1
  Cd  Cd3  1  0.66522000  0.46833000  0.65321000  1
  Cd  Cd4  1  0.60032000  0.94515000  0.73751000  1
  Cd  Cd5  1  0.56511000  0.77086000  0.84254000  1
  Cd  Cd6  1  0.43489000  0.22914000  0.15746000  1
  Cd  Cd7  1  0.39968000  0.05485000  0.26249000  1
  Cd  Cd8  1  0.33478000  0.53167000  0.34679000  1
  Cd  Cd9  1  0.16522000  0.65321000  0.46833000  1
  Cd  Cd10  1  0.10032000  0.73751000  0.94515000  1
  Cd  Cd11  1  0.06511000  0.84254000  0.77086000  1
  H  H12  1  0.97340000  0.79790000  0.17150000  1
  H  H13  1  0.95040000  0.28280000  0.64580000  1
  H  H14  1  0.90690000  0.89290000  0.22610000  1
  H  H15  1  0.90500000  0.72720000  0.40340000  1
  H  H16  1  0.86420000  0.01930000  0.21990000  1
  H  H17  1  0.84260000  0.70680000  0.03840000  1
  H  H18  1  0.83660000  0.32260000  0.30020000  1
  H  H19  1  0.82550000  0.84280000  0.84060000  1
  H  H20  1  0.81480000  0.34460000  0.82540000  1
  H  H21  1  0.78510000  0.67120000  0.47640000  1
  H  H22  1  0.77630000  0.60260000  0.10120000  1
  H  H23  1  0.76280000  0.47950000  0.13370000  1
  H  H24  1  0.73720000  0.86630000  0.52050000  1
  H  H25  1  0.72370000  0.89880000  0.39740000  1
  H  H26  1  0.71490000  0.52360000  0.32880000  1
  H  H27  1  0.68520000  0.17460000  0.65540000  1
  H  H28  1  0.67450000  0.15940000  0.15720000  1
  H  H29  1  0.66340000  0.69980000  0.67740000  1
  H  H30  1  0.65740000  0.96160000  0.29320000  1
  H  H31  1  0.63580000  0.78010000  0.98070000  1
  H  H32  1  0.59500000  0.59660000  0.27280000  1
  H  H33  1  0.59310000  0.77390000  0.10710000  1
  H  H34  1  0.54960000  0.35420000  0.71720000  1
  H  H35  1  0.52660000  0.82850000  0.20210000  1
  H  H36  1  0.47340000  0.17150000  0.79790000  1
  H  H37  1  0.45040000  0.64580000  0.28280000  1
  H  H38  1  0.40690000  0.22610000  0.89290000  1
  H  H39  1  0.40500000  0.40340000  0.72720000  1
  H  H40  1  0.36420000  0.21990000  0.01930000  1
  H  H41  1  0.34260000  0.03840000  0.70680000  1
  H  H42  1  0.33660000  0.30020000  0.32260000  1
  H  H43  1  0.32550000  0.84060000  0.84280000  1
  H  H44  1  0.31480000  0.82540000  0.34460000  1
  H  H45  1  0.28510000  0.47640000  0.67120000  1
  H  H46  1  0.27630000  0.10120000  0.60260000  1
  H  H47  1  0.26280000  0.13370000  0.47950000  1
  H  H48  1  0.23720000  0.52050000  0.86630000  1
  H  H49  1  0.22370000  0.39740000  0.89880000  1
  H  H50  1  0.21490000  0.32880000  0.52360000  1
  H  H51  1  0.18520000  0.65540000  0.17460000  1
  H  H52  1  0.17450000  0.15720000  0.15940000  1
  H  H53  1  0.16340000  0.67740000  0.69980000  1
  H  H54  1  0.15740000  0.29320000  0.96160000  1
  H  H55  1  0.13580000  0.98070000  0.78010000  1
  H  H56  1  0.09500000  0.27280000  0.59660000  1
  H  H57  1  0.09310000  0.10710000  0.77390000  1
  H  H58  1  0.04960000  0.71720000  0.35420000  1
  H  H59  1  0.02660000  0.20210000  0.82850000  1
  C  C60  1  0.99630000  0.76160000  0.26880000  1
  C  C61  1  0.98900000  0.23310000  0.80250000  1
  C  C62  1  0.94340000  0.28170000  0.69430000  1
  C  C63  1  0.93860000  0.76980000  0.92060000  1
  C  C64  1  0.92140000  0.27160000  0.83800000  1
  C  C65  1  0.92130000  0.80110000  0.30930000  1
  C  C66  1  0.91030000  0.26800000  0.91760000  1
  C  C67  1  0.88150000  0.87140000  0.27300000  1
  C  C68  1  0.88100000  0.77270000  0.37790000  1
  C  C69  1  0.87410000  0.32230000  0.72850000  1
  C  C70  1  0.86120000  0.31810000  0.80110000  1
  C  C71  1  0.84750000  0.77500000  0.93700000  1
  C  C72  1  0.84310000  0.33890000  0.16390000  1
  C  C73  1  0.81950000  0.15510000  0.13390000  1
  C  C74  1  0.81210000  0.73530000  0.00470000  1
  C  C75  1  0.81160000  0.37150000  0.68850000  1
  C  C76  1  0.81110000  0.37040000  0.28120000  1
  C  C77  1  0.81050000  0.03000000  0.22020000  1
  C  C78  1  0.80840000  0.90890000  0.30310000  1
  C  C79  1  0.80560000  0.80750000  0.41270000  1
  C  C80  1  0.80500000  0.39260000  0.20960000  1
  C  C81  1  0.80130000  0.81730000  0.88610000  1
  C  C82  1  0.79030000  0.39630000  0.40450000  1
  C  C83  1  0.77920000  0.41930000  0.32610000  1
  C  C84  1  0.77790000  0.09810000  0.17850000  1
  C  C85  1  0.77280000  0.87420000  0.37480000  1
  C  C86  1  0.76890000  0.97830000  0.26150000  1
  C  C87  1  0.76700000  0.46420000  0.18200000  1
  C  C88  1  0.76480000  0.77520000  0.48640000  1
  C  C89  1  0.76140000  0.70110000  0.50830000  1
  C  C90  1  0.73860000  0.49170000  0.29890000  1
  C  C91  1  0.73520000  0.51360000  0.22480000  1
  C  C92  1  0.73300000  0.81800000  0.53580000  1
  C  C93  1  0.73110000  0.73850000  0.02170000  1
  C  C94  1  0.72720000  0.62520000  0.12580000  1
  C  C95  1  0.72210000  0.82150000  0.90190000  1
  C  C96  1  0.72080000  0.67390000  0.58070000  1
  C  C97  1  0.70970000  0.59550000  0.60370000  1
  C  C98  1  0.69870000  0.11390000  0.18270000  1
  C  C99  1  0.69500000  0.79040000  0.60740000  1
  C  C100  1  0.69440000  0.58730000  0.19250000  1
  C  C101  1  0.69160000  0.69690000  0.09110000  1
  C  C102  1  0.68950000  0.77980000  0.97000000  1
  C  C103  1  0.68890000  0.71880000  0.62960000  1
  C  C104  1  0.68840000  0.31150000  0.62850000  1
  C  C105  1  0.68790000  0.99530000  0.26470000  1
  C  C106  1  0.68050000  0.86610000  0.84490000  1
  C  C107  1  0.65690000  0.83610000  0.66110000  1
  C  C108  1  0.65250000  0.06300000  0.22500000  1
  C  C109  1  0.63880000  0.19890000  0.68190000  1
  C  C110  1  0.62590000  0.27150000  0.67770000  1
  C  C111  1  0.61900000  0.62210000  0.22730000  1
  C  C112  1  0.61850000  0.72700000  0.12860000  1
  C  C113  1  0.58970000  0.08240000  0.73200000  1
  C  C114  1  0.57870000  0.69070000  0.19890000  1
  C  C115  1  0.57860000  0.16200000  0.72840000  1
  C  C116  1  0.56140000  0.07940000  0.23020000  1
  C  C117  1  0.55660000  0.30570000  0.71830000  1
  C  C118  1  0.51100000  0.19750000  0.76690000  1
  C  C119  1  0.50370000  0.73120000  0.23840000  1
  C  C120  1  0.49630000  0.26880000  0.76160000  1
  C  C121  1  0.48900000  0.80250000  0.23310000  1
  C  C122  1  0.44340000  0.69430000  0.28170000  1
  C  C123  1  0.43860000  0.92060000  0.76980000  1
  C  C124  1  0.42140000  0.83800000  0.27160000  1
  C  C125  1  0.42130000  0.30930000  0.80110000  1
  C  C126  1  0.41030000  0.91760000  0.26800000  1
  C  C127  1  0.38150000  0.27300000  0.87140000  1
  C  C128  1  0.38100000  0.37790000  0.77270000  1
  C  C129  1  0.37410000  0.72850000  0.32230000  1
  C  C130  1  0.36120000  0.80110000  0.31810000  1
  C  C131  1  0.34750000  0.93700000  0.77500000  1
  C  C132  1  0.34310000  0.16390000  0.33890000  1
  C  C133  1  0.31950000  0.13390000  0.15510000  1
  C  C134  1  0.31210000  0.00470000  0.73530000  1
  C  C135  1  0.31160000  0.68850000  0.37150000  1
  C  C136  1  0.31110000  0.28120000  0.37040000  1
  C  C137  1  0.31050000  0.22020000  0.03000000  1
  C  C138  1  0.30840000  0.30310000  0.90890000  1
  C  C139  1  0.30560000  0.41270000  0.80750000  1
  C  C140  1  0.30500000  0.20960000  0.39260000  1
  C  C141  1  0.30130000  0.88610000  0.81730000  1
  C  C142  1  0.29030000  0.40450000  0.39630000  1
  C  C143  1  0.27920000  0.32610000  0.41930000  1
  C  C144  1  0.27790000  0.17850000  0.09810000  1
  C  C145  1  0.27280000  0.37480000  0.87420000  1
  C  C146  1  0.26890000  0.26150000  0.97830000  1
  C  C147  1  0.26700000  0.18200000  0.46420000  1
  C  C148  1  0.26480000  0.48640000  0.77520000  1
  C  C149  1  0.26140000  0.50830000  0.70110000  1
  C  C150  1  0.23860000  0.29890000  0.49170000  1
  C  C151  1  0.23520000  0.22480000  0.51360000  1
  C  C152  1  0.23300000  0.53580000  0.81800000  1
  C  C153  1  0.23110000  0.02170000  0.73850000  1
  C  C154  1  0.22720000  0.12580000  0.62520000  1
  C  C155  1  0.22210000  0.90190000  0.82150000  1
  C  C156  1  0.22080000  0.58070000  0.67390000  1
  C  C157  1  0.20970000  0.60370000  0.59550000  1
  C  C158  1  0.19870000  0.18270000  0.11390000  1
  C  C159  1  0.19500000  0.60740000  0.79040000  1
  C  C160  1  0.19440000  0.19250000  0.58730000  1
  C  C161  1  0.19160000  0.09110000  0.69690000  1
  C  C162  1  0.18950000  0.97000000  0.77980000  1
  C  C163  1  0.18890000  0.62960000  0.71880000  1
  C  C164  1  0.18840000  0.62850000  0.31150000  1
  C  C165  1  0.18790000  0.26470000  0.99530000  1
  C  C166  1  0.18050000  0.84490000  0.86610000  1
  C  C167  1  0.15690000  0.66110000  0.83610000  1
  C  C168  1  0.15250000  0.22500000  0.06300000  1
  C  C169  1  0.13880000  0.68190000  0.19890000  1
  C  C170  1  0.12590000  0.67770000  0.27150000  1
  C  C171  1  0.11900000  0.22730000  0.62210000  1
  C  C172  1  0.11850000  0.12860000  0.72700000  1
  C  C173  1  0.08970000  0.73200000  0.08240000  1
  C  C174  1  0.07870000  0.19890000  0.69070000  1
  C  C175  1  0.07860000  0.72840000  0.16200000  1
  C  C176  1  0.06140000  0.23020000  0.07940000  1
  C  C177  1  0.05660000  0.71830000  0.30570000  1
  C  C178  1  0.01100000  0.76690000  0.19750000  1
  C  C179  1  0.00370000  0.23840000  0.73120000  1
  O  O180  1  0.97840000  0.72840000  0.95880000  1
  O  O181  1  0.96030000  0.81840000  0.86080000  1
  O  O182  1  0.94900000  0.21150000  0.95410000  1
  O  O183  1  0.89340000  0.14450000  0.13850000  1
  O  O184  1  0.87140000  0.27630000  0.19210000  1
  O  O185  1  0.86200000  0.32100000  0.94300000  1
  O  O186  1  0.83990000  0.36260000  0.09960000  1
  O  O187  1  0.83020000  0.39640000  0.61920000  1
  O  O188  1  0.81740000  0.33000000  0.42940000  1
  O  O189  1  0.78920000  0.21140000  0.09520000  1
  O  O190  1  0.77450000  0.44170000  0.43790000  1
  O  O191  1  0.75990000  0.27130000  0.60890000  1
  O  O192  1  0.74010000  0.39110000  0.72870000  1
  O  O193  1  0.72550000  0.56210000  0.55830000  1
  O  O194  1  0.71080000  0.90480000  0.78860000  1
  O  O195  1  0.68260000  0.57060000  0.67000000  1
  O  O196  1  0.66980000  0.38080000  0.60360000  1
  O  O197  1  0.66010000  0.90040000  0.63740000  1
  O  O198  1  0.63800000  0.05700000  0.67900000  1
  O  O199  1  0.62860000  0.80790000  0.72370000  1
  O  O200  1  0.60660000  0.86150000  0.85550000  1
  O  O201  1  0.55100000  0.04590000  0.78850000  1
  O  O202  1  0.53970000  0.13920000  0.18160000  1
  O  O203  1  0.52160000  0.04120000  0.27160000  1
  O  O204  1  0.47840000  0.95880000  0.72840000  1
  O  O205  1  0.46030000  0.86080000  0.81840000  1
  O  O206  1  0.44900000  0.95410000  0.21150000  1
  O  O207  1  0.39340000  0.13850000  0.14450000  1
  O  O208  1  0.37140000  0.19210000  0.27630000  1
  O  O209  1  0.36200000  0.94300000  0.32100000  1
  O  O210  1  0.33990000  0.09960000  0.36260000  1
  O  O211  1  0.33020000  0.61920000  0.39640000  1
  O  O212  1  0.31740000  0.42940000  0.33000000  1
  O  O213  1  0.28920000  0.09520000  0.21140000  1
  O  O214  1  0.27450000  0.43790000  0.44170000  1
  O  O215  1  0.25990000  0.60890000  0.27130000  1
  O  O216  1  0.24010000  0.72870000  0.39110000  1
  O  O217  1  0.22550000  0.55830000  0.56210000  1
  O  O218  1  0.21080000  0.78860000  0.90480000  1
  O  O219  1  0.18260000  0.67000000  0.57060000  1
  O  O220  1  0.16980000  0.60360000  0.38080000  1
  O  O221  1  0.16010000  0.63740000  0.90040000  1
  O  O222  1  0.13800000  0.67900000  0.05700000  1
  O  O223  1  0.12860000  0.72370000  0.80790000  1
  O  O224  1  0.10660000  0.85550000  0.86150000  1
  O  O225  1  0.05100000  0.78850000  0.04590000  1
  O  O226  1  0.03970000  0.18160000  0.13920000  1
  O  O227  1  0.02160000  0.27160000  0.04120000  1
