# generated using pymatgen
data_Ni2H40C53(N2O7)2
_symmetry_space_group_name_H-M   'P 1'
_cell_length_a   10.67580000
_cell_length_b   23.63300000
_cell_length_c   23.66389850
_cell_angle_alpha   95.13770085
_cell_angle_beta   103.03648400
_cell_angle_gamma   90.00000000
_symmetry_Int_Tables_number   1
_chemical_formula_structural   Ni2H40C53(N2O7)2
_chemical_formula_sum   'Ni8 H160 C212 N16 O56'
_cell_volume   5791.92713590
_cell_formula_units_Z   4
loop_
 _symmetry_equiv_pos_site_id
 _symmetry_equiv_pos_as_xyz
  1  'x, y, z'
loop_
 _atom_site_type_symbol
 _atom_site_label
 _atom_site_symmetry_multiplicity
 _atom_site_fract_x
 _atom_site_fract_y
 _atom_site_fract_z
 _atom_site_occupancy
  C  C0  1  0.06445000  0.34809000  0.05570000  1
  C  C1  1  0.99125000  0.84809000  0.05570000  1
  C  C2  1  0.28728000  0.95932000  0.05796000  1
  C  C3  1  0.77068000  0.45932000  0.05796000  1
  C  C4  1  0.43053000  0.12337000  0.06826000  1
  C  C5  1  0.63773000  0.62337000  0.06826000  1
  C  C6  1  0.28419000  0.49050000  0.06918000  1
  C  C7  1  0.78499000  0.99050000  0.06918000  1
  C  C8  1  0.33941000  0.91849000  0.09322000  1
  C  C9  1  0.75381000  0.41849000  0.09322000  1
  C  C10  1  0.52362000  0.16191000  0.09904000  1
  C  C11  1  0.57542000  0.66191000  0.09904000  1
  C  C12  1  0.27783000  0.17153000  0.10046000  1
  C  C13  1  0.82263000  0.67153000  0.10046000  1
  C  C14  1  0.09509000  0.32611000  0.11518000  1
  C  C15  1  0.02009000  0.82611000  0.11518000  1
  C  C16  1  0.36957000  0.52290000  0.12014000  1
  C  C17  1  0.75057000  0.02290000  0.12014000  1
  C  C18  1  0.09430000  0.77882000  0.12800000  1
  C  C19  1  0.03370000  0.27882000  0.12800000  1
  C  C20  1  0.22171000  0.01117000  0.12902000  1
  C  C21  1  0.90731000  0.51117000  0.12902000  1
  C  C22  1  0.36263000  0.21100000  0.13366000  1
  C  C23  1  0.48873000  0.20707000  0.13366000  1
  C  C24  1  0.64493000  0.70707000  0.13366000  1
  C  C25  1  0.77103000  0.71100000  0.13366000  1
  C  C26  1  0.49714000  0.50904000  0.13448000  1
  C  C27  1  0.63734000  0.00904000  0.13448000  1
  C  C28  1  0.32704000  0.56745000  0.15028000  1
  C  C29  1  0.82324000  0.06745000  0.15028000  1
  C  C30  1  0.32996000  0.92709000  0.15032000  1
  C  C31  1  0.82036000  0.42709000  0.15032000  1
  C  C32  1  0.18881000  0.35286000  0.15962000  1
  C  C33  1  0.97081000  0.85286000  0.15962000  1
  C  C34  1  0.26951000  0.97370000  0.16842000  1
  C  C35  1  0.89891000  0.47370000  0.16842000  1
  C  C36  1  0.47275000  0.85034000  0.17350000  1
  C  C37  1  0.70075000  0.35034000  0.17350000  1
  C  C38  1  0.58221000  0.54055000  0.17782000  1
  C  C39  1  0.59561000  0.04055000  0.17782000  1
  C  C40  1  0.11427000  0.75725000  0.18254000  1
  C  C41  1  0.06827000  0.25725000  0.18254000  1
  C  C42  1  0.41307000  0.60000000  0.19374000  1
  C  C43  1  0.78067000  0.10000000  0.19374000  1
  C  C44  1  0.55431000  0.28668000  0.20202000  1
  C  C45  1  0.64771000  0.78668000  0.20202000  1
  C  C46  1  0.54006000  0.58621000  0.20632000  1
  C  C47  1  0.66626000  0.08621000  0.20632000  1
  C  C48  1  0.22047000  0.33290000  0.21374000  1
  C  C49  1  0.99327000  0.83290000  0.21374000  1
  C  C50  1  0.16305000  0.28540000  0.22530000  1
  C  C51  1  0.06225000  0.78540000  0.22530000  1
  C  C52  1  0.55104000  0.82303000  0.22588000  1
  C  C53  1  0.67484000  0.32303000  0.22588000  1
  C  C54  1  0.46932000  0.78808000  0.25384000  1
  C  C55  1  0.78452000  0.28808000  0.25384000  1
  C  C56  1  0.42204000  0.12736000  0.27068000  1
  C  C57  1  0.84864000  0.62736000  0.27068000  1
  C  C58  1  0.61959000  0.86709000  0.27258000  1
  C  C59  1  0.65299000  0.36709000  0.27258000  1
  C  C60  1  0.40362000  0.47008000  0.27484000  1
  C  C61  1  0.87122000  0.97008000  0.27484000  1
  C  C62  1  0.53743000  0.10173000  0.27566000  1
  C  C63  1  0.73823000  0.60173000  0.27566000  1
  C  C64  1  0.50833000  0.43760000  0.29306000  1
  C  C65  1  0.78473000  0.93760000  0.29306000  1
  C  C66  1  0.34108000  0.10967000  0.30536000  1
  C  C67  1  0.96428000  0.60967000  0.30536000  1
  C  C68  1  0.57207000  0.06074000  0.31174000  1
  C  C69  1  0.73967000  0.56074000  0.31174000  1
  C  C70  1  0.36681000  0.50779000  0.31442000  1
  C  C71  1  0.94761000  0.00779000  0.31442000  1
  C  C72  1  0.37768000  0.71267000  0.32276000  1
  C  C73  1  0.94508000  0.21267000  0.32276000  1
  C  C74  1  0.27009000  0.29169000  0.32378000  1
  C  C75  1  0.05369000  0.79169000  0.32378000  1
  C  C76  1  0.50739000  0.72305000  0.32658000  1
  C  C77  1  0.81919000  0.22305000  0.32658000  1
  C  C78  1  0.37393000  0.06756000  0.34166000  1
  C  C79  1  0.96773000  0.56756000  0.34166000  1
  C  C80  1  0.39777000  0.27642000  0.34294000  1
  C  C81  1  0.94517000  0.77642000  0.34294000  1
  C  C82  1  0.48907000  0.04211000  0.34314000  1
  C  C83  1  0.85407000  0.54211000  0.34314000  1
  C  C84  1  0.57137000  0.44475000  0.35034000  1
  C  C85  1  0.77897000  0.94475000  0.35034000  1
  C  C86  1  0.22168000  0.33494000  0.35276000  1
  C  C87  1  0.13108000  0.83494000  0.35276000  1
  C  C88  1  0.34431000  0.67179000  0.35502000  1
  C  C89  1  0.01071000  0.17179000  0.35502000  1
  C  C90  1  0.59350000  0.69142000  0.36300000  1
  C  C91  1  0.76950000  0.19142000  0.36300000  1
  C  C92  1  0.28915000  0.04983000  0.37770000  1
  C  C93  1  0.08855000  0.54983000  0.37770000  1
  C  C94  1  0.52328000  0.48396000  0.38656000  1
  C  C95  1  0.86328000  0.98396000  0.38656000  1
  C  C96  1  0.47357000  0.30621000  0.39314000  1
  C  C97  1  0.91957000  0.80621000  0.39314000  1
  C  C98  1  0.55026000  0.65207000  0.39332000  1
  C  C99  1  0.84306000  0.15207000  0.39332000  1
  C  C100  1  0.29976000  0.36303000  0.40292000  1
  C  C101  1  0.10316000  0.86303000  0.40292000  1
  C  C102  1  0.42498000  0.34943000  0.42376000  1
  C  C103  1  0.99878000  0.84943000  0.42376000  1
  C  C104  1  0.50448000  0.37859000  0.47676000  1
  C  C105  1  0.97228000  0.87859000  0.47676000  1
  C  C106  1  0.49552000  0.62141000  0.52324000  1
  C  C107  1  0.02772000  0.12141000  0.52324000  1
  C  C108  1  0.57502000  0.65057000  0.57624000  1
  C  C109  1  0.00122000  0.15057000  0.57624000  1
  C  C110  1  0.70024000  0.63697000  0.59708000  1
  C  C111  1  0.89684000  0.13697000  0.59708000  1
  C  C112  1  0.44974000  0.34793000  0.60668000  1
  C  C113  1  0.15694000  0.84793000  0.60668000  1
  C  C114  1  0.52643000  0.69379000  0.60686000  1
  C  C115  1  0.08043000  0.19379000  0.60686000  1
  C  C116  1  0.47672000  0.51604000  0.61344000  1
  C  C117  1  0.13672000  0.01604000  0.61344000  1
  C  C118  1  0.71085000  0.95017000  0.62230000  1
  C  C119  1  0.91145000  0.45017000  0.62230000  1
  C  C120  1  0.40650000  0.30858000  0.63700000  1
  C  C121  1  0.23050000  0.80858000  0.63700000  1
  C  C122  1  0.65569000  0.32821000  0.64498000  1
  C  C123  1  0.98929000  0.82821000  0.64498000  1
  C  C124  1  0.77832000  0.66506000  0.64724000  1
  C  C125  1  0.86892000  0.16506000  0.64724000  1
  C  C126  1  0.42863000  0.55525000  0.64966000  1
  C  C127  1  0.22103000  0.05525000  0.64966000  1
  C  C128  1  0.51093000  0.95789000  0.65686000  1
  C  C129  1  0.14593000  0.45789000  0.65686000  1
  C  C130  1  0.60223000  0.72358000  0.65706000  1
  C  C131  1  0.05483000  0.22358000  0.65706000  1
  C  C132  1  0.62607000  0.93244000  0.65834000  1
  C  C133  1  0.03227000  0.43244000  0.65834000  1
  C  C134  1  0.49261000  0.27695000  0.67342000  1
  C  C135  1  0.18081000  0.77695000  0.67342000  1
  C  C136  1  0.72991000  0.70831000  0.67622000  1
  C  C137  1  0.94631000  0.20831000  0.67622000  1
  C  C138  1  0.62232000  0.28733000  0.67724000  1
  C  C139  1  0.05492000  0.78733000  0.67724000  1
  C  C140  1  0.63319000  0.49221000  0.68558000  1
  C  C141  1  0.05239000  0.99221000  0.68558000  1
  C  C142  1  0.42793000  0.93926000  0.68826000  1
  C  C143  1  0.26033000  0.43926000  0.68826000  1
  C  C144  1  0.65892000  0.89033000  0.69464000  1
  C  C145  1  0.03572000  0.39033000  0.69464000  1
  C  C146  1  0.49167000  0.56240000  0.70694000  1
  C  C147  1  0.21527000  0.06240000  0.70694000  1
  C  C148  1  0.46257000  0.89827000  0.72434000  1
  C  C149  1  0.26177000  0.39827000  0.72434000  1
  C  C150  1  0.59638000  0.52992000  0.72516000  1
  C  C151  1  0.12878000  0.02992000  0.72516000  1
  C  C152  1  0.38041000  0.13291000  0.72742000  1
  C  C153  1  0.34701000  0.63291000  0.72742000  1
  C  C154  1  0.57796000  0.87264000  0.72932000  1
  C  C155  1  0.15136000  0.37264000  0.72932000  1
  C  C156  1  0.53068000  0.21192000  0.74616000  1
  C  C157  1  0.21548000  0.71192000  0.74616000  1
  C  C158  1  0.44896000  0.17697000  0.77412000  1
  C  C159  1  0.32516000  0.67697000  0.77412000  1
  C  C160  1  0.83695000  0.71460000  0.77470000  1
  C  C161  1  0.93775000  0.21460000  0.77470000  1
  C  C162  1  0.77953000  0.66710000  0.78626000  1
  C  C163  1  0.00673000  0.16710000  0.78626000  1
  C  C164  1  0.45994000  0.41379000  0.79368000  1
  C  C165  1  0.33374000  0.91379000  0.79368000  1
  C  C166  1  0.44569000  0.71332000  0.79798000  1
  C  C167  1  0.35229000  0.21332000  0.79798000  1
  C  C168  1  0.58693000  0.40000000  0.80626000  1
  C  C169  1  0.21933000  0.90000000  0.80626000  1
  C  C170  1  0.88573000  0.24275000  0.81746000  1
  C  C171  1  0.93173000  0.74275000  0.81746000  1
  C  C172  1  0.41779000  0.45945000  0.82218000  1
  C  C173  1  0.40439000  0.95945000  0.82218000  1
  C  C174  1  0.52725000  0.14966000  0.82650000  1
  C  C175  1  0.29925000  0.64966000  0.82650000  1
  C  C176  1  0.73049000  0.02630000  0.83158000  1
  C  C177  1  0.10109000  0.52630000  0.83158000  1
  C  C178  1  0.81119000  0.64714000  0.84038000  1
  C  C179  1  0.02919000  0.14714000  0.84038000  1
  C  C180  1  0.67004000  0.07291000  0.84968000  1
  C  C181  1  0.17964000  0.57291000  0.84968000  1
  C  C182  1  0.67296000  0.43255000  0.84972000  1
  C  C183  1  0.17676000  0.93255000  0.84972000  1
  C  C184  1  0.50286000  0.49096000  0.86552000  1
  C  C185  1  0.36266000  0.99096000  0.86552000  1
  C  C186  1  0.51127000  0.79293000  0.86634000  1
  C  C187  1  0.63737000  0.78900000  0.86634000  1
  C  C188  1  0.22897000  0.28900000  0.86634000  1
  C  C189  1  0.35507000  0.29293000  0.86634000  1
  C  C190  1  0.77829000  0.98883000  0.87098000  1
  C  C191  1  0.09269000  0.48883000  0.87098000  1
  C  C192  1  0.90570000  0.22118000  0.87200000  1
  C  C193  1  0.96630000  0.72118000  0.87200000  1
  C  C194  1  0.63043000  0.47710000  0.87986000  1
  C  C195  1  0.24943000  0.97710000  0.87986000  1
  C  C196  1  0.90491000  0.67389000  0.88482000  1
  C  C197  1  0.97991000  0.17389000  0.88482000  1
  C  C198  1  0.72217000  0.82847000  0.89954000  1
  C  C199  1  0.17737000  0.32847000  0.89954000  1
  C  C200  1  0.47638000  0.83809000  0.90096000  1
  C  C201  1  0.42458000  0.33809000  0.90096000  1
  C  C202  1  0.66059000  0.08151000  0.90678000  1
  C  C203  1  0.24619000  0.58151000  0.90678000  1
  C  C204  1  0.71581000  0.50950000  0.93082000  1
  C  C205  1  0.21501000  0.00950000  0.93082000  1
  C  C206  1  0.56947000  0.87663000  0.93174000  1
  C  C207  1  0.36227000  0.37663000  0.93174000  1
  C  C208  1  0.71272000  0.04068000  0.94204000  1
  C  C209  1  0.22932000  0.54068000  0.94204000  1
  C  C210  1  0.93555000  0.65191000  0.94430000  1
  C  C211  1  0.00875000  0.15191000  0.94430000  1
  H  H212  1  0.29100000  0.95370000  0.01900000  1
  H  H213  1  0.72800000  0.45370000  0.01900000  1
  H  H214  1  0.45640000  0.09260000  0.04660000  1
  H  H215  1  0.59020000  0.59260000  0.04660000  1
  H  H216  1  0.37900000  0.88680000  0.07940000  1
  H  H217  1  0.70040000  0.38680000  0.07940000  1
  H  H218  1  0.48770000  0.65770000  0.09660000  1
  H  H219  1  0.60890000  0.15770000  0.09660000  1
  H  H220  1  0.13200000  0.76090000  0.09960000  1
  H  H221  1  0.96760000  0.26090000  0.09960000  1
  H  H222  1  0.19150000  0.17600000  0.10080000  1
  H  H223  1  0.90930000  0.67600000  0.10080000  1
  H  H224  1  0.52600000  0.47790000  0.11440000  1
  H  H225  1  0.58840000  0.97790000  0.11440000  1
  H  H226  1  0.17870000  0.04240000  0.14140000  1
  H  H227  1  0.96270000  0.54240000  0.14140000  1
  H  H228  1  0.24020000  0.57620000  0.14180000  1
  H  H229  1  0.90160000  0.07620000  0.14180000  1
  H  H230  1  0.42320000  0.82130000  0.14600000  1
  H  H231  1  0.72280000  0.32130000  0.14600000  1
  H  H232  1  0.23130000  0.38500000  0.15280000  1
  H  H233  1  0.92150000  0.88500000  0.15280000  1
  H  H234  1  0.53020000  0.86890000  0.15420000  1
  H  H235  1  0.62400000  0.36890000  0.15420000  1
  H  H236  1  0.33400000  0.24040000  0.15620000  1
  H  H237  1  0.82220000  0.74040000  0.15620000  1
  H  H238  1  0.48620000  0.30940000  0.18160000  1
  H  H239  1  0.69540000  0.80940000  0.18160000  1
  H  H240  1  0.51930000  0.03070000  0.18760000  1
  H  H241  1  0.66830000  0.53070000  0.18760000  1
  H  H242  1  0.16170000  0.72460000  0.18980000  1
  H  H243  1  0.02810000  0.22460000  0.18980000  1
  H  H244  1  0.26120000  0.97980000  0.20680000  1
  H  H245  1  0.94560000  0.47980000  0.20680000  1
  H  H246  1  0.38460000  0.63100000  0.21420000  1
  H  H247  1  0.82960000  0.13100000  0.21420000  1
  H  H248  1  0.41660000  0.76100000  0.22500000  1
  H  H249  1  0.80840000  0.26100000  0.22500000  1
  H  H250  1  0.52540000  0.27130000  0.23360000  1
  H  H251  1  0.70820000  0.77130000  0.23360000  1
  H  H252  1  0.35860000  0.46640000  0.23620000  1
  H  H253  1  0.87760000  0.96640000  0.23620000  1
  H  H254  1  0.28240000  0.35230000  0.24300000  1
  H  H255  1  0.96060000  0.85230000  0.24300000  1
  H  H256  1  0.39760000  0.15540000  0.24540000  1
  H  H257  1  0.84780000  0.65540000  0.24540000  1
  H  H258  1  0.41330000  0.81230000  0.27200000  1
  H  H259  1  0.85870000  0.31230000  0.27200000  1
  H  H260  1  0.55690000  0.89220000  0.28500000  1
  H  H261  1  0.72810000  0.39220000  0.28500000  1
  H  H262  1  0.31500000  0.73270000  0.29900000  1
  H  H263  1  0.98400000  0.23270000  0.29900000  1
  H  H264  1  0.29640000  0.53000000  0.30100000  1
  H  H265  1  0.00460000  0.03000000  0.30100000  1
  H  H266  1  0.26250000  0.12720000  0.30360000  1
  H  H267  1  0.04110000  0.62720000  0.30360000  1
  H  H268  1  0.64210000  0.34840000  0.30600000  1
  H  H269  1  0.66390000  0.84840000  0.30600000  1
  H  H270  1  0.65290000  0.04490000  0.31540000  1
  H  H271  1  0.66250000  0.54490000  0.31540000  1
  H  H272  1  0.43220000  0.24700000  0.32280000  1
  H  H273  1  0.89060000  0.74700000  0.32280000  1
  H  H274  1  0.20220000  0.84600000  0.33960000  1
  H  H275  1  0.13740000  0.34600000  0.33960000  1
  H  H276  1  0.25710000  0.66570000  0.35260000  1
  H  H277  1  0.09550000  0.16570000  0.35260000  1
  H  H278  1  0.64390000  0.42400000  0.36440000  1
  H  H279  1  0.72050000  0.92400000  0.36440000  1
  H  H280  1  0.51160000  0.01180000  0.36560000  1
  H  H281  1  0.85400000  0.51180000  0.36560000  1
  H  H282  1  0.68130000  0.69690000  0.36680000  1
  H  H283  1  0.68550000  0.19690000  0.36680000  1
  H  H284  1  0.55900000  0.29630000  0.40580000  1
  H  H285  1  0.84680000  0.79630000  0.40580000  1
  H  H286  1  0.61100000  0.63230000  0.41840000  1
  H  H287  1  0.80740000  0.13230000  0.41840000  1
  H  H288  1  0.26480000  0.39230000  0.42300000  1
  H  H289  1  0.15820000  0.89230000  0.42300000  1
  H  H290  1  0.56630000  0.48820000  0.42560000  1
  H  H291  1  0.85930000  0.98820000  0.42560000  1
  H  H292  1  0.43370000  0.51180000  0.57440000  1
  H  H293  1  0.14070000  0.01180000  0.57440000  1
  H  H294  1  0.73520000  0.60770000  0.57700000  1
  H  H295  1  0.84180000  0.10770000  0.57700000  1
  H  H296  1  0.38900000  0.36770000  0.58160000  1
  H  H297  1  0.19260000  0.86770000  0.58160000  1
  H  H298  1  0.44100000  0.70370000  0.59420000  1
  H  H299  1  0.15320000  0.20370000  0.59420000  1
  H  H300  1  0.31870000  0.30310000  0.63320000  1
  H  H301  1  0.31450000  0.80310000  0.63320000  1
  H  H302  1  0.48840000  0.98820000  0.63440000  1
  H  H303  1  0.14600000  0.48820000  0.63440000  1
  H  H304  1  0.35610000  0.57600000  0.63560000  1
  H  H305  1  0.27950000  0.07600000  0.63560000  1
  H  H306  1  0.74290000  0.33430000  0.64740000  1
  H  H307  1  0.90450000  0.83430000  0.64740000  1
  H  H308  1  0.79780000  0.15400000  0.66040000  1
  H  H309  1  0.86260000  0.65400000  0.66040000  1
  H  H310  1  0.56780000  0.75300000  0.67720000  1
  H  H311  1  0.10940000  0.25300000  0.67720000  1
  H  H312  1  0.34710000  0.95510000  0.68460000  1
  H  H313  1  0.33750000  0.45510000  0.68460000  1
  H  H314  1  0.35790000  0.65160000  0.69400000  1
  H  H315  1  0.33610000  0.15160000  0.69400000  1
  H  H316  1  0.73750000  0.87280000  0.69640000  1
  H  H317  1  0.95890000  0.37280000  0.69640000  1
  H  H318  1  0.70360000  0.47000000  0.69900000  1
  H  H319  1  0.99540000  0.97000000  0.69900000  1
  H  H320  1  0.68500000  0.26730000  0.70100000  1
  H  H321  1  0.01600000  0.76730000  0.70100000  1
  H  H322  1  0.44310000  0.10780000  0.71500000  1
  H  H323  1  0.27190000  0.60780000  0.71500000  1
  H  H324  1  0.58670000  0.18770000  0.72800000  1
  H  H325  1  0.14130000  0.68770000  0.72800000  1
  H  H326  1  0.60240000  0.84460000  0.75460000  1
  H  H327  1  0.15220000  0.34460000  0.75460000  1
  H  H328  1  0.71760000  0.64770000  0.75700000  1
  H  H329  1  0.03940000  0.14770000  0.75700000  1
  H  H330  1  0.64140000  0.53360000  0.76380000  1
  H  H331  1  0.12240000  0.03360000  0.76380000  1
  H  H332  1  0.47460000  0.72870000  0.76640000  1
  H  H333  1  0.29180000  0.22870000  0.76640000  1
  H  H334  1  0.58340000  0.23900000  0.77500000  1
  H  H335  1  0.19160000  0.73900000  0.77500000  1
  H  H336  1  0.61540000  0.36900000  0.78580000  1
  H  H337  1  0.17040000  0.86900000  0.78580000  1
  H  H338  1  0.73880000  0.02020000  0.79320000  1
  H  H339  1  0.05440000  0.52020000  0.79320000  1
  H  H340  1  0.83830000  0.27540000  0.81020000  1
  H  H341  1  0.97190000  0.77540000  0.81020000  1
  H  H342  1  0.48070000  0.96930000  0.81240000  1
  H  H343  1  0.33170000  0.46930000  0.81240000  1
  H  H344  1  0.51380000  0.69060000  0.81840000  1
  H  H345  1  0.30460000  0.19060000  0.81840000  1
  H  H346  1  0.66600000  0.75960000  0.84380000  1
  H  H347  1  0.17780000  0.25960000  0.84380000  1
  H  H348  1  0.46980000  0.13110000  0.84580000  1
  H  H349  1  0.37600000  0.63110000  0.84580000  1
  H  H350  1  0.76870000  0.61500000  0.84720000  1
  H  H351  1  0.07850000  0.11500000  0.84720000  1
  H  H352  1  0.57680000  0.17870000  0.85400000  1
  H  H353  1  0.27720000  0.67870000  0.85400000  1
  H  H354  1  0.75980000  0.42380000  0.85820000  1
  H  H355  1  0.09840000  0.92380000  0.85820000  1
  H  H356  1  0.82130000  0.95760000  0.85860000  1
  H  H357  1  0.03730000  0.45760000  0.85860000  1
  H  H358  1  0.47400000  0.52210000  0.88560000  1
  H  H359  1  0.41160000  0.02210000  0.88560000  1
  H  H360  1  0.80850000  0.82400000  0.89920000  1
  H  H361  1  0.09070000  0.32400000  0.89920000  1
  H  H362  1  0.86800000  0.23910000  0.90040000  1
  H  H363  1  0.03240000  0.73910000  0.90040000  1
  H  H364  1  0.51230000  0.34230000  0.90340000  1
  H  H365  1  0.39110000  0.84230000  0.90340000  1
  H  H366  1  0.62100000  0.11320000  0.92060000  1
  H  H367  1  0.29960000  0.61320000  0.92060000  1
  H  H368  1  0.54360000  0.90740000  0.95340000  1
  H  H369  1  0.40980000  0.40740000  0.95340000  1
  H  H370  1  0.70900000  0.04630000  0.98100000  1
  H  H371  1  0.27200000  0.54630000  0.98100000  1
  N  N372  1  0.30749000  0.12743000  0.06778000  1
  N  N373  1  0.76029000  0.62743000  0.06778000  1
  N  N374  1  0.23193000  0.00616000  0.07446000  1
  N  N375  1  0.84253000  0.50616000  0.07446000  1
  N  N376  1  0.42308000  0.51574000  0.37116000  1
  N  N377  1  0.94808000  0.01574000  0.37116000  1
  N  N378  1  0.42686000  0.64023000  0.38932000  1
  N  N379  1  0.96246000  0.14023000  0.38932000  1
  N  N380  1  0.57314000  0.35977000  0.61068000  1
  N  N381  1  0.03754000  0.85977000  0.61068000  1
  N  N382  1  0.57692000  0.48426000  0.62884000  1
  N  N383  1  0.05192000  0.98426000  0.62884000  1
  N  N384  1  0.76807000  0.99384000  0.92554000  1
  N  N385  1  0.15747000  0.49384000  0.92554000  1
  N  N386  1  0.69251000  0.87257000  0.93222000  1
  N  N387  1  0.23971000  0.37257000  0.93222000  1
  Ni  Ni388  1  0.17719000  0.06997000  0.01700000  1
  Ni  Ni389  1  0.83981000  0.56997000  0.01700000  1
  Ni  Ni390  1  0.36883000  0.57397000  0.42990000  1
  Ni  Ni391  1  0.06107000  0.07397000  0.42990000  1
  Ni  Ni392  1  0.63117000  0.42603000  0.57010000  1
  Ni  Ni393  1  0.93893000  0.92603000  0.57010000  1
  Ni  Ni394  1  0.82281000  0.93003000  0.98300000  1
  Ni  Ni395  1  0.16019000  0.43003000  0.98300000  1
  O  O396  1  0.06613000  0.83738000  0.02326000  1
  O  O397  1  0.95713000  0.33738000  0.02326000  1
  O  O398  1  0.33474000  0.45622000  0.03688000  1
  O  O399  1  0.70214000  0.95622000  0.03688000  1
  O  O400  1  0.15622000  0.37522000  0.04404000  1
  O  O401  1  0.88782000  0.87522000  0.04404000  1
  O  O402  1  0.16370000  0.49685000  0.05740000  1
  O  O403  1  0.89370000  0.99685000  0.05740000  1
  O  O404  1  0.57935000  0.74166000  0.16310000  1
  O  O405  1  0.58375000  0.24166000  0.16310000  1
  O  O406  1  0.38686000  0.89164000  0.19252000  1
  O  O407  1  0.80566000  0.39164000  0.19252000  1
  O  O408  1  0.62239000  0.62378000  0.24618000  1
  O  O409  1  0.62379000  0.12378000  0.24618000  1
  O  O410  1  0.54157000  0.40013000  0.25234000  1
  O  O411  1  0.71077000  0.90013000  0.25234000  1
  O  O412  1  0.19692000  0.25981000  0.27604000  1
  O  O413  1  0.07912000  0.75981000  0.27604000  1
  O  O414  1  0.55519000  0.75915000  0.29658000  1
  O  O415  1  0.74139000  0.25915000  0.29658000  1
  O  O416  1  0.19638000  0.08052000  0.38296000  1
  O  O417  1  0.18658000  0.58052000  0.38296000  1
  O  O418  1  0.31371000  0.00568000  0.40262000  1
  O  O419  1  0.08891000  0.50568000  0.40262000  1
  O  O420  1  0.54364000  0.58168000  0.49428000  1
  O  O421  1  0.95064000  0.08168000  0.49428000  1
  O  O422  1  0.62103000  0.36611000  0.49446000  1
  O  O423  1  0.87343000  0.86611000  0.49446000  1
  O  O424  1  0.37897000  0.63389000  0.50554000  1
  O  O425  1  0.12657000  0.13389000  0.50554000  1
  O  O426  1  0.45636000  0.41832000  0.50572000  1
  O  O427  1  0.04936000  0.91832000  0.50572000  1
  O  O428  1  0.68629000  0.99432000  0.59738000  1
  O  O429  1  0.91109000  0.49432000  0.59738000  1
  O  O430  1  0.80362000  0.91948000  0.61704000  1
  O  O431  1  0.81342000  0.41948000  0.61704000  1
  O  O432  1  0.44481000  0.24085000  0.70342000  1
  O  O433  1  0.25861000  0.74085000  0.70342000  1
  O  O434  1  0.80308000  0.74019000  0.72396000  1
  O  O435  1  0.92088000  0.24019000  0.72396000  1
  O  O436  1  0.45843000  0.59987000  0.74766000  1
  O  O437  1  0.28923000  0.09987000  0.74766000  1
  O  O438  1  0.37761000  0.37622000  0.75382000  1
  O  O439  1  0.37621000  0.87622000  0.75382000  1
  O  O440  1  0.61314000  0.10836000  0.80748000  1
  O  O441  1  0.19434000  0.60836000  0.80748000  1
  O  O442  1  0.42065000  0.25834000  0.83690000  1
  O  O443  1  0.41625000  0.75834000  0.83690000  1
  O  O444  1  0.83630000  0.50315000  0.94260000  1
  O  O445  1  0.10630000  0.00315000  0.94260000  1
  O  O446  1  0.84378000  0.62478000  0.95596000  1
  O  O447  1  0.11218000  0.12478000  0.95596000  1
  O  O448  1  0.66526000  0.54378000  0.96312000  1
  O  O449  1  0.29786000  0.04378000  0.96312000  1
  O  O450  1  0.93387000  0.16262000  0.97674000  1
  O  O451  1  0.04287000  0.66262000  0.97674000  1
