# generated using pymatgen
data_MnH10(C3O)6
_symmetry_space_group_name_H-M   'P 1'
_cell_length_a   9.55100000
_cell_length_b   10.37455263
_cell_length_c   33.87900000
_cell_angle_alpha   92.41273643
_cell_angle_beta   90.00000000
_cell_angle_gamma   117.40704884
_symmetry_Int_Tables_number   1
_chemical_formula_structural   MnH10(C3O)6
_chemical_formula_sum   'Mn6 H60 C108 O36'
_cell_volume   2976.83613525
_cell_formula_units_Z   6
loop_
 _symmetry_equiv_pos_site_id
 _symmetry_equiv_pos_as_xyz
  1  'x, y, z'
loop_
 _atom_site_type_symbol
 _atom_site_label
 _atom_site_symmetry_multiplicity
 _atom_site_fract_x
 _atom_site_fract_y
 _atom_site_fract_z
 _atom_site_occupancy
  C  C0  1  0.79790000  0.97420000  0.44990000  1
  C  C1  1  0.17630000  0.97420000  0.94990000  1
  C  C2  1  0.90020000  0.96780000  0.38260000  1
  C  C3  1  0.06760000  0.96780000  0.88260000  1
  C  C4  1  0.77390000  0.93760000  0.40780000  1
  C  C5  1  0.16370000  0.93760000  0.90780000  1
  C  C6  1  0.87760000  0.93040000  0.34330000  1
  C  C7  1  0.05280000  0.93040000  0.84330000  1
  C  C8  1  0.62220000  0.86820000  0.39100000  1
  C  C9  1  0.24600000  0.86820000  0.89100000  1
  C  C10  1  0.57910000  0.86200000  0.58120000  1
  C  C11  1  0.28290000  0.86200000  0.08120000  1
  C  C12  1  0.72310000  0.85880000  0.32810000  1
  C  C13  1  0.13570000  0.85880000  0.82810000  1
  C  C14  1  0.59790000  0.83020000  0.35170000  1
  C  C15  1  0.23230000  0.83020000  0.85170000  1
  C  C16  1  0.49040000  0.80340000  0.61800000  1
  C  C17  1  0.31300000  0.80340000  0.11800000  1
  C  C18  1  0.44700000  0.78620000  0.12250000  1
  C  C19  1  0.33920000  0.78620000  0.62250000  1
  C  C20  1  0.55780000  0.77860000  0.94910000  1
  C  C21  1  0.22080000  0.77860000  0.44910000  1
  C  C22  1  0.55780000  0.75880000  0.64710000  1
  C  C23  1  0.20100000  0.75880000  0.14710000  1
  C  C24  1  0.75580000  0.73780000  0.22920000  1
  C  C25  1  0.98200000  0.73780000  0.72920000  1
  C  C26  1  0.73710000  0.72780000  0.26910000  1
  C  C27  1  0.99070000  0.72780000  0.76910000  1
  C  C28  1  0.46520000  0.71860000  0.15500000  1
  C  C29  1  0.25340000  0.71860000  0.65500000  1
  C  C30  1  0.47270000  0.69200000  0.68020000  1
  C  C31  1  0.21930000  0.69200000  0.18020000  1
  C  C32  1  0.52640000  0.66840000  0.87990000  1
  C  C33  1  0.14200000  0.66840000  0.37990000  1
  C  C34  1  0.46300000  0.66800000  0.91670000  1
  C  C35  1  0.20500000  0.66800000  0.41670000  1
  C  C36  1  0.34940000  0.66760000  0.18300000  1
  C  C37  1  0.31820000  0.66760000  0.68300000  1
  C  C38  1  0.77680000  0.63060000  0.20890000  1
  C  C39  1  0.85380000  0.63060000  0.70890000  1
  C  C40  1  0.73970000  0.61560000  0.28920000  1
  C  C41  1  0.87590000  0.61560000  0.78920000  1
  C  C42  1  0.43800000  0.56800000  0.85050000  1
  C  C43  1  0.13000000  0.56800000  0.35050000  1
  C  C44  1  0.31080000  0.56480000  0.92330000  1
  C  C45  1  0.25400000  0.56480000  0.42330000  1
  C  C46  1  0.76200000  0.53960000  0.60530000  1
  C  C47  1  0.77760000  0.53960000  0.10530000  1
  C  C48  1  0.71380000  0.53640000  0.14180000  1
  C  C49  1  0.82260000  0.53640000  0.64180000  1
  C  C50  1  0.73430000  0.51720000  0.72770000  1
  C  C51  1  0.78290000  0.51720000  0.22770000  1
  C  C52  1  0.74950000  0.51140000  0.76810000  1
  C  C53  1  0.76190000  0.51140000  0.26810000  1
  C  C54  1  0.25050000  0.48860000  0.23190000  1
  C  C55  1  0.23810000  0.48860000  0.73190000  1
  C  C56  1  0.26570000  0.48280000  0.27230000  1
  C  C57  1  0.21710000  0.48280000  0.77230000  1
  C  C58  1  0.28620000  0.46360000  0.85820000  1
  C  C59  1  0.17740000  0.46360000  0.35820000  1
  C  C60  1  0.23800000  0.46040000  0.39470000  1
  C  C61  1  0.22240000  0.46040000  0.89470000  1
  C  C62  1  0.68920000  0.43520000  0.07670000  1
  C  C63  1  0.74600000  0.43520000  0.57670000  1
  C  C64  1  0.56200000  0.43200000  0.14950000  1
  C  C65  1  0.87000000  0.43200000  0.64950000  1
  C  C66  1  0.26030000  0.38440000  0.71080000  1
  C  C67  1  0.12410000  0.38440000  0.21080000  1
  C  C68  1  0.22320000  0.36940000  0.79110000  1
  C  C69  1  0.14620000  0.36940000  0.29110000  1
  C  C70  1  0.65060000  0.33240000  0.81700000  1
  C  C71  1  0.68180000  0.33240000  0.31700000  1
  C  C72  1  0.53700000  0.33200000  0.08330000  1
  C  C73  1  0.79500000  0.33200000  0.58330000  1
  C  C74  1  0.47360000  0.33160000  0.12010000  1
  C  C75  1  0.85800000  0.33160000  0.62010000  1
  C  C76  1  0.52730000  0.30800000  0.31980000  1
  C  C77  1  0.78070000  0.30800000  0.81980000  1
  C  C78  1  0.53480000  0.28140000  0.84500000  1
  C  C79  1  0.74660000  0.28140000  0.34500000  1
  C  C80  1  0.26290000  0.27220000  0.73090000  1
  C  C81  1  0.00930000  0.27220000  0.23090000  1
  C  C82  1  0.24420000  0.26220000  0.77080000  1
  C  C83  1  0.01800000  0.26220000  0.27080000  1
  C  C84  1  0.44220000  0.24120000  0.35290000  1
  C  C85  1  0.79900000  0.24120000  0.85290000  1
  C  C86  1  0.44220000  0.22140000  0.05090000  1
  C  C87  1  0.77920000  0.22140000  0.55090000  1
  C  C88  1  0.55300000  0.21380000  0.87750000  1
  C  C89  1  0.66080000  0.21380000  0.37750000  1
  C  C90  1  0.50960000  0.19660000  0.38200000  1
  C  C91  1  0.68700000  0.19660000  0.88200000  1
  C  C92  1  0.40210000  0.16980000  0.64830000  1
  C  C93  1  0.76770000  0.16980000  0.14830000  1
  C  C94  1  0.27690000  0.14120000  0.67190000  1
  C  C95  1  0.86430000  0.14120000  0.17190000  1
  C  C96  1  0.42090000  0.13800000  0.41880000  1
  C  C97  1  0.71710000  0.13800000  0.91880000  1
  C  C98  1  0.37780000  0.13180000  0.60900000  1
  C  C99  1  0.75400000  0.13180000  0.10900000  1
  C  C100  1  0.12240000  0.06960000  0.65670000  1
  C  C101  1  0.94720000  0.06960000  0.15670000  1
  C  C102  1  0.22610000  0.06240000  0.59220000  1
  C  C103  1  0.83630000  0.06240000  0.09220000  1
  C  C104  1  0.09980000  0.03220000  0.61740000  1
  C  C105  1  0.93240000  0.03220000  0.11740000  1
  C  C106  1  0.20210000  0.02580000  0.55010000  1
  C  C107  1  0.82370000  0.02580000  0.05010000  1
  H  H108  1  0.98780000  0.98520000  0.10700000  1
  H  H109  1  0.99740000  0.98520000  0.60700000  1
  H  H110  1  0.96290000  0.95200000  0.32690000  1
  H  H111  1  0.98910000  0.95200000  0.82690000  1
  H  H112  1  0.53590000  0.84740000  0.40700000  1
  H  H113  1  0.31150000  0.84740000  0.90700000  1
  H  H114  1  0.52510000  0.82020000  0.10370000  1
  H  H115  1  0.29510000  0.82020000  0.60370000  1
  H  H116  1  0.75420000  0.81440000  0.21630000  1
  H  H117  1  0.06020000  0.81440000  0.71630000  1
  H  H118  1  0.49590000  0.78480000  0.34110000  1
  H  H119  1  0.28890000  0.78480000  0.84110000  1
  H  H120  1  0.66090000  0.77340000  0.64450000  1
  H  H121  1  0.11250000  0.77340000  0.14450000  1
  H  H122  1  0.62930000  0.73700000  0.87500000  1
  H  H123  1  0.10770000  0.73700000  0.37500000  1
  H  H124  1  0.55580000  0.70740000  0.15800000  1
  H  H125  1  0.15160000  0.70740000  0.65800000  1
  H  H126  1  0.51910000  0.66440000  0.70010000  1
  H  H127  1  0.14530000  0.66440000  0.20010000  1
  H  H128  1  0.72660000  0.61120000  0.31640000  1
  H  H129  1  0.88460000  0.61120000  0.81640000  1
  H  H130  1  0.73230000  0.61080000  0.60000000  1
  H  H131  1  0.87850000  0.61080000  0.10000000  1
  H  H132  1  0.47990000  0.56980000  0.82570000  1
  H  H133  1  0.08990000  0.56980000  0.32570000  1
  H  H134  1  0.29900000  0.56560000  0.44770000  1
  H  H135  1  0.26660000  0.56560000  0.94770000  1
  H  H136  1  0.35310000  0.55280000  0.28640000  1
  H  H137  1  0.19970000  0.55280000  0.78640000  1
  H  H138  1  0.64690000  0.44720000  0.71360000  1
  H  H139  1  0.80030000  0.44720000  0.21360000  1
  H  H140  1  0.70100000  0.43440000  0.55230000  1
  H  H141  1  0.73340000  0.43440000  0.05230000  1
  H  H142  1  0.52010000  0.43020000  0.17430000  1
  H  H143  1  0.91010000  0.43020000  0.67430000  1
  H  H144  1  0.26770000  0.38920000  0.40000000  1
  H  H145  1  0.12150000  0.38920000  0.90000000  1
  H  H146  1  0.27340000  0.38880000  0.68360000  1
  H  H147  1  0.11540000  0.38880000  0.18360000  1
  H  H148  1  0.48090000  0.33560000  0.29990000  1
  H  H149  1  0.85470000  0.33560000  0.79990000  1
  H  H150  1  0.44420000  0.29260000  0.84200000  1
  H  H151  1  0.84840000  0.29260000  0.34200000  1
  H  H152  1  0.37070000  0.26300000  0.12500000  1
  H  H153  1  0.89230000  0.26300000  0.62500000  1
  H  H154  1  0.33910000  0.22660000  0.35550000  1
  H  H155  1  0.88750000  0.22660000  0.85550000  1
  H  H156  1  0.50410000  0.21520000  0.65890000  1
  H  H157  1  0.71110000  0.21520000  0.15890000  1
  H  H158  1  0.24580000  0.18560000  0.78370000  1
  H  H159  1  0.93980000  0.18560000  0.28370000  1
  H  H160  1  0.47490000  0.17980000  0.89630000  1
  H  H161  1  0.70490000  0.17980000  0.39630000  1
  H  H162  1  0.46410000  0.15260000  0.59300000  1
  H  H163  1  0.68850000  0.15260000  0.09300000  1
  H  H164  1  0.03710000  0.04800000  0.67310000  1
  H  H165  1  0.01090000  0.04800000  0.17310000  1
  H  H166  1  0.01220000  0.01480000  0.89300000  1
  H  H167  1  0.00260000  0.01480000  0.39300000  1
  Mn  Mn168  1  0.50000000  1.00000000  1.00000000  1
  Mn  Mn169  1  0.50000000  1.00000000  0.50000000  1
  Mn  Mn170  1  0.83262000  0.95974000  0.52827000  1
  Mn  Mn171  1  0.12712000  0.95974000  0.02827000  1
  Mn  Mn172  1  0.16738000  0.04026000  0.47173000  1
  Mn  Mn173  1  0.87288000  0.04026000  0.97173000  1
  O  O174  1  0.91500000  0.97980000  0.03460000  1
  O  O175  1  0.06480000  0.97980000  0.53460000  1
  O  O176  1  0.68340000  0.95060000  0.47258000  1
  O  O177  1  0.26720000  0.95060000  0.97258000  1
  O  O178  1  0.51710000  0.89680000  0.55390000  1
  O  O179  1  0.37970000  0.89680000  0.05390000  1
  O  O180  1  0.71380000  0.87000000  0.57880000  1
  O  O181  1  0.15620000  0.87000000  0.07880000  1
  O  O182  1  0.70710000  0.83600000  0.94689000  1
  O  O183  1  0.12890000  0.83600000  0.44689000  1
  O  O184  1  0.69920000  0.83100000  0.28772000  1
  O  O185  1  0.13180000  0.83100000  0.78772000  1
  O  O186  1  0.48260000  0.80300000  0.97559000  1
  O  O187  1  0.32040000  0.80300000  0.47559000  1
  O  O188  1  0.80660000  0.64820000  0.16857000  1
  O  O189  1  0.84160000  0.64820000  0.66857000  1
  O  O190  1  0.37590000  0.60120000  0.21470000  1
  O  O191  1  0.22530000  0.60120000  0.71470000  1
  O  O192  1  0.62410000  0.39880000  0.78530000  1
  O  O193  1  0.77470000  0.39880000  0.28530000  1
  O  O194  1  0.19340000  0.35180000  0.83143000  1
  O  O195  1  0.15840000  0.35180000  0.33143000  1
  O  O196  1  0.51740000  0.19700000  0.02441000  1
  O  O197  1  0.67960000  0.19700000  0.52441000  1
  O  O198  1  0.30080000  0.16900000  0.71228000  1
  O  O199  1  0.86820000  0.16900000  0.21228000  1
  O  O200  1  0.29290000  0.16400000  0.05311000  1
  O  O201  1  0.87110000  0.16400000  0.55311000  1
  O  O202  1  0.28620000  0.13000000  0.42120000  1
  O  O203  1  0.84380000  0.13000000  0.92120000  1
  O  O204  1  0.48290000  0.10320000  0.44610000  1
  O  O205  1  0.62030000  0.10320000  0.94610000  1
  O  O206  1  0.31660000  0.04940000  0.52742000  1
  O  O207  1  0.73280000  0.04940000  0.02742000  1
  O  O208  1  0.08500000  0.02020000  0.96540000  1
  O  O209  1  0.93520000  0.02020000  0.46540000  1
