# generated using pymatgen
data_InH11C12O5
_symmetry_space_group_name_H-M   'P 1'
_cell_length_a   15.67290000
_cell_length_b   18.21740000
_cell_length_c   23.59900000
_cell_angle_alpha   90.00000000
_cell_angle_beta   90.00000000
_cell_angle_gamma   105.44600000
_symmetry_Int_Tables_number   1
_chemical_formula_structural   InH11C12O5
_chemical_formula_sum   'In12 H132 C144 O60'
_cell_volume   6494.61151694
_cell_formula_units_Z   12
loop_
 _symmetry_equiv_pos_site_id
 _symmetry_equiv_pos_as_xyz
  1  'x, y, z'
loop_
 _atom_site_type_symbol
 _atom_site_label
 _atom_site_symmetry_multiplicity
 _atom_site_fract_x
 _atom_site_fract_y
 _atom_site_fract_z
 _atom_site_occupancy
  In  In0  1  0.00000000  0.00000000  0.00000000  1
  In  In1  1  1.00000000  0.50000000  0.50000000  1
  In  In2  1  0.80922000  0.34454000  0.46962000  1
  In  In3  1  0.80922000  0.84454000  0.03038000  1
  In  In4  1  0.70998000  0.13437000  0.48621000  1
  In  In5  1  0.70998000  0.63437000  0.01379000  1
  In  In6  1  0.50000000  0.50000000  0.00000000  1
  In  In7  1  0.50000000  1.00000000  0.50000000  1
  In  In8  1  0.29002000  0.36563000  0.98621000  1
  In  In9  1  0.29002000  0.86563000  0.51379000  1
  In  In10  1  0.19078000  0.15546000  0.96962000  1
  In  In11  1  0.19078000  0.65546000  0.53038000  1
  H  H12  1  0.99990000  0.72720000  0.93610000  1
  H  H13  1  0.99990000  0.22720000  0.56390000  1
  H  H14  1  0.92440000  0.68530000  0.26140000  1
  H  H15  1  0.92440000  0.18530000  0.23860000  1
  H  H16  1  0.91430000  0.44910000  0.40310000  1
  H  H17  1  0.91430000  0.94910000  0.09690000  1
  H  H18  1  0.89980000  0.82320000  0.47430000  1
  H  H19  1  0.89980000  0.32320000  0.02570000  1
  H  H20  1  0.89590000  0.63890000  0.31740000  1
  H  H21  1  0.89590000  0.13890000  0.18260000  1
  H  H22  1  0.87440000  0.64300000  0.40430000  1
  H  H23  1  0.87440000  0.14300000  0.09570000  1
  H  H24  1  0.84430000  0.31970000  0.30250000  1
  H  H25  1  0.84430000  0.81970000  0.19750000  1
  H  H26  1  0.82710000  0.63450000  0.26840000  1
  H  H27  1  0.82710000  0.13450000  0.23160000  1
  H  H28  1  0.82140000  0.86150000  0.47130000  1
  H  H29  1  0.82140000  0.36150000  0.02870000  1
  H  H30  1  0.81380000  0.95450000  0.41270000  1
  H  H31  1  0.81380000  0.45450000  0.08730000  1
  H  H32  1  0.80510000  0.95360000  0.27420000  1
  H  H33  1  0.80510000  0.45360000  0.22580000  1
  H  H34  1  0.80190000  0.77320000  0.47950000  1
  H  H35  1  0.80190000  0.27320000  0.02050000  1
  H  H36  1  0.78370000  0.04030000  0.87480000  1
  H  H37  1  0.78370000  0.54030000  0.62520000  1
  H  H38  1  0.76890000  0.38890000  0.27030000  1
  H  H39  1  0.76890000  0.88890000  0.22970000  1
  H  H40  1  0.76290000  0.98110000  0.77270000  1
  H  H41  1  0.76290000  0.48110000  0.72730000  1
  H  H42  1  0.73490000  0.17670000  0.29140000  1
  H  H43  1  0.73490000  0.67670000  0.20860000  1
  H  H44  1  0.70760000  0.44860000  0.78140000  1
  H  H45  1  0.70760000  0.94860000  0.71860000  1
  H  H46  1  0.70760000  0.90250000  0.27890000  1
  H  H47  1  0.70760000  0.40250000  0.22110000  1
  H  H48  1  0.70730000  0.89580000  0.77110000  1
  H  H49  1  0.70730000  0.39580000  0.72890000  1
  H  H50  1  0.69220000  0.56390000  0.82160000  1
  H  H51  1  0.69220000  0.06390000  0.67840000  1
  H  H52  1  0.69170000  0.75760000  0.96160000  1
  H  H53  1  0.69170000  0.25760000  0.53840000  1
  H  H54  1  0.66530000  0.90550000  0.90000000  1
  H  H55  1  0.66530000  0.40550000  0.60000000  1
  H  H56  1  0.66060000  0.53440000  0.33960000  1
  H  H57  1  0.66060000  0.03440000  0.16040000  1
  H  H58  1  0.64710000  0.88210000  0.37510000  1
  H  H59  1  0.64710000  0.38210000  0.12490000  1
  H  H60  1  0.63630000  0.02740000  0.26520000  1
  H  H61  1  0.63630000  0.52740000  0.23480000  1
  H  H62  1  0.58690000  0.94040000  0.26430000  1
  H  H63  1  0.58690000  0.44040000  0.23570000  1
  H  H64  1  0.58070000  0.02940000  0.94300000  1
  H  H65  1  0.58070000  0.52940000  0.55700000  1
  H  H66  1  0.57150000  0.40410000  0.38870000  1
  H  H67  1  0.57150000  0.90410000  0.11130000  1
  H  H68  1  0.56160000  0.99390000  0.30960000  1
  H  H69  1  0.56160000  0.49390000  0.19040000  1
  H  H70  1  0.54330000  0.15010000  0.47770000  1
  H  H71  1  0.54330000  0.65010000  0.02230000  1
  H  H72  1  0.53700000  0.45550000  0.83700000  1
  H  H73  1  0.53700000  0.95550000  0.66300000  1
  H  H74  1  0.53510000  0.94170000  0.94490000  1
  H  H75  1  0.53510000  0.44170000  0.55510000  1
  H  H76  1  0.52240000  0.50050000  0.43740000  1
  H  H77  1  0.52240000  0.00050000  0.06260000  1
  H  H78  1  0.47760000  0.99950000  0.93740000  1
  H  H79  1  0.47760000  0.49950000  0.56260000  1
  H  H80  1  0.46490000  0.55830000  0.44490000  1
  H  H81  1  0.46490000  0.05830000  0.05510000  1
  H  H82  1  0.46300000  0.04450000  0.33700000  1
  H  H83  1  0.46300000  0.54450000  0.16300000  1
  H  H84  1  0.45670000  0.34990000  0.97770000  1
  H  H85  1  0.45670000  0.84990000  0.52230000  1
  H  H86  1  0.43840000  0.50610000  0.80960000  1
  H  H87  1  0.43840000  0.00610000  0.69040000  1
  H  H88  1  0.42850000  0.09590000  0.88870000  1
  H  H89  1  0.42850000  0.59590000  0.61130000  1
  H  H90  1  0.41930000  0.47060000  0.44300000  1
  H  H91  1  0.41930000  0.97060000  0.05700000  1
  H  H92  1  0.41310000  0.55960000  0.76430000  1
  H  H93  1  0.41310000  0.05960000  0.73570000  1
  H  H94  1  0.36370000  0.47260000  0.76520000  1
  H  H95  1  0.36370000  0.97260000  0.73480000  1
  H  H96  1  0.35290000  0.61790000  0.87510000  1
  H  H97  1  0.35290000  0.11790000  0.62490000  1
  H  H98  1  0.33940000  0.96560000  0.83960000  1
  H  H99  1  0.33940000  0.46560000  0.66040000  1
  H  H100  1  0.33470000  0.59450000  0.40000000  1
  H  H101  1  0.33470000  0.09450000  0.10000000  1
  H  H102  1  0.30830000  0.74240000  0.46160000  1
  H  H103  1  0.30830000  0.24240000  0.03840000  1
  H  H104  1  0.30780000  0.93610000  0.32160000  1
  H  H105  1  0.30780000  0.43610000  0.17840000  1
  H  H106  1  0.29270000  0.60420000  0.27110000  1
  H  H107  1  0.29270000  0.10420000  0.22890000  1
  H  H108  1  0.29240000  0.59750000  0.77890000  1
  H  H109  1  0.29240000  0.09750000  0.72110000  1
  H  H110  1  0.29240000  0.05140000  0.28140000  1
  H  H111  1  0.29240000  0.55140000  0.21860000  1
  H  H112  1  0.26510000  0.32330000  0.79140000  1
  H  H113  1  0.26510000  0.82330000  0.70860000  1
  H  H114  1  0.23710000  0.51890000  0.27270000  1
  H  H115  1  0.23710000  0.01890000  0.22730000  1
  H  H116  1  0.23110000  0.11110000  0.77030000  1
  H  H117  1  0.23110000  0.61110000  0.72970000  1
  H  H118  1  0.21630000  0.45970000  0.37480000  1
  H  H119  1  0.21630000  0.95970000  0.12520000  1
  H  H120  1  0.19810000  0.72680000  0.97950000  1
  H  H121  1  0.19810000  0.22680000  0.52050000  1
  H  H122  1  0.19490000  0.54640000  0.77420000  1
  H  H123  1  0.19490000  0.04640000  0.72580000  1
  H  H124  1  0.18620000  0.54550000  0.91270000  1
  H  H125  1  0.18620000  0.04550000  0.58730000  1
  H  H126  1  0.17860000  0.63850000  0.97130000  1
  H  H127  1  0.17860000  0.13850000  0.52870000  1
  H  H128  1  0.17290000  0.86550000  0.76840000  1
  H  H129  1  0.17290000  0.36550000  0.73160000  1
  H  H130  1  0.15570000  0.18030000  0.80250000  1
  H  H131  1  0.15570000  0.68030000  0.69750000  1
  H  H132  1  0.12560000  0.85700000  0.90430000  1
  H  H133  1  0.12560000  0.35700000  0.59570000  1
  H  H134  1  0.10410000  0.86110000  0.81740000  1
  H  H135  1  0.10410000  0.36110000  0.68260000  1
  H  H136  1  0.10020000  0.67680000  0.97430000  1
  H  H137  1  0.10020000  0.17680000  0.52570000  1
  H  H138  1  0.08570000  0.05090000  0.90310000  1
  H  H139  1  0.08570000  0.55090000  0.59690000  1
  H  H140  1  0.07560000  0.81470000  0.76140000  1
  H  H141  1  0.07560000  0.31470000  0.73860000  1
  H  H142  1  0.00010000  0.77280000  0.43610000  1
  H  H143  1  0.00010000  0.27280000  0.06390000  1
  C  C144  1  0.98150000  0.83120000  0.96340000  1
  C  C145  1  0.98150000  0.33120000  0.53660000  1
  C  C146  1  0.97480000  0.72060000  0.43390000  1
  C  C147  1  0.97480000  0.22060000  0.06610000  1
  C  C148  1  0.90130000  0.69510000  0.40450000  1
  C  C149  1  0.90130000  0.19510000  0.09550000  1
  C  C150  1  0.87680000  0.66710000  0.28780000  1
  C  C151  1  0.87680000  0.16710000  0.21220000  1
  C  C152  1  0.85970000  0.74560000  0.37190000  1
  C  C153  1  0.85970000  0.24560000  0.12810000  1
  C  C154  1  0.85030000  0.73390000  0.31310000  1
  C  C155  1  0.85030000  0.23390000  0.18690000  1
  C  C156  1  0.84010000  0.81700000  0.46160000  1
  C  C157  1  0.84010000  0.31700000  0.03840000  1
  C  C158  1  0.83600000  0.80630000  0.39800000  1
  C  C159  1  0.83600000  0.30630000  0.10200000  1
  C  C160  1  0.82080000  0.96830000  0.93450000  1
  C  C161  1  0.82080000  0.46830000  0.56550000  1
  C  C162  1  0.81960000  0.78520000  0.28030000  1
  C  C163  1  0.81960000  0.28520000  0.21970000  1
  C  C164  1  0.81300000  0.27790000  0.28160000  1
  C  C165  1  0.81300000  0.77790000  0.21840000  1
  C  C166  1  0.80220000  0.85570000  0.36440000  1
  C  C167  1  0.80220000  0.35570000  0.13560000  1
  C  C168  1  0.79820000  0.84790000  0.30560000  1
  C  C169  1  0.79820000  0.34790000  0.19440000  1
  C  C170  1  0.77180000  0.91580000  0.39450000  1
  C  C171  1  0.77180000  0.41580000  0.10550000  1
  C  C172  1  0.76850000  0.21830000  0.37320000  1
  C  C173  1  0.76850000  0.71830000  0.12680000  1
  C  C174  1  0.76820000  0.21930000  0.31070000  1
  C  C175  1  0.76820000  0.71930000  0.18930000  1
  C  C176  1  0.76710000  0.90320000  0.26870000  1
  C  C177  1  0.76710000  0.40320000  0.23130000  1
  C  C178  1  0.76270000  0.99370000  0.89290000  1
  C  C179  1  0.76270000  0.49370000  0.60710000  1
  C  C180  1  0.71030000  0.43460000  0.39940000  1
  C  C181  1  0.71030000  0.93460000  0.10060000  1
  C  C182  1  0.70930000  0.94660000  0.75930000  1
  C  C183  1  0.70930000  0.44660000  0.74070000  1
  C  C184  1  0.68830000  0.91710000  0.39680000  1
  C  C185  1  0.68830000  0.41710000  0.10320000  1
  C  C186  1  0.68330000  0.95210000  0.88140000  1
  C  C187  1  0.68330000  0.45210000  0.61860000  1
  C  C188  1  0.65710000  0.97140000  0.43210000  1
  C  C189  1  0.65710000  0.47140000  0.06790000  1
  C  C190  1  0.64680000  0.54130000  0.90540000  1
  C  C191  1  0.64680000  0.04130000  0.59460000  1
  C  C192  1  0.64490000  0.53440000  0.84230000  1
  C  C193  1  0.64490000  0.03440000  0.65770000  1
  C  C194  1  0.63050000  0.96920000  0.78340000  1
  C  C195  1  0.63050000  0.46920000  0.71660000  1
  C  C196  1  0.62150000  0.44230000  0.37860000  1
  C  C197  1  0.62150000  0.94230000  0.12140000  1
  C  C198  1  0.61810000  0.97070000  0.84180000  1
  C  C199  1  0.61810000  0.47070000  0.65820000  1
  C  C200  1  0.61020000  0.49620000  0.34890000  1
  C  C201  1  0.61020000  0.99620000  0.15110000  1
  C  C202  1  0.58050000  0.99060000  0.27120000  1
  C  C203  1  0.58050000  0.49060000  0.22880000  1
  C  C204  1  0.57980000  0.48860000  0.81520000  1
  C  C205  1  0.57980000  0.98860000  0.68480000  1
  C  C206  1  0.56680000  0.48410000  0.75290000  1
  C  C207  1  0.56680000  0.98410000  0.74710000  1
  C  C208  1  0.54210000  0.98510000  0.86400000  1
  C  C209  1  0.54210000  0.48510000  0.63600000  1
  C  C210  1  0.53300000  0.98930000  0.92830000  1
  C  C211  1  0.53300000  0.48930000  0.57170000  1
  C  C212  1  0.52420000  0.50520000  0.32710000  1
  C  C213  1  0.52420000  0.00520000  0.17290000  1
  C  C214  1  0.51240000  0.50650000  0.26890000  1
  C  C215  1  0.51240000  0.00650000  0.23110000  1
  C  C216  1  0.48760000  0.99350000  0.76890000  1
  C  C217  1  0.48760000  0.49350000  0.73110000  1
  C  C218  1  0.47580000  0.99480000  0.82710000  1
  C  C219  1  0.47580000  0.49480000  0.67290000  1
  C  C220  1  0.46700000  0.51070000  0.42830000  1
  C  C221  1  0.46700000  0.01070000  0.07170000  1
  C  C222  1  0.45790000  0.51490000  0.36400000  1
  C  C223  1  0.45790000  0.01490000  0.13600000  1
  C  C224  1  0.43320000  0.01590000  0.25290000  1
  C  C225  1  0.43320000  0.51590000  0.24710000  1
  C  C226  1  0.42020000  0.01140000  0.31520000  1
  C  C227  1  0.42020000  0.51140000  0.18480000  1
  C  C228  1  0.41950000  0.50940000  0.77120000  1
  C  C229  1  0.41950000  0.00940000  0.72880000  1
  C  C230  1  0.38980000  0.00380000  0.84890000  1
  C  C231  1  0.38980000  0.50380000  0.65110000  1
  C  C232  1  0.38190000  0.52930000  0.34180000  1
  C  C233  1  0.38190000  0.02930000  0.15820000  1
  C  C234  1  0.37850000  0.05770000  0.87860000  1
  C  C235  1  0.37850000  0.55770000  0.62140000  1
  C  C236  1  0.36950000  0.53080000  0.28340000  1
  C  C237  1  0.36950000  0.03080000  0.21660000  1
  C  C238  1  0.35510000  0.96560000  0.34230000  1
  C  C239  1  0.35510000  0.46560000  0.15770000  1
  C  C240  1  0.35320000  0.95870000  0.40540000  1
  C  C241  1  0.35320000  0.45870000  0.09460000  1
  C  C242  1  0.34290000  0.52860000  0.93210000  1
  C  C243  1  0.34290000  0.02860000  0.56790000  1
  C  C244  1  0.31670000  0.54790000  0.38140000  1
  C  C245  1  0.31670000  0.04790000  0.11860000  1
  C  C246  1  0.31170000  0.58290000  0.89680000  1
  C  C247  1  0.31170000  0.08290000  0.60320000  1
  C  C248  1  0.29070000  0.55340000  0.25930000  1
  C  C249  1  0.29070000  0.05340000  0.24070000  1
  C  C250  1  0.28970000  0.06540000  0.89940000  1
  C  C251  1  0.28970000  0.56540000  0.60060000  1
  C  C252  1  0.23730000  0.50630000  0.39290000  1
  C  C253  1  0.23730000  0.00630000  0.10710000  1
  C  C254  1  0.23290000  0.59680000  0.76870000  1
  C  C255  1  0.23290000  0.09680000  0.73130000  1
  C  C256  1  0.23180000  0.28070000  0.81070000  1
  C  C257  1  0.23180000  0.78070000  0.68930000  1
  C  C258  1  0.23150000  0.28170000  0.87320000  1
  C  C259  1  0.23150000  0.78170000  0.62680000  1
  C  C260  1  0.22820000  0.58420000  0.89450000  1
  C  C261  1  0.22820000  0.08420000  0.60550000  1
  C  C262  1  0.20180000  0.65210000  0.80560000  1
  C  C263  1  0.20180000  0.15210000  0.69440000  1
  C  C264  1  0.19780000  0.64430000  0.86440000  1
  C  C265  1  0.19780000  0.14430000  0.63560000  1
  C  C266  1  0.18700000  0.22210000  0.78160000  1
  C  C267  1  0.18700000  0.72210000  0.71840000  1
  C  C268  1  0.18040000  0.71480000  0.78030000  1
  C  C269  1  0.18040000  0.21480000  0.71970000  1
  C  C270  1  0.17920000  0.53170000  0.43450000  1
  C  C271  1  0.17920000  0.03170000  0.06550000  1
  C  C272  1  0.16400000  0.69370000  0.89800000  1
  C  C273  1  0.16400000  0.19370000  0.60200000  1
  C  C274  1  0.15990000  0.68300000  0.96160000  1
  C  C275  1  0.15990000  0.18300000  0.53840000  1
  C  C276  1  0.14970000  0.76610000  0.81310000  1
  C  C277  1  0.14970000  0.26610000  0.68690000  1
  C  C278  1  0.14030000  0.75440000  0.87190000  1
  C  C279  1  0.14030000  0.25440000  0.62810000  1
  C  C280  1  0.12320000  0.83290000  0.78780000  1
  C  C281  1  0.12320000  0.33290000  0.71220000  1
  C  C282  1  0.09870000  0.80490000  0.90450000  1
  C  C283  1  0.09870000  0.30490000  0.59550000  1
  C  C284  1  0.02520000  0.77940000  0.93390000  1
  C  C285  1  0.02520000  0.27940000  0.56610000  1
  C  C286  1  0.01850000  0.66880000  0.46340000  1
  C  C287  1  0.01850000  0.16880000  0.03660000  1
  O  O288  1  0.99010000  0.59930000  0.45480000  1
  O  O289  1  0.99010000  0.09930000  0.04520000  1
  O  O290  1  0.91660000  0.80020000  0.99475000  1
  O  O291  1  0.91660000  0.30020000  0.50525000  1
  O  O292  1  0.90960000  0.43635000  0.44134000  1
  O  O293  1  0.90960000  0.93635000  0.05866000  1
  O  O294  1  0.89270000  0.01500000  0.94578000  1
  O  O295  1  0.89270000  0.51500000  0.55422000  1
  O  O296  1  0.82010000  0.27300000  0.39870000  1
  O  O297  1  0.82010000  0.77300000  0.10130000  1
  O  O298  1  0.79490000  0.90270000  0.95299000  1
  O  O299  1  0.79490000  0.40270000  0.54701000  1
  O  O300  1  0.77930000  0.48230000  0.38710000  1
  O  O301  1  0.77930000  0.98230000  0.11290000  1
  O  O302  1  0.72560000  0.74857000  0.99181000  1
  O  O303  1  0.72560000  0.24857000  0.50819000  1
  O  O304  1  0.71860000  0.16090000  0.39653000  1
  O  O305  1  0.71860000  0.66090000  0.10347000  1
  O  O306  1  0.71350000  0.02390000  0.45635000  1
  O  O307  1  0.71350000  0.52390000  0.04365000  1
  O  O308  1  0.70450000  0.37720000  0.42910000  1
  O  O309  1  0.70450000  0.87720000  0.07090000  1
  O  O310  1  0.70310000  0.59770000  0.92565000  1
  O  O311  1  0.70310000  0.09770000  0.57435000  1
  O  O312  1  0.59190000  0.49170000  0.93302000  1
  O  O313  1  0.59190000  0.99170000  0.56698000  1
  O  O314  1  0.57410000  0.95990000  0.43571000  1
  O  O315  1  0.57410000  0.45990000  0.06429000  1
  O  O316  1  0.57130000  0.11190000  0.48477000  1
  O  O317  1  0.57130000  0.61190000  0.01523000  1
  O  O318  1  0.42870000  0.38810000  0.98477000  1
  O  O319  1  0.42870000  0.88810000  0.51523000  1
  O  O320  1  0.42590000  0.54010000  0.93571000  1
  O  O321  1  0.42590000  0.04010000  0.56429000  1
  O  O322  1  0.40810000  0.00830000  0.43302000  1
  O  O323  1  0.40810000  0.50830000  0.06698000  1
  O  O324  1  0.29690000  0.90230000  0.42565000  1
  O  O325  1  0.29690000  0.40230000  0.07435000  1
  O  O326  1  0.29550000  0.12280000  0.92910000  1
  O  O327  1  0.29550000  0.62280000  0.57090000  1
  O  O328  1  0.28650000  0.47610000  0.95635000  1
  O  O329  1  0.28650000  0.97610000  0.54365000  1
  O  O330  1  0.28140000  0.33910000  0.89653000  1
  O  O331  1  0.28140000  0.83910000  0.60347000  1
  O  O332  1  0.27440000  0.75143000  0.49181000  1
  O  O333  1  0.27440000  0.25143000  0.00819000  1
  O  O334  1  0.22070000  0.01770000  0.88710000  1
  O  O335  1  0.22070000  0.51770000  0.61290000  1
  O  O336  1  0.20510000  0.59730000  0.45299000  1
  O  O337  1  0.20510000  0.09730000  0.04701000  1
  O  O338  1  0.17990000  0.22700000  0.89870000  1
  O  O339  1  0.17990000  0.72700000  0.60130000  1
  O  O340  1  0.10730000  0.48500000  0.44578000  1
  O  O341  1  0.10730000  0.98500000  0.05422000  1
  O  O342  1  0.09040000  0.06365000  0.94134000  1
  O  O343  1  0.09040000  0.56365000  0.55866000  1
  O  O344  1  0.08340000  0.69980000  0.49475000  1
  O  O345  1  0.08340000  0.19980000  0.00525000  1
  O  O346  1  0.00990000  0.90070000  0.95480000  1
  O  O347  1  0.00990000  0.40070000  0.54520000  1
