# generated using pymatgen
data_SmH8C16NO6
_symmetry_space_group_name_H-M   'P 1'
_cell_length_a   13.55150000
_cell_length_b   14.31400000
_cell_length_c   16.08436627
_cell_angle_alpha   116.42147510
_cell_angle_beta   98.74636368
_cell_angle_gamma   90.00000000
_symmetry_Int_Tables_number   1
_chemical_formula_structural   SmH8C16NO6
_chemical_formula_sum   'Sm4 H32 C64 N4 O24'
_cell_volume   2753.51336546
_cell_formula_units_Z   4
loop_
 _symmetry_equiv_pos_site_id
 _symmetry_equiv_pos_as_xyz
  1  'x, y, z'
loop_
 _atom_site_type_symbol
 _atom_site_label
 _atom_site_symmetry_multiplicity
 _atom_site_fract_x
 _atom_site_fract_y
 _atom_site_fract_z
 _atom_site_occupancy
  Sm  Sm0  1  0.95794000  0.46997000  0.36508000  1
  Sm  Sm1  1  0.54206000  0.10489000  0.63492000  1
  Sm  Sm2  1  0.45794000  0.89511000  0.36508000  1
  Sm  Sm3  1  0.04206000  0.53003000  0.63492000  1
  H  H4  1  0.95060000  0.86740000  0.88940000  1
  H  H5  1  0.92240000  0.19870000  0.31880000  1
  H  H6  1  0.91900000  0.61830000  0.93360000  1
  H  H7  1  0.90140000  0.97140000  0.03180000  1
  H  H8  1  0.87070000  0.72240000  0.07740000  1
  H  H9  1  0.84400000  0.87300000  0.18800000  1
  H  H10  1  0.80080000  0.22200000  0.54040000  1
  H  H11  1  0.77250000  0.68110000  0.71100000  1
  H  H12  1  0.72750000  0.97010000  0.28900000  1
  H  H13  1  0.69920000  0.68160000  0.45960000  1
  H  H14  1  0.65600000  0.68500000  0.81200000  1
  H  H15  1  0.62930000  0.64500000  0.92260000  1
  H  H16  1  0.59860000  0.93960000  0.96820000  1
  H  H17  1  0.58100000  0.68470000  0.06640000  1
  H  H18  1  0.57760000  0.87990000  0.68120000  1
  H  H19  1  0.54940000  0.97800000  0.11060000  1
  H  H20  1  0.45060000  0.02200000  0.88940000  1
  H  H21  1  0.42240000  0.12010000  0.31880000  1
  H  H22  1  0.41900000  0.31530000  0.93360000  1
  H  H23  1  0.40140000  0.06040000  0.03180000  1
  H  H24  1  0.37070000  0.35500000  0.07740000  1
  H  H25  1  0.34400000  0.31500000  0.18800000  1
  H  H26  1  0.30080000  0.31840000  0.54040000  1
  H  H27  1  0.27250000  0.02990000  0.71100000  1
  H  H28  1  0.22750000  0.31890000  0.28900000  1
  H  H29  1  0.19920000  0.77800000  0.45960000  1
  H  H30  1  0.15600000  0.12700000  0.81200000  1
  H  H31  1  0.12930000  0.27760000  0.92260000  1
  H  H32  1  0.09860000  0.02860000  0.96820000  1
  H  H33  1  0.08100000  0.38170000  0.06640000  1
  H  H34  1  0.07760000  0.80130000  0.68120000  1
  H  H35  1  0.04940000  0.13260000  0.11060000  1
  C  C36  1  0.97900000  0.66580000  0.80700000  1
  C  C37  1  0.94250000  0.73320000  0.89760000  1
  C  C38  1  0.93510000  0.83740000  0.92700000  1
  C  C39  1  0.92870000  0.33070000  0.50060000  1
  C  C40  1  0.91640000  0.68980000  0.95340000  1
  C  C41  1  0.90490000  0.90000000  0.01200000  1
  C  C42  1  0.88630000  0.75210000  0.03960000  1
  C  C43  1  0.88160000  0.17020000  0.34460000  1
  C  C44  1  0.87980000  0.85440000  0.06740000  1
  C  C45  1  0.87100000  0.22620000  0.43920000  1
  C  C46  1  0.85460000  0.92010000  0.16200000  1
  C  C47  1  0.83220000  0.07400000  0.29020000  1
  C  C48  1  0.82370000  0.59180000  0.54280000  1
  C  C49  1  0.80670000  0.18570000  0.47720000  1
  C  C50  1  0.76400000  0.03410000  0.32700000  1
  C  C51  1  0.75200000  0.09120000  0.42040000  1
  C  C52  1  0.74800000  0.67080000  0.57960000  1
  C  C53  1  0.73600000  0.70710000  0.67300000  1
  C  C54  1  0.69330000  0.70850000  0.52280000  1
  C  C55  1  0.67630000  0.04900000  0.45720000  1
  C  C56  1  0.66780000  0.78380000  0.70980000  1
  C  C57  1  0.64540000  0.75810000  0.83800000  1
  C  C58  1  0.62900000  0.78700000  0.56080000  1
  C  C59  1  0.62020000  0.78700000  0.93260000  1
  C  C60  1  0.61840000  0.82560000  0.65540000  1
  C  C61  1  0.61370000  0.71250000  0.96040000  1
  C  C62  1  0.59510000  0.88800000  0.98800000  1
  C  C63  1  0.58360000  0.73640000  0.04660000  1
  C  C64  1  0.57130000  0.83010000  0.49940000  1
  C  C65  1  0.56490000  0.91040000  0.07300000  1
  C  C66  1  0.55750000  0.83560000  0.10240000  1
  C  C67  1  0.52100000  0.85880000  0.19300000  1
  C  C68  1  0.47900000  0.14120000  0.80700000  1
  C  C69  1  0.44250000  0.16440000  0.89760000  1
  C  C70  1  0.43510000  0.08960000  0.92700000  1
  C  C71  1  0.42870000  0.16990000  0.50060000  1
  C  C72  1  0.41640000  0.26360000  0.95340000  1
  C  C73  1  0.40490000  0.11200000  0.01200000  1
  C  C74  1  0.38630000  0.28750000  0.03960000  1
  C  C75  1  0.38160000  0.17440000  0.34460000  1
  C  C76  1  0.37980000  0.21300000  0.06740000  1
  C  C77  1  0.37100000  0.21300000  0.43920000  1
  C  C78  1  0.35460000  0.24190000  0.16200000  1
  C  C79  1  0.33220000  0.21620000  0.29020000  1
  C  C80  1  0.32370000  0.95100000  0.54280000  1
  C  C81  1  0.30670000  0.29150000  0.47720000  1
  C  C82  1  0.26400000  0.29290000  0.32700000  1
  C  C83  1  0.25200000  0.32920000  0.42040000  1
  C  C84  1  0.24800000  0.90880000  0.57960000  1
  C  C85  1  0.23600000  0.96590000  0.67300000  1
  C  C86  1  0.19330000  0.81430000  0.52280000  1
  C  C87  1  0.17630000  0.40820000  0.45720000  1
  C  C88  1  0.16780000  0.92600000  0.70980000  1
  C  C89  1  0.14540000  0.07990000  0.83800000  1
  C  C90  1  0.12900000  0.77380000  0.56080000  1
  C  C91  1  0.12020000  0.14560000  0.93260000  1
  C  C92  1  0.11840000  0.82980000  0.65540000  1
  C  C93  1  0.11370000  0.24790000  0.96040000  1
  C  C94  1  0.09510000  0.10000000  0.98800000  1
  C  C95  1  0.08360000  0.31020000  0.04660000  1
  C  C96  1  0.07130000  0.66930000  0.49940000  1
  C  C97  1  0.06490000  0.16260000  0.07300000  1
  C  C98  1  0.05750000  0.26680000  0.10240000  1
  C  C99  1  0.02100000  0.33420000  0.19300000  1
  N  N100  1  0.85130000  0.01717000  0.19694000  1
  N  N101  1  0.64870000  0.82023000  0.80306000  1
  N  N102  1  0.35130000  0.17977000  0.19694000  1
  N  N103  1  0.14870000  0.98283000  0.80306000  1
  O  O104  1  0.99370000  0.29228000  0.24096000  1
  O  O105  1  0.98190000  0.57057000  0.78254000  1
  O  O106  1  0.95940000  0.38413000  0.46286000  1
  O  O107  1  0.94680000  0.36266000  0.58792000  1
  O  O108  1  0.87100000  0.56096000  0.59792000  1
  O  O109  1  0.83350000  0.56161000  0.45742000  1
  O  O110  1  0.66650000  0.10419000  0.54258000  1
  O  O111  1  0.62900000  0.96304000  0.40208000  1
  O  O112  1  0.55320000  0.77474000  0.41208000  1
  O  O113  1  0.54060000  0.92127000  0.53714000  1
  O  O114  1  0.51810000  0.78803000  0.21746000  1
  O  O115  1  0.50630000  0.05132000  0.75904000  1
  O  O116  1  0.49370000  0.94868000  0.24096000  1
  O  O117  1  0.48190000  0.21197000  0.78254000  1
  O  O118  1  0.45940000  0.07873000  0.46286000  1
  O  O119  1  0.44680000  0.22526000  0.58792000  1
  O  O120  1  0.37100000  0.03696000  0.59792000  1
  O  O121  1  0.33350000  0.89581000  0.45742000  1
  O  O122  1  0.16650000  0.43839000  0.54258000  1
  O  O123  1  0.12900000  0.43904000  0.40208000  1
  O  O124  1  0.05320000  0.63734000  0.41208000  1
  O  O125  1  0.04060000  0.61587000  0.53714000  1
  O  O126  1  0.01810000  0.42943000  0.21746000  1
  O  O127  1  0.00630000  0.70772000  0.75904000  1
