# generated using pymatgen
data_Ho2H30C45(SO8)3
_symmetry_space_group_name_H-M   'P 1'
_cell_length_a   9.16710000
_cell_length_b   15.52000000
_cell_length_c   22.19900000
_cell_angle_alpha   102.89000000
_cell_angle_beta   101.79000000
_cell_angle_gamma   104.14000000
_symmetry_Int_Tables_number   1
_chemical_formula_structural   Ho2H30C45(SO8)3
_chemical_formula_sum   'Ho4 H60 C90 S6 O48'
_cell_volume   2871.36543112
_cell_formula_units_Z   2
loop_
 _symmetry_equiv_pos_site_id
 _symmetry_equiv_pos_as_xyz
  1  'x, y, z'
loop_
 _atom_site_type_symbol
 _atom_site_label
 _atom_site_symmetry_multiplicity
 _atom_site_fract_x
 _atom_site_fract_y
 _atom_site_fract_z
 _atom_site_occupancy
  Ho  Ho0  1  0.02993000  0.91146000  0.85606000  1
  Ho  Ho1  1  0.48325000  0.13831000  0.19647000  1
  Ho  Ho2  1  0.51675000  0.86169000  0.80353000  1
  Ho  Ho3  1  0.97007000  0.08854000  0.14394000  1
  H  H4  1  0.00200000  0.66610000  0.31520000  1
  H  H5  1  0.00250000  0.66470000  0.90670000  1
  H  H6  1  0.00320000  0.43720000  0.29400000  1
  H  H7  1  0.01480000  0.15030000  0.63150000  1
  H  H8  1  0.03020000  0.08410000  0.71600000  1
  H  H9  1  0.03870000  0.58940000  0.34590000  1
  H  H10  1  0.05390000  0.47460000  0.07110000  1
  H  H11  1  0.07250000  0.30380000  0.26640000  1
  H  H12  1  0.08880000  0.43880000  0.71990000  1
  H  H13  1  0.11550000  0.26120000  0.02070000  1
  H  H14  1  0.13250000  0.16510000  0.33440000  1
  H  H15  1  0.22180000  0.14930000  0.83860000  1
  H  H16  1  0.25660000  0.26930000  0.78960000  1
  H  H17  1  0.25730000  0.16600000  0.43470000  1
  H  H18  1  0.27640000  0.46420000  0.84750000  1
  H  H19  1  0.28540000  0.91930000  0.63040000  1
  H  H20  1  0.32180000  0.14730000  0.59180000  1
  H  H21  1  0.32640000  0.53340000  0.03950000  1
  H  H22  1  0.33270000  0.21210000  0.54680000  1
  H  H23  1  0.33380000  0.10950000  0.52200000  1
  H  H24  1  0.34340000  0.61020000  0.83430000  1
  H  H25  1  0.36420000  0.78680000  0.25360000  1
  H  H26  1  0.37540000  0.63430000  0.08570000  1
  H  H27  1  0.40420000  0.43570000  0.19540000  1
  H  H28  1  0.40460000  0.90730000  0.20500000  1
  H  H29  1  0.40580000  0.55350000  0.11290000  1
  H  H30  1  0.40730000  0.70980000  0.02420000  1
  H  H31  1  0.43580000  0.00800000  0.32880000  1
  H  H32  1  0.44920000  0.95050000  0.41810000  1
  H  H33  1  0.49700000  0.81350000  0.97170000  1
  H  H34  1  0.50300000  0.18650000  0.02830000  1
  H  H35  1  0.55080000  0.04950000  0.58190000  1
  H  H36  1  0.56420000  0.99200000  0.67120000  1
  H  H37  1  0.59270000  0.29020000  0.97580000  1
  H  H38  1  0.59420000  0.44650000  0.88710000  1
  H  H39  1  0.59540000  0.09270000  0.79500000  1
  H  H40  1  0.59580000  0.56430000  0.80460000  1
  H  H41  1  0.62460000  0.36570000  0.91430000  1
  H  H42  1  0.63580000  0.21320000  0.74640000  1
  H  H43  1  0.65660000  0.38980000  0.16570000  1
  H  H44  1  0.66620000  0.89050000  0.47800000  1
  H  H45  1  0.66730000  0.78790000  0.45320000  1
  H  H46  1  0.67360000  0.46660000  0.96050000  1
  H  H47  1  0.67820000  0.85270000  0.40820000  1
  H  H48  1  0.71460000  0.08070000  0.36960000  1
  H  H49  1  0.72360000  0.53580000  0.15250000  1
  H  H50  1  0.74270000  0.83400000  0.56530000  1
  H  H51  1  0.74340000  0.73070000  0.21040000  1
  H  H52  1  0.77820000  0.85070000  0.16140000  1
  H  H53  1  0.86750000  0.83490000  0.66560000  1
  H  H54  1  0.88450000  0.73880000  0.97930000  1
  H  H55  1  0.91120000  0.56120000  0.28010000  1
  H  H56  1  0.92750000  0.69620000  0.73360000  1
  H  H57  1  0.94610000  0.52540000  0.92890000  1
  H  H58  1  0.96130000  0.41060000  0.65410000  1
  H  H59  1  0.96980000  0.91590000  0.28400000  1
  H  H60  1  0.98520000  0.84970000  0.36850000  1
  H  H61  1  0.99680000  0.56280000  0.70600000  1
  H  H62  1  0.99750000  0.33530000  0.09330000  1
  H  H63  1  0.99800000  0.33390000  0.68480000  1
  C  C64  1  0.01010000  0.60420000  0.30620000  1
  C  C65  1  0.02240000  0.54090000  0.90800000  1
  C  C66  1  0.06010000  0.62470000  0.89620000  1
  C  C67  1  0.06250000  0.12380000  0.46440000  1
  C  C68  1  0.06720000  0.92140000  0.30980000  1
  C  C69  1  0.07350000  0.14870000  0.36190000  1
  C  C70  1  0.07560000  0.88360000  0.36140000  1
  C  C71  1  0.08340000  0.43720000  0.27420000  1
  C  C72  1  0.09030000  0.87560000  0.65950000  1
  C  C73  1  0.09520000  0.89910000  0.55610000  1
  C  C74  1  0.10250000  0.47880000  0.88740000  1
  C  C75  1  0.12470000  0.35690000  0.25740000  1
  C  C76  1  0.14860000  0.14900000  0.42190000  1
  C  C77  1  0.15920000  0.51740000  0.26190000  1
  C  C78  1  0.17090000  0.87620000  0.72520000  1
  C  C79  1  0.17660000  0.90120000  0.61770000  1
  C  C80  1  0.18130000  0.65360000  0.86890000  1
  C  C81  1  0.19140000  0.00580000  0.23980000  1
  C  C82  1  0.19720000  0.96540000  0.29680000  1
  C  C83  1  0.21190000  0.26780000  0.01180000  1
  C  C84  1  0.21280000  0.74620000  0.85580000  1
  C  C85  1  0.21960000  0.89720000  0.40130000  1
  C  C86  1  0.22200000  0.50520000  0.86020000  1
  C  C87  1  0.24250000  0.15280000  0.06920000  1
  C  C88  1  0.24570000  0.35460000  0.22690000  1
  C  C89  1  0.26100000  0.59250000  0.85190000  1
  C  C90  1  0.26180000  0.32950000  0.98020000  1
  C  C91  1  0.28230000  0.51520000  0.23220000  1
  C  C92  1  0.29210000  0.14960000  0.54830000  1
  C  C93  1  0.29540000  0.27040000  0.20990000  1
  C  C94  1  0.30360000  0.21450000  0.03110000  1
  C  C95  1  0.30580000  0.16320000  0.82120000  1
  C  C96  1  0.32370000  0.43550000  0.21510000  1
  C  C97  1  0.32590000  0.23450000  0.79140000  1
  C  C98  1  0.34490000  0.97740000  0.33730000  1
  C  C99  1  0.35270000  0.94250000  0.39050000  1
  C  C100  1  0.39100000  0.03860000  0.85540000  1
  C  C101  1  0.40300000  0.57780000  0.07670000  1
  C  C102  1  0.40870000  0.34250000  0.96610000  1
  C  C103  1  0.41150000  0.11470000  0.82440000  1
  C  C104  1  0.44300000  0.22350000  0.01650000  1
  C  C105  1  0.44610000  0.79910000  0.23480000  1
  C  C106  1  0.44860000  0.25190000  0.76500000  1
  C  C107  1  0.47000000  0.87000000  0.20500000  1
  C  C108  1  0.49700000  0.28560000  0.98490000  1
  C  C109  1  0.50300000  0.71440000  0.01510000  1
  C  C110  1  0.53000000  0.13000000  0.79500000  1
  C  C111  1  0.55140000  0.74810000  0.23500000  1
  C  C112  1  0.55390000  0.20090000  0.76520000  1
  C  C113  1  0.55700000  0.77650000  0.98350000  1
  C  C114  1  0.58850000  0.88530000  0.17560000  1
  C  C115  1  0.59130000  0.65750000  0.03390000  1
  C  C116  1  0.59700000  0.42220000  0.92330000  1
  C  C117  1  0.60900000  0.96140000  0.14460000  1
  C  C118  1  0.64730000  0.05750000  0.60950000  1
  C  C119  1  0.65510000  0.02260000  0.66270000  1
  C  C120  1  0.67410000  0.76550000  0.20860000  1
  C  C121  1  0.67630000  0.56450000  0.78490000  1
  C  C122  1  0.69420000  0.83680000  0.17880000  1
  C  C123  1  0.69640000  0.78550000  0.96890000  1
  C  C124  1  0.70460000  0.72960000  0.79010000  1
  C  C125  1  0.70790000  0.85040000  0.45170000  1
  C  C126  1  0.71770000  0.48480000  0.76780000  1
  C  C127  1  0.73820000  0.67050000  0.01980000  1
  C  C128  1  0.73900000  0.40750000  0.14810000  1
  C  C129  1  0.75430000  0.64540000  0.77310000  1
  C  C130  1  0.75750000  0.84720000  0.93080000  1
  C  C131  1  0.77800000  0.49480000  0.13980000  1
  C  C132  1  0.78040000  0.10280000  0.59870000  1
  C  C133  1  0.78720000  0.25380000  0.14420000  1
  C  C134  1  0.78810000  0.73220000  0.98820000  1
  C  C135  1  0.80280000  0.03460000  0.70320000  1
  C  C136  1  0.80860000  0.99420000  0.76020000  1
  C  C137  1  0.81870000  0.34640000  0.13110000  1
  C  C138  1  0.82340000  0.09880000  0.38230000  1
  C  C139  1  0.82910000  0.12380000  0.27480000  1
  C  C140  1  0.84080000  0.48260000  0.73810000  1
  C  C141  1  0.85140000  0.85100000  0.57810000  1
  C  C142  1  0.87530000  0.64310000  0.74260000  1
  C  C143  1  0.89750000  0.52120000  0.11260000  1
  C  C144  1  0.90480000  0.10090000  0.44390000  1
  C  C145  1  0.90970000  0.12440000  0.34050000  1
  C  C146  1  0.91660000  0.56280000  0.72580000  1
  C  C147  1  0.92440000  0.11640000  0.63860000  1
  C  C148  1  0.92650000  0.85130000  0.63810000  1
  C  C149  1  0.93280000  0.07860000  0.69020000  1
  C  C150  1  0.93750000  0.87620000  0.53560000  1
  C  C151  1  0.93990000  0.37530000  0.10380000  1
  C  C152  1  0.97760000  0.45910000  0.09200000  1
  C  C153  1  0.98990000  0.39580000  0.69380000  1
  S  S154  1  0.05300000  0.36940000  0.90081000  1
  S  S155  1  0.22970000  0.85080000  0.46788000  1
  S  S156  1  0.47850000  0.34350000  0.73025000  1
  S  S157  1  0.52150000  0.65650000  0.26975000  1
  S  S158  1  0.77030000  0.14920000  0.53212000  1
  S  S159  1  0.94700000  0.63060000  0.09919000  1
  O  O160  1  0.05980000  0.00420000  0.21010000  1
  O  O161  1  0.08030000  0.30210000  0.85370000  1
  O  O162  1  0.08970000  0.85780000  0.76250000  1
  O  O163  1  0.09640000  0.65070000  0.08610000  1
  O  O164  1  0.10830000  0.76610000  0.45250000  1
  O  O165  1  0.10860000  0.14290000  0.07600000  1
  O  O166  1  0.12220000  0.11930000  0.52450000  1
  O  O167  1  0.12640000  0.59840000  0.27310000  1
  O  O168  1  0.13830000  0.79950000  0.87650000  1
  O  O169  1  0.18170000  0.39320000  0.96860000  1
  O  O170  1  0.18820000  0.92930000  0.51620000  1
  O  O171  1  0.21020000  0.19400000  0.20940000  1
  O  O172  1  0.26880000  0.01610000  0.87300000  1
  O  O173  1  0.31480000  0.76610000  0.82710000  1
  O  O174  1  0.31640000  0.03630000  0.22750000  1
  O  O175  1  0.31640000  0.89230000  0.73800000  1
  O  O176  1  0.33360000  0.11260000  0.09420000  1
  O  O177  1  0.35870000  0.59500000  0.21830000  1
  O  O178  1  0.36440000  0.38980000  0.73720000  1
  O  O179  1  0.38660000  0.85550000  0.49410000  1
  O  O180  1  0.42710000  0.28030000  0.19960000  1
  O  O181  1  0.44810000  0.40390000  0.93510000  1
  O  O182  1  0.49570000  0.68360000  0.33040000  1
  O  O183  1  0.49890000  0.00070000  0.86450000  1
  O  O184  1  0.50110000  0.99930000  0.13550000  1
  O  O185  1  0.50430000  0.31640000  0.66960000  1
  O  O186  1  0.55190000  0.59610000  0.06490000  1
  O  O187  1  0.57290000  0.71970000  0.80040000  1
  O  O188  1  0.61340000  0.14450000  0.50590000  1
  O  O189  1  0.63560000  0.61020000  0.26280000  1
  O  O190  1  0.64130000  0.40500000  0.78170000  1
  O  O191  1  0.66640000  0.88740000  0.90580000  1
  O  O192  1  0.68360000  0.10770000  0.26200000  1
  O  O193  1  0.68360000  0.96370000  0.77250000  1
  O  O194  1  0.68520000  0.23390000  0.17290000  1
  O  O195  1  0.73120000  0.98390000  0.12700000  1
  O  O196  1  0.78980000  0.80600000  0.79060000  1
  O  O197  1  0.81180000  0.07070000  0.48380000  1
  O  O198  1  0.81830000  0.60680000  0.03140000  1
  O  O199  1  0.86170000  0.20050000  0.12350000  1
  O  O200  1  0.87360000  0.40160000  0.72690000  1
  O  O201  1  0.87780000  0.88070000  0.47550000  1
  O  O202  1  0.89140000  0.85710000  0.92400000  1
  O  O203  1  0.89170000  0.23390000  0.54750000  1
  O  O204  1  0.90360000  0.34930000  0.91390000  1
  O  O205  1  0.91030000  0.14220000  0.23750000  1
  O  O206  1  0.91970000  0.69790000  0.14630000  1
  O  O207  1  0.94020000  0.99580000  0.78990000  1
