# generated using pymatgen
data_Cd3H46C56(N5O7)2
_symmetry_space_group_name_H-M   'P 1'
_cell_length_a   11.06030000
_cell_length_b   16.32200000
_cell_length_c   19.47230000
_cell_angle_alpha   65.76380000
_cell_angle_beta   73.50080000
_cell_angle_gamma   70.19520000
_symmetry_Int_Tables_number   1
_chemical_formula_structural   Cd3H46C56(N5O7)2
_chemical_formula_sum   'Cd6 H92 C112 N20 O28'
_cell_volume   2972.49896593
_cell_formula_units_Z   2
loop_
 _symmetry_equiv_pos_site_id
 _symmetry_equiv_pos_as_xyz
  1  'x, y, z'
loop_
 _atom_site_type_symbol
 _atom_site_label
 _atom_site_symmetry_multiplicity
 _atom_site_fract_x
 _atom_site_fract_y
 _atom_site_fract_z
 _atom_site_occupancy
  Cd  Cd0  1  0.00160000  0.40826000  0.47476000  1
  Cd  Cd1  1  0.11538000  0.90826000  0.97476000  1
  Cd  Cd2  1  0.18154000  0.75000000  0.25000000  1
  Cd  Cd3  1  0.81846000  0.25000000  0.75000000  1
  Cd  Cd4  1  0.88462000  0.09174000  0.02524000  1
  Cd  Cd5  1  0.99840000  0.59174000  0.52524000  1
  H  H6  1  0.01710000  0.19010000  0.53970000  1
  H  H7  1  0.02880000  0.03360000  0.62480000  1
  H  H8  1  0.06370000  0.44310000  0.77750000  1
  H  H9  1  0.07310000  0.54780000  0.82640000  1
  H  H10  1  0.07500000  0.56740000  0.94260000  1
  H  H11  1  0.07610000  0.14570000  0.43130000  1
  H  H12  1  0.07720000  0.65790000  0.00670000  1
  H  H13  1  0.09650000  0.61330000  0.65310000  1
  H  H14  1  0.09660000  0.24440000  0.41040000  1
  H  H15  1  0.10080000  0.82900000  0.47580000  1
  H  H16  1  0.17680000  0.76390000  0.80970000  1
  H  H17  1  0.19200000  0.92890000  0.57590000  1
  H  H18  1  0.20610000  0.97380000  0.39580000  1
  H  H19  1  0.20910000  0.64370000  0.66270000  1
  H  H20  1  0.24860000  0.74440000  0.91040000  1
  H  H21  1  0.24960000  0.26390000  0.30970000  1
  H  H22  1  0.25310000  0.69010000  0.03970000  1
  H  H23  1  0.25820000  0.15790000  0.50670000  1
  H  H24  1  0.26780000  0.59840000  0.55440000  1
  H  H25  1  0.27360000  0.70140000  0.53160000  1
  H  H26  1  0.27850000  0.89330000  0.36310000  1
  H  H27  1  0.28250000  0.19020000  0.03260000  1
  H  H28  1  0.28270000  0.95190000  0.19610000  1
  H  H29  1  0.28310000  0.27860000  0.09920000  1
  H  H30  1  0.28430000  0.05690000  0.72250000  1
  H  H31  1  0.30320000  0.42890000  0.07590000  1
  H  H32  1  0.31280000  0.53360000  0.12480000  1
  H  H33  1  0.31560000  0.07370000  0.29250000  1
  H  H34  1  0.31780000  0.43280000  0.89220000  1
  H  H35  1  0.31820000  0.57370000  0.79250000  1
  H  H36  1  0.33910000  0.77860000  0.59920000  1
  H  H37  1  0.34690000  0.64570000  0.93130000  1
  H  H38  1  0.35720000  0.93280000  0.39220000  1
  H  H39  1  0.35850000  0.49330000  0.75970000  1
  H  H40  1  0.36290000  0.88670000  0.84690000  1
  H  H41  1  0.38850000  0.99330000  0.25970000  1
  H  H42  1  0.40560000  0.67100000  0.02420000  1
  H  H43  1  0.41500000  0.06740000  0.44260000  1
  H  H44  1  0.42060000  0.90160000  0.94560000  1
  H  H45  1  0.42430000  0.47380000  0.89580000  1
  H  H46  1  0.43070000  0.54810000  0.30390000  1
  H  H47  1  0.44730000  0.95220000  0.67360000  1
  H  H48  1  0.46510000  0.39330000  0.86310000  1
  H  H49  1  0.48450000  0.14370000  0.16270000  1
  H  H50  1  0.49340000  0.20140000  0.03160000  1
  H  H51  1  0.49470000  0.69020000  0.53260000  1
  H  H52  1  0.50530000  0.30980000  0.46740000  1
  H  H53  1  0.50660000  0.79860000  0.96840000  1
  H  H54  1  0.51550000  0.85630000  0.83730000  1
  H  H55  1  0.53490000  0.60670000  0.13690000  1
  H  H56  1  0.55270000  0.04780000  0.32640000  1
  H  H57  1  0.56930000  0.45190000  0.69610000  1
  H  H58  1  0.57570000  0.52620000  0.10420000  1
  H  H59  1  0.57940000  0.09840000  0.05440000  1
  H  H60  1  0.58500000  0.93260000  0.55740000  1
  H  H61  1  0.59440000  0.32900000  0.97580000  1
  H  H62  1  0.61150000  0.00670000  0.74030000  1
  H  H63  1  0.63710000  0.11330000  0.15310000  1
  H  H64  1  0.64150000  0.50670000  0.24030000  1
  H  H65  1  0.64280000  0.06720000  0.60780000  1
  H  H66  1  0.65310000  0.35430000  0.06870000  1
  H  H67  1  0.66090000  0.22140000  0.40080000  1
  H  H68  1  0.68180000  0.42630000  0.20750000  1
  H  H69  1  0.68220000  0.56720000  0.10780000  1
  H  H70  1  0.68440000  0.92630000  0.70750000  1
  H  H71  1  0.68720000  0.46640000  0.87520000  1
  H  H72  1  0.69680000  0.57110000  0.92410000  1
  H  H73  1  0.71570000  0.94310000  0.27750000  1
  H  H74  1  0.71690000  0.72140000  0.90080000  1
  H  H75  1  0.71730000  0.04810000  0.80390000  1
  H  H76  1  0.71750000  0.80980000  0.96740000  1
  H  H77  1  0.72150000  0.10670000  0.63690000  1
  H  H78  1  0.72640000  0.29860000  0.46840000  1
  H  H79  1  0.73220000  0.40160000  0.44560000  1
  H  H80  1  0.74180000  0.84210000  0.49330000  1
  H  H81  1  0.74690000  0.30990000  0.96030000  1
  H  H82  1  0.75040000  0.73610000  0.69030000  1
  H  H83  1  0.75140000  0.25560000  0.08960000  1
  H  H84  1  0.79090000  0.35630000  0.33730000  1
  H  H85  1  0.79390000  0.02620000  0.60420000  1
  H  H86  1  0.80800000  0.07110000  0.42410000  1
  H  H87  1  0.82320000  0.23610000  0.19030000  1
  H  H88  1  0.89920000  0.17100000  0.52420000  1
  H  H89  1  0.90340000  0.75560000  0.58960000  1
  H  H90  1  0.90350000  0.38670000  0.34690000  1
  H  H91  1  0.92280000  0.34210000  0.99330000  1
  H  H92  1  0.92390000  0.85430000  0.56870000  1
  H  H93  1  0.92500000  0.43260000  0.05740000  1
  H  H94  1  0.92690000  0.45220000  0.17360000  1
  H  H95  1  0.93630000  0.55690000  0.22250000  1
  H  H96  1  0.97120000  0.96640000  0.37520000  1
  H  H97  1  0.98290000  0.80990000  0.46030000  1
  C  C98  1  0.00018000  0.90837000  0.83903000  1
  C  C99  1  0.00265000  0.61560000  0.94798000  1
  C  C100  1  0.00374000  0.66996000  0.98638000  1
  C  C101  1  0.00444000  0.46874000  0.16338000  1
  C  C102  1  0.00773000  0.86028000  0.78916000  1
  C  C103  1  0.00979000  0.53148000  0.19294000  1
  C  C104  1  0.03146000  0.20948000  0.42744000  1
  C  C105  1  0.03220000  0.12450000  0.70950000  1
  C  C106  1  0.03278000  0.78255000  0.68589000  1
  C  C107  1  0.04326000  0.78793000  0.49555000  1
  C  C108  1  0.08864000  0.11387000  0.25511000  1
  C  C109  1  0.10253000  0.25783000  0.00485000  1
  C  C110  1  0.10343000  0.20022000  0.96092000  1
  C  C111  1  0.10740000  0.36714000  0.08296000  1
  C  C112  1  0.11278000  0.78588000  0.77958000  1
  C  C113  1  0.11295000  0.43029000  0.11889000  1
  C  C114  1  0.11301000  0.01755000  0.63447000  1
  C  C115  1  0.11561000  0.01867000  0.15673000  1
  C  C116  1  0.12630000  0.55645000  0.17803000  1
  C  C117  1  0.13380000  0.62450000  0.20950000  1
  C  C118  1  0.13922000  0.05645000  0.67803000  1
  C  C119  1  0.14196000  0.95659000  0.11189000  1
  C  C120  1  0.14557000  0.66007000  0.63059000  1
  C  C121  1  0.20834000  0.99973000  0.19933000  1
  C  C122  1  0.21044000  0.54341000  0.38811000  1
  C  C123  1  0.21057000  0.23911000  0.03735000  1
  C  C124  1  0.21097000  0.95475000  0.60499000  1
  C  C125  1  0.21141000  0.29275000  0.07663000  1
  C  C126  1  0.21555000  0.66064000  0.55168000  1
  C  C127  1  0.22929000  0.45475000  0.10499000  1
  C  C128  1  0.23497000  0.51755000  0.13447000  1
  C  C129  1  0.25242000  0.40837000  0.33903000  1
  C  C130  1  0.26457000  0.29978000  0.53908000  1
  C  C131  1  0.26579000  0.03148000  0.69294000  1
  C  C132  1  0.28529000  0.94828000  0.36694000  1
  C  C133  1  0.29101000  0.48133000  0.34327000  1
  C  C134  1  0.30735000  0.01869000  0.28825000  1
  C  C135  1  0.32176000  0.28588000  0.27958000  1
  C  C136  1  0.32674000  0.71207000  0.00445000  1
  C  C137  1  0.33162000  0.70948000  0.92744000  1
  C  C138  1  0.33787000  0.93029000  0.61889000  1
  C  C139  1  0.33992000  0.16996000  0.48638000  1
  C  C140  1  0.34283000  0.36028000  0.28916000  1
  C  C141  1  0.36344000  0.96874000  0.66338000  1
  C  C142  1  0.36521000  0.24217000  0.49515000  1
  C  C143  1  0.38571000  0.51869000  0.78825000  1
  C  C144  1  0.39949000  0.44828000  0.86694000  1
  C  C145  1  0.40740000  0.50027000  0.30067000  1
  C  C146  1  0.41921000  0.79275000  0.57663000  1
  C  C147  1  0.42787000  0.83936000  0.94832000  1
  C  C148  1  0.43377000  0.11560000  0.44798000  1
  C  C149  1  0.43623000  0.83993000  0.86941000  1
  C  C150  1  0.44250000  0.86714000  0.58296000  1
  C  C151  1  0.45762000  0.38613000  0.24489000  1
  C  C152  1  0.48703000  0.26089000  0.46265000  1
  C  C153  1  0.49878000  0.28255000  0.18589000  1
  C  C154  1  0.50122000  0.71745000  0.81411000  1
  C  C155  1  0.51297000  0.73911000  0.53735000  1
  C  C156  1  0.54238000  0.61387000  0.75511000  1
  C  C157  1  0.55750000  0.13286000  0.41704000  1
  C  C158  1  0.56377000  0.16007000  0.13059000  1
  C  C159  1  0.56623000  0.88440000  0.55202000  1
  C  C160  1  0.57213000  0.16064000  0.05168000  1
  C  C161  1  0.58079000  0.20725000  0.42337000  1
  C  C162  1  0.59260000  0.49973000  0.69933000  1
  C  C163  1  0.60051000  0.55172000  0.13306000  1
  C  C164  1  0.61429000  0.48131000  0.21175000  1
  C  C165  1  0.63479000  0.75783000  0.50485000  1
  C  C166  1  0.63656000  0.03126000  0.33662000  1
  C  C167  1  0.65717000  0.63972000  0.71084000  1
  C  C168  1  0.66008000  0.83004000  0.51362000  1
  C  C169  1  0.66213000  0.06971000  0.38111000  1
  C  C170  1  0.66838000  0.29052000  0.07256000  1
  C  C171  1  0.67326000  0.28793000  0.99555000  1
  C  C172  1  0.67824000  0.71412000  0.72042000  1
  C  C173  1  0.69265000  0.98131000  0.71175000  1
  C  C174  1  0.70899000  0.51867000  0.65673000  1
  C  C175  1  0.71471000  0.05172000  0.63306000  1
  C  C176  1  0.73421000  0.96852000  0.30706000  1
  C  C177  1  0.73543000  0.70022000  0.46092000  1
  C  C178  1  0.74758000  0.59163000  0.66097000  1
  C  C179  1  0.76503000  0.48245000  0.86553000  1
  C  C180  1  0.77071000  0.54525000  0.89501000  1
  C  C181  1  0.78445000  0.33936000  0.44832000  1
  C  C182  1  0.78859000  0.70725000  0.92337000  1
  C  C183  1  0.78903000  0.04525000  0.39501000  1
  C  C184  1  0.78943000  0.76089000  0.96265000  1
  C  C185  1  0.78956000  0.45659000  0.61189000  1
  C  C186  1  0.79166000  0.00027000  0.80067000  1
  C  C187  1  0.85443000  0.33993000  0.36941000  1
  C  C188  1  0.85804000  0.04341000  0.88811000  1
  C  C189  1  0.86078000  0.94355000  0.32197000  1
  C  C190  1  0.86620000  0.37550000  0.79050000  1
  C  C191  1  0.87370000  0.44355000  0.82197000  1
  C  C192  1  0.88439000  0.98133000  0.84327000  1
  C  C193  1  0.88699000  0.98245000  0.36553000  1
  C  C194  1  0.88705000  0.56971000  0.88111000  1
  C  C195  1  0.88722000  0.21412000  0.22042000  1
  C  C196  1  0.89260000  0.63286000  0.91704000  1
  C  C197  1  0.89657000  0.79978000  0.03908000  1
  C  C198  1  0.89747000  0.74217000  0.99515000  1
  C  C199  1  0.91136000  0.88613000  0.74489000  1
  C  C200  1  0.95674000  0.21207000  0.50445000  1
  C  C201  1  0.96722000  0.21745000  0.31411000  1
  C  C202  1  0.96780000  0.87550000  0.29050000  1
  C  C203  1  0.96854000  0.79052000  0.57256000  1
  C  C204  1  0.99021000  0.46852000  0.80706000  1
  C  C205  1  0.99227000  0.13972000  0.21084000  1
  C  C206  1  0.99556000  0.53126000  0.83662000  1
  C  C207  1  0.99626000  0.33004000  0.01362000  1
  C  C208  1  0.99735000  0.38440000  0.05202000  1
  C  C209  1  0.99982000  0.09163000  0.16097000  1
  N  N210  1  0.05672000  0.75077000  0.62821000  1
  N  N211  1  0.07752000  0.15164000  0.30646000  1
  N  N212  1  0.12079000  0.69268000  0.50074000  1
  N  N213  1  0.12672000  0.74517000  0.73095000  1
  N  N214  1  0.19922000  0.04554000  0.24562000  1
  N  N215  1  0.31421000  0.80732000  0.99926000  1
  N  N216  1  0.39716000  0.24517000  0.23095000  1
  N  N217  1  0.43570000  0.74923000  0.87179000  1
  N  N218  1  0.46438000  0.65164000  0.80646000  1
  N  N219  1  0.49038000  0.45446000  0.25438000  1
  N  N220  1  0.50962000  0.54554000  0.74562000  1
  N  N221  1  0.53562000  0.34836000  0.19354000  1
  N  N222  1  0.56430000  0.25077000  0.12821000  1
  N  N223  1  0.60284000  0.75483000  0.76905000  1
  N  N224  1  0.68579000  0.19268000  0.00074000  1
  N  N225  1  0.80078000  0.95446000  0.75438000  1
  N  N226  1  0.87328000  0.25483000  0.26905000  1
  N  N227  1  0.87921000  0.30732000  0.49926000  1
  N  N228  1  0.92248000  0.84836000  0.69354000  1
  N  N229  1  0.94328000  0.24923000  0.37179000  1
  O  O230  1  0.00563000  0.79840000  0.04908000  1
  O  O231  1  0.04683000  0.14150000  0.76316000  1
  O  O232  1  0.04851000  0.64150000  0.26316000  1
  O  O233  1  0.07094000  0.83933000  0.31925000  1
  O  O234  1  0.08297000  0.98609000  0.05551000  1
  O  O235  1  0.09568000  0.88560000  0.87176000  1
  O  O236  1  0.12457000  0.51391000  0.44449000  1
  O  O237  1  0.14689000  0.29840000  0.54908000  1
  O  O238  1  0.14696000  0.38560000  0.37176000  1
  O  O239  1  0.21038000  0.15528000  0.93664000  1
  O  O240  1  0.22245000  0.87924000  0.13020000  1
  O  O241  1  0.22952000  0.66067000  0.18075000  1
  O  O242  1  0.23189000  0.62076000  0.36980000  1
  O  O243  1  0.30230000  0.34472000  0.56336000  1
  O  O244  1  0.69770000  0.65528000  0.43664000  1
  O  O245  1  0.76811000  0.37924000  0.63020000  1
  O  O246  1  0.77048000  0.33933000  0.81925000  1
  O  O247  1  0.77755000  0.12076000  0.86980000  1
  O  O248  1  0.78962000  0.84472000  0.06336000  1
  O  O249  1  0.85304000  0.61440000  0.62824000  1
  O  O250  1  0.85311000  0.70160000  0.45092000  1
  O  O251  1  0.87543000  0.48609000  0.55551000  1
  O  O252  1  0.90432000  0.11440000  0.12824000  1
  O  O253  1  0.91703000  0.01391000  0.94449000  1
  O  O254  1  0.92906000  0.16067000  0.68075000  1
  O  O255  1  0.95149000  0.35850000  0.73684000  1
  O  O256  1  0.95317000  0.85850000  0.23684000  1
  O  O257  1  0.99437000  0.20160000  0.95092000  1
