# generated using pymatgen
data_LaH12C21NO6
_symmetry_space_group_name_H-M   'P 1'
_cell_length_a   13.14260000
_cell_length_b   14.64093334
_cell_length_c   14.64093334
_cell_angle_alpha   111.45071030
_cell_angle_beta   107.41078759
_cell_angle_gamma   107.41078759
_symmetry_Int_Tables_number   1
_chemical_formula_structural   LaH12C21NO6
_chemical_formula_sum   'La3 H36 C63 N3 O18'
_cell_volume   2221.33324356
_cell_formula_units_Z   3
loop_
 _symmetry_equiv_pos_site_id
 _symmetry_equiv_pos_as_xyz
  1  'x, y, z'
loop_
 _atom_site_type_symbol
 _atom_site_label
 _atom_site_symmetry_multiplicity
 _atom_site_fract_x
 _atom_site_fract_y
 _atom_site_fract_z
 _atom_site_occupancy
  C  C0  1  1.00000000  0.63030000  0.36970000  1
  C  C1  1  1.00000000  0.51650000  0.48350000  1
  C  C2  1  1.00000000  0.45430000  0.54570000  1
  C  C3  1  0.65460000  0.51270000  0.54950000  1
  C  C4  1  0.67700000  0.63100000  0.43720000  1
  C  C5  1  0.64120000  0.45590000  0.61350000  1
  C  C6  1  0.94550000  0.58350000  0.49240000  1
  C  C7  1  0.94840000  0.64330000  0.43860000  1
  C  C8  1  0.34780000  0.54950000  0.53350000  1
  C  C9  1  0.33840000  0.60900000  0.47790000  1
  C  C10  1  0.36970000  0.73940000  0.36970000  1
  C  C11  1  0.30510000  0.79530000  0.35670000  1
  C  C12  1  0.04600000  0.80620000  0.36900000  1
  C  C13  1  0.99710000  0.85920000  0.31900000  1
  C  C14  1  0.66700000  0.62120000  0.59610000  1
  C  C15  1  0.67810000  0.68100000  0.54020000  1
  C  C16  1  0.02770000  0.38650000  0.84240000  1
  C  C17  1  0.49020000  0.79530000  0.43860000  1
  C  C18  1  0.76020000  0.80620000  0.43720000  1
  C  C19  1  0.72940000  0.86890000  0.39100000  1
  C  C20  1  0.81470000  0.45590000  0.84240000  1
  C  C21  1  0.36200000  0.90890000  0.41650000  1
  C  C22  1  0.13950000  0.86890000  0.47790000  1
  C  C23  1  0.04580000  0.97490000  0.37880000  1
  C  C24  1  0.45430000  0.45430000  0.90860000  1
  C  C25  1  0.86210000  0.85920000  0.54020000  1
  C  C26  1  0.54690000  0.90890000  0.49240000  1
  C  C27  1  0.10510000  0.45050000  0.96320000  1
  C  C28  1  0.07090000  0.40390000  0.02510000  1
  C  C29  1  0.79830000  0.98400000  0.45050000  1
  C  C30  1  0.48350000  0.96700000  0.48350000  1
  C  C31  1  0.85810000  0.51270000  0.96320000  1
  C  C32  1  0.81430000  0.46650000  0.01600000  1
  C  C33  1  0.18570000  0.98400000  0.53350000  1
  C  C34  1  0.14190000  0.03680000  0.48730000  1
  C  C35  1  0.51650000  0.51650000  0.03300000  1
  C  C36  1  0.20170000  0.54950000  0.01600000  1
  C  C37  1  0.92910000  0.97490000  0.59610000  1
  C  C38  1  0.89490000  0.03680000  0.54950000  1
  C  C39  1  0.45310000  0.50760000  0.09110000  1
  C  C40  1  0.13790000  0.45980000  0.14080000  1
  C  C41  1  0.54570000  0.09140000  0.54570000  1
  C  C42  1  0.95420000  0.62120000  0.02510000  1
  C  C43  1  0.86050000  0.52210000  0.13110000  1
  C  C44  1  0.63800000  0.58350000  0.09110000  1
  C  C45  1  0.18530000  0.15760000  0.54410000  1
  C  C46  1  0.27060000  0.60900000  0.13110000  1
  C  C47  1  0.23980000  0.56280000  0.19380000  1
  C  C48  1  0.50980000  0.56140000  0.20470000  1
  C  C49  1  0.97230000  0.15760000  0.61350000  1
  C  C50  1  0.32190000  0.45980000  0.31900000  1
  C  C51  1  0.33300000  0.40390000  0.37880000  1
  C  C52  1  0.00290000  0.68100000  0.14080000  1
  C  C53  1  0.95400000  0.63100000  0.19380000  1
  C  C54  1  0.69490000  0.64330000  0.20470000  1
  C  C55  1  0.63030000  0.63030000  0.26060000  1
  C  C56  1  0.66160000  0.52210000  0.39100000  1
  C  C57  1  0.65220000  0.46650000  0.45050000  1
  C  C58  1  0.05160000  0.56140000  0.35670000  1
  C  C59  1  0.05450000  0.50760000  0.41650000  1
  C  C60  1  0.35880000  0.38650000  0.54410000  1
  C  C61  1  0.32300000  0.56280000  0.36900000  1
  C  C62  1  0.34540000  0.45050000  0.48730000  1
  H  H63  1  0.22350000  0.75700000  0.30800000  1
  H  H64  1  0.93380000  0.81850000  0.24810000  1
  H  H65  1  0.90590000  0.58860000  0.53560000  1
  H  H66  1  0.91550000  0.69200000  0.44900000  1
  H  H67  1  0.66420000  0.83440000  0.32200000  1
  H  H68  1  0.35610000  0.57970000  0.60470000  1
  H  H69  1  0.34220000  0.67800000  0.51240000  1
  H  H70  1  0.53350000  0.75700000  0.44900000  1
  H  H71  1  0.66790000  0.65320000  0.66430000  1
  H  H72  1  0.68570000  0.75190000  0.57040000  1
  H  H73  1  0.00360000  0.33570000  0.98890000  1
  H  H74  1  0.17020000  0.83440000  0.51240000  1
  H  H75  1  0.01470000  0.01110000  0.34680000  1
  H  H76  1  0.31730000  0.94700000  0.41140000  1
  H  H77  1  0.75140000  0.39530000  0.97500000  1
  H  H78  1  0.88470000  0.81850000  0.57040000  1
  H  H79  1  0.77640000  0.02500000  0.42030000  1
  H  H80  1  0.62970000  0.94700000  0.53560000  1
  H  H81  1  0.37030000  0.46440000  0.05300000  1
  H  H82  1  0.22360000  0.57970000  0.97500000  1
  H  H83  1  0.11530000  0.42960000  0.18150000  1
  H  H84  1  0.24860000  0.02500000  0.60470000  1
  H  H85  1  0.68270000  0.58860000  0.05300000  1
  H  H86  1  0.98530000  0.65320000  0.98890000  1
  H  H87  1  0.82980000  0.48760000  0.16560000  1
  H  H88  1  0.99640000  0.01110000  0.66430000  1
  H  H89  1  0.31430000  0.42960000  0.24810000  1
  H  H90  1  0.33210000  0.33570000  0.34680000  1
  H  H91  1  0.46650000  0.55100000  0.24300000  1
  H  H92  1  0.65780000  0.48760000  0.32200000  1
  H  H93  1  0.64390000  0.39530000  0.42030000  1
  H  H94  1  0.33580000  0.67800000  0.16560000  1
  H  H95  1  0.08450000  0.55100000  0.30800000  1
  H  H96  1  0.09410000  0.46440000  0.41140000  1
  H  H97  1  0.06620000  0.75190000  0.18150000  1
  H  H98  1  0.77650000  0.69200000  0.24300000  1
  La  La99  1  0.50000000  0.31494667  0.68505333  1
  La  La100  1  0.18505333  0.37010667  0.68505333  1
  La  La101  1  0.81494667  0.31494667  0.62989333  1
  N  N102  1  1.00000000  0.69000000  0.31000000  1
  N  N103  1  0.69000000  0.69000000  0.38000000  1
  N  N104  1  0.31000000  0.62000000  0.31000000  1
  O  O105  1  0.92220000  0.43890000  0.58030000  1
  O  O106  1  0.35564000  0.42347000  0.63835000  1
  O  O107  1  0.92720000  0.30694000  0.79986000  1
  O  O108  1  0.71729000  0.36165000  0.78512000  1
  O  O109  1  0.62026000  0.49292000  0.69306000  1
  O  O110  1  0.06783000  0.42347000  0.78512000  1
  O  O111  1  0.34190000  0.41970000  0.85860000  1
  O  O112  1  0.87266000  0.49292000  0.79986000  1
  O  O113  1  0.51670000  0.43890000  0.85860000  1
  O  O114  1  0.48330000  0.14140000  0.56110000  1
  O  O115  1  0.12734000  0.20014000  0.50708000  1
  O  O116  1  0.65810000  0.14140000  0.58030000  1
  O  O117  1  0.93217000  0.21488000  0.57653000  1
  O  O118  1  0.37974000  0.30694000  0.50708000  1
  O  O119  1  0.28271000  0.21488000  0.63835000  1
  O  O120  1  0.07280000  0.20014000  0.69306000  1
  O  O121  1  0.64436000  0.36165000  0.57653000  1
  O  O122  1  0.07780000  0.41970000  0.56110000  1
