# generated using pymatgen
data_SrH2C3SO5
_symmetry_space_group_name_H-M   'P 1'
_cell_length_a   8.19840000
_cell_length_b   19.13400000
_cell_length_c   19.51900000
_cell_angle_alpha   90.00000000
_cell_angle_beta   90.00000000
_cell_angle_gamma   90.00000000
_symmetry_Int_Tables_number   1
_chemical_formula_structural   SrH2C3SO5
_chemical_formula_sum   'Sr16 H32 C48 S16 O80'
_cell_volume   3061.91011473
_cell_formula_units_Z   16
loop_
 _symmetry_equiv_pos_site_id
 _symmetry_equiv_pos_as_xyz
  1  'x, y, z'
loop_
 _atom_site_type_symbol
 _atom_site_label
 _atom_site_symmetry_multiplicity
 _atom_site_fract_x
 _atom_site_fract_y
 _atom_site_fract_z
 _atom_site_occupancy
  Sr  Sr0  1  0.23951000  0.27140000  0.59856000  1
  Sr  Sr1  1  0.23951000  0.77140000  0.90144000  1
  Sr  Sr2  1  0.24008000  0.49700000  0.50259000  1
  Sr  Sr3  1  0.24008000  0.99700000  0.99741000  1
  Sr  Sr4  1  0.25992000  0.49700000  0.00259000  1
  Sr  Sr5  1  0.25992000  0.99700000  0.49741000  1
  Sr  Sr6  1  0.26049000  0.27140000  0.09856000  1
  Sr  Sr7  1  0.26049000  0.77140000  0.40144000  1
  Sr  Sr8  1  0.73951000  0.22860000  0.59856000  1
  Sr  Sr9  1  0.73951000  0.72860000  0.90144000  1
  Sr  Sr10  1  0.74008000  0.00300000  0.50259000  1
  Sr  Sr11  1  0.74008000  0.50300000  0.99741000  1
  Sr  Sr12  1  0.75992000  0.00300000  0.00259000  1
  Sr  Sr13  1  0.75992000  0.50300000  0.49741000  1
  Sr  Sr14  1  0.76049000  0.22860000  0.09856000  1
  Sr  Sr15  1  0.76049000  0.72860000  0.40144000  1
  H  H16  1  0.00170000  0.39380000  0.97330000  1
  H  H17  1  0.00170000  0.89380000  0.52670000  1
  H  H18  1  0.00710000  0.43150000  0.91610000  1
  H  H19  1  0.00710000  0.93150000  0.58390000  1
  H  H20  1  0.01690000  0.15360000  0.77020000  1
  H  H21  1  0.01690000  0.65360000  0.72980000  1
  H  H22  1  0.02090000  0.08510000  0.19350000  1
  H  H23  1  0.02090000  0.58510000  0.30650000  1
  H  H24  1  0.47910000  0.08510000  0.69350000  1
  H  H25  1  0.47910000  0.58510000  0.80650000  1
  H  H26  1  0.48310000  0.15360000  0.27020000  1
  H  H27  1  0.48310000  0.65360000  0.22980000  1
  H  H28  1  0.49290000  0.43150000  0.41610000  1
  H  H29  1  0.49290000  0.93150000  0.08390000  1
  H  H30  1  0.49830000  0.39380000  0.47330000  1
  H  H31  1  0.49830000  0.89380000  0.02670000  1
  H  H32  1  0.50170000  0.10620000  0.97330000  1
  H  H33  1  0.50170000  0.60620000  0.52670000  1
  H  H34  1  0.50710000  0.06850000  0.91610000  1
  H  H35  1  0.50710000  0.56850000  0.58390000  1
  H  H36  1  0.51690000  0.34640000  0.77020000  1
  H  H37  1  0.51690000  0.84640000  0.72980000  1
  H  H38  1  0.52090000  0.41490000  0.19350000  1
  H  H39  1  0.52090000  0.91490000  0.30650000  1
  H  H40  1  0.97910000  0.41490000  0.69350000  1
  H  H41  1  0.97910000  0.91490000  0.80650000  1
  H  H42  1  0.98310000  0.34640000  0.27020000  1
  H  H43  1  0.98310000  0.84640000  0.22980000  1
  H  H44  1  0.99290000  0.06850000  0.41610000  1
  H  H45  1  0.99290000  0.56850000  0.08390000  1
  H  H46  1  0.99830000  0.10620000  0.47330000  1
  H  H47  1  0.99830000  0.60620000  0.02670000  1
  C  C48  1  0.00220000  0.42070000  0.34220000  1
  C  C49  1  0.00220000  0.92070000  0.15780000  1
  C  C50  1  0.00370000  0.10580000  0.77690000  1
  C  C51  1  0.00370000  0.60580000  0.72310000  1
  C  C52  1  0.00820000  0.49470000  0.35540000  1
  C  C53  1  0.00820000  0.99470000  0.14460000  1
  C  C54  1  0.00990000  0.43840000  0.22070000  1
  C  C55  1  0.00990000  0.93840000  0.27930000  1
  C  C56  1  0.01520000  0.01250000  0.26830000  1
  C  C57  1  0.01520000  0.51250000  0.23170000  1
  C  C58  1  0.01550000  0.03710000  0.20060000  1
  C  C59  1  0.01550000  0.53710000  0.29940000  1
  C  C60  1  0.48450000  0.03710000  0.70060000  1
  C  C61  1  0.48450000  0.53710000  0.79940000  1
  C  C62  1  0.48480000  0.01250000  0.76830000  1
  C  C63  1  0.48480000  0.51250000  0.73170000  1
  C  C64  1  0.49010000  0.43840000  0.72070000  1
  C  C65  1  0.49010000  0.93840000  0.77930000  1
  C  C66  1  0.49180000  0.49470000  0.85540000  1
  C  C67  1  0.49180000  0.99470000  0.64460000  1
  C  C68  1  0.49630000  0.10580000  0.27690000  1
  C  C69  1  0.49630000  0.60580000  0.22310000  1
  C  C70  1  0.49780000  0.42070000  0.84220000  1
  C  C71  1  0.49780000  0.92070000  0.65780000  1
  C  C72  1  0.50220000  0.07930000  0.34220000  1
  C  C73  1  0.50220000  0.57930000  0.15780000  1
  C  C74  1  0.50370000  0.39420000  0.77690000  1
  C  C75  1  0.50370000  0.89420000  0.72310000  1
  C  C76  1  0.50820000  0.00530000  0.35540000  1
  C  C77  1  0.50820000  0.50530000  0.14460000  1
  C  C78  1  0.50990000  0.06160000  0.22070000  1
  C  C79  1  0.50990000  0.56160000  0.27930000  1
  C  C80  1  0.51520000  0.48750000  0.26830000  1
  C  C81  1  0.51520000  0.98750000  0.23170000  1
  C  C82  1  0.51550000  0.46290000  0.20060000  1
  C  C83  1  0.51550000  0.96290000  0.29940000  1
  C  C84  1  0.98450000  0.46290000  0.70060000  1
  C  C85  1  0.98450000  0.96290000  0.79940000  1
  C  C86  1  0.98480000  0.48750000  0.76830000  1
  C  C87  1  0.98480000  0.98750000  0.73170000  1
  C  C88  1  0.99010000  0.06160000  0.72070000  1
  C  C89  1  0.99010000  0.56160000  0.77930000  1
  C  C90  1  0.99180000  0.00530000  0.85540000  1
  C  C91  1  0.99180000  0.50530000  0.64460000  1
  C  C92  1  0.99630000  0.39420000  0.27690000  1
  C  C93  1  0.99630000  0.89420000  0.22310000  1
  C  C94  1  0.99780000  0.07930000  0.84220000  1
  C  C95  1  0.99780000  0.57930000  0.65780000  1
  S  S96  1  0.00019000  0.09551000  0.63669000  1
  S  S97  1  0.00019000  0.59551000  0.86331000  1
  S  S98  1  0.00408000  0.13476000  0.91320000  1
  S  S99  1  0.00408000  0.63476000  0.58680000  1
  S  S100  1  0.49592000  0.13476000  0.41320000  1
  S  S101  1  0.49592000  0.63476000  0.08680000  1
  S  S102  1  0.49981000  0.09551000  0.13669000  1
  S  S103  1  0.49981000  0.59551000  0.36331000  1
  S  S104  1  0.50019000  0.40449000  0.63669000  1
  S  S105  1  0.50019000  0.90449000  0.86331000  1
  S  S106  1  0.50408000  0.36524000  0.91320000  1
  S  S107  1  0.50408000  0.86524000  0.58680000  1
  S  S108  1  0.99592000  0.36524000  0.41320000  1
  S  S109  1  0.99592000  0.86524000  0.08680000  1
  S  S110  1  0.99981000  0.40449000  0.13669000  1
  S  S111  1  0.99981000  0.90449000  0.36331000  1
  O  O112  1  0.00430000  0.43370000  0.95806000  1
  O  O113  1  0.00430000  0.93370000  0.54194000  1
  O  O114  1  0.00810000  0.01961000  0.08214000  1
  O  O115  1  0.00810000  0.51961000  0.41786000  1
  O  O116  1  0.01290000  0.20684000  0.88850000  1
  O  O117  1  0.01290000  0.70684000  0.61150000  1
  O  O118  1  0.01930000  0.17080000  0.64400000  1
  O  O119  1  0.01930000  0.67080000  0.85600000  1
  O  O120  1  0.03120000  0.05420000  0.32190000  1
  O  O121  1  0.03120000  0.55420000  0.17810000  1
  O  O122  1  0.04330000  0.16850000  0.09850000  1
  O  O123  1  0.04330000  0.66850000  0.40150000  1
  O  O124  1  0.13950000  0.06420000  0.60170000  1
  O  O125  1  0.13950000  0.56420000  0.89830000  1
  O  O126  1  0.14440000  0.37840000  0.45180000  1
  O  O127  1  0.14440000  0.87840000  0.04820000  1
  O  O128  1  0.14990000  0.11710000  0.95360000  1
  O  O129  1  0.14990000  0.61710000  0.54640000  1
  O  O130  1  0.15610000  0.42220000  0.10320000  1
  O  O131  1  0.15610000  0.92220000  0.39680000  1
  O  O132  1  0.34390000  0.42220000  0.60320000  1
  O  O133  1  0.34390000  0.92220000  0.89680000  1
  O  O134  1  0.35010000  0.11710000  0.45360000  1
  O  O135  1  0.35010000  0.61710000  0.04640000  1
  O  O136  1  0.35560000  0.37840000  0.95180000  1
  O  O137  1  0.35560000  0.87840000  0.54820000  1
  O  O138  1  0.36050000  0.06420000  0.10170000  1
  O  O139  1  0.36050000  0.56420000  0.39830000  1
  O  O140  1  0.45670000  0.16850000  0.59850000  1
  O  O141  1  0.45670000  0.66850000  0.90150000  1
  O  O142  1  0.46880000  0.05420000  0.82190000  1
  O  O143  1  0.46880000  0.55420000  0.67810000  1
  O  O144  1  0.48070000  0.17080000  0.14400000  1
  O  O145  1  0.48070000  0.67080000  0.35600000  1
  O  O146  1  0.48710000  0.20684000  0.38850000  1
  O  O147  1  0.48710000  0.70684000  0.11150000  1
  O  O148  1  0.49190000  0.01961000  0.58214000  1
  O  O149  1  0.49190000  0.51961000  0.91786000  1
  O  O150  1  0.49570000  0.43370000  0.45806000  1
  O  O151  1  0.49570000  0.93370000  0.04194000  1
  O  O152  1  0.50430000  0.06630000  0.95806000  1
  O  O153  1  0.50430000  0.56630000  0.54194000  1
  O  O154  1  0.50810000  0.48039000  0.08214000  1
  O  O155  1  0.50810000  0.98039000  0.41786000  1
  O  O156  1  0.51290000  0.29316000  0.88850000  1
  O  O157  1  0.51290000  0.79316000  0.61150000  1
  O  O158  1  0.51930000  0.32920000  0.64400000  1
  O  O159  1  0.51930000  0.82920000  0.85600000  1
  O  O160  1  0.53120000  0.44580000  0.32190000  1
  O  O161  1  0.53120000  0.94580000  0.17810000  1
  O  O162  1  0.54330000  0.33150000  0.09850000  1
  O  O163  1  0.54330000  0.83150000  0.40150000  1
  O  O164  1  0.63950000  0.43580000  0.60170000  1
  O  O165  1  0.63950000  0.93580000  0.89830000  1
  O  O166  1  0.64440000  0.12160000  0.45180000  1
  O  O167  1  0.64440000  0.62160000  0.04820000  1
  O  O168  1  0.64990000  0.38290000  0.95360000  1
  O  O169  1  0.64990000  0.88290000  0.54640000  1
  O  O170  1  0.65610000  0.07780000  0.10320000  1
  O  O171  1  0.65610000  0.57780000  0.39680000  1
  O  O172  1  0.84390000  0.07780000  0.60320000  1
  O  O173  1  0.84390000  0.57780000  0.89680000  1
  O  O174  1  0.85010000  0.38290000  0.45360000  1
  O  O175  1  0.85010000  0.88290000  0.04640000  1
  O  O176  1  0.85560000  0.12160000  0.95180000  1
  O  O177  1  0.85560000  0.62160000  0.54820000  1
  O  O178  1  0.86050000  0.43580000  0.10170000  1
  O  O179  1  0.86050000  0.93580000  0.39830000  1
  O  O180  1  0.95670000  0.33150000  0.59850000  1
  O  O181  1  0.95670000  0.83150000  0.90150000  1
  O  O182  1  0.96880000  0.44580000  0.82190000  1
  O  O183  1  0.96880000  0.94580000  0.67810000  1
  O  O184  1  0.98070000  0.32920000  0.14400000  1
  O  O185  1  0.98070000  0.82920000  0.35600000  1
  O  O186  1  0.98710000  0.29316000  0.38850000  1
  O  O187  1  0.98710000  0.79316000  0.11150000  1
  O  O188  1  0.99190000  0.48039000  0.58214000  1
  O  O189  1  0.99190000  0.98039000  0.91786000  1
  O  O190  1  0.99570000  0.06630000  0.45806000  1
  O  O191  1  0.99570000  0.56630000  0.04194000  1
