# generated using pymatgen
data_Zn2H12C21(NO2)3
_symmetry_space_group_name_H-M   'P 1'
_cell_length_a   7.51060000
_cell_length_b   9.57925793
_cell_length_c   31.19590000
_cell_angle_alpha   90.00000000
_cell_angle_beta   90.00000000
_cell_angle_gamma   104.81405409
_symmetry_Int_Tables_number   1
_chemical_formula_structural   Zn2H12C21(NO2)3
_chemical_formula_sum   'Zn8 H48 C84 N12 O24'
_cell_volume   2169.81650216
_cell_formula_units_Z   4
loop_
 _symmetry_equiv_pos_site_id
 _symmetry_equiv_pos_as_xyz
  1  'x, y, z'
loop_
 _atom_site_type_symbol
 _atom_site_label
 _atom_site_symmetry_multiplicity
 _atom_site_fract_x
 _atom_site_fract_y
 _atom_site_fract_z
 _atom_site_occupancy
  Zn  Zn0  1  0.78675000  0.59079000  0.73785000  1
  Zn  Zn1  1  0.28675000  0.09079000  0.76215000  1
  Zn  Zn2  1  0.86912000  0.65010000  0.02506000  1
  Zn  Zn3  1  0.36912000  0.15010000  0.47494000  1
  Zn  Zn4  1  0.63088000  0.84990000  0.52506000  1
  Zn  Zn5  1  0.13088000  0.34990000  0.97494000  1
  Zn  Zn6  1  0.71325000  0.90921000  0.23785000  1
  Zn  Zn7  1  0.21325000  0.40921000  0.26215000  1
  H  H8  1  0.08110000  0.01700000  0.15440000  1
  H  H9  1  0.58110000  0.51700000  0.34560000  1
  H  H10  1  0.81110000  0.66770000  0.19510000  1
  H  H11  1  0.31110000  0.16770000  0.30490000  1
  H  H12  1  0.60970000  0.40450000  0.53800000  1
  H  H13  1  0.10970000  0.90450000  0.96200000  1
  H  H14  1  0.72450000  0.51030000  0.13890000  1
  H  H15  1  0.22450000  0.01030000  0.36110000  1
  H  H16  1  0.32720000  0.10020000  0.00590000  1
  H  H17  1  0.82720000  0.60020000  0.49410000  1
  H  H18  1  0.54530000  0.28200000  0.14080000  1
  H  H19  1  0.04530000  0.78200000  0.35920000  1
  H  H20  1  0.18000000  0.91120000  0.54300000  1
  H  H21  1  0.68000000  0.41120000  0.95700000  1
  H  H22  1  0.21550000  0.82280000  0.61920000  1
  H  H23  1  0.71550000  0.32280000  0.88080000  1
  H  H24  1  0.50050000  0.08920000  0.62820000  1
  H  H25  1  0.00050000  0.58920000  0.87180000  1
  H  H26  1  0.10870000  0.66320000  0.67490000  1
  H  H27  1  0.60870000  0.16320000  0.82510000  1
  H  H28  1  0.43650000  0.95970000  0.05410000  1
  H  H29  1  0.93650000  0.45970000  0.44590000  1
  H  H30  1  0.54020000  0.04940000  0.12150000  1
  H  H31  1  0.04020000  0.54940000  0.37850000  1
  H  H32  1  0.95980000  0.45060000  0.62150000  1
  H  H33  1  0.45980000  0.95060000  0.87850000  1
  H  H34  1  0.06350000  0.54030000  0.55410000  1
  H  H35  1  0.56350000  0.04030000  0.94590000  1
  H  H36  1  0.39130000  0.83680000  0.17490000  1
  H  H37  1  0.89130000  0.33680000  0.32510000  1
  H  H38  1  0.99950000  0.41080000  0.12820000  1
  H  H39  1  0.49950000  0.91080000  0.37180000  1
  H  H40  1  0.28450000  0.67720000  0.11920000  1
  H  H41  1  0.78450000  0.17720000  0.38080000  1
  H  H42  1  0.32000000  0.58880000  0.04300000  1
  H  H43  1  0.82000000  0.08880000  0.45700000  1
  H  H44  1  0.95470000  0.21800000  0.64080000  1
  H  H45  1  0.45470000  0.71800000  0.85920000  1
  H  H46  1  0.17280000  0.39980000  0.50590000  1
  H  H47  1  0.67280000  0.89980000  0.99410000  1
  H  H48  1  0.77550000  0.98970000  0.63890000  1
  H  H49  1  0.27550000  0.48970000  0.86110000  1
  H  H50  1  0.89030000  0.09550000  0.03800000  1
  H  H51  1  0.39030000  0.59550000  0.46200000  1
  H  H52  1  0.68890000  0.83230000  0.69510000  1
  H  H53  1  0.18890000  0.33230000  0.80490000  1
  H  H54  1  0.41890000  0.48300000  0.65440000  1
  H  H55  1  0.91890000  0.98300000  0.84560000  1
  C  C56  1  0.70430000  0.67020000  0.17914000  1
  C  C57  1  0.20430000  0.17020000  0.32086000  1
  C  C58  1  0.45610000  0.41940000  0.63504000  1
  C  C59  1  0.95610000  0.91940000  0.86496000  1
  C  C60  1  0.07120000  0.02480000  0.58703000  1
  C  C61  1  0.57120000  0.52480000  0.91297000  1
  C  C62  1  0.51860000  0.46800000  0.59444000  1
  C  C63  1  0.01860000  0.96800000  0.90556000  1
  C  C64  1  0.65210000  0.57490000  0.14618000  1
  C  C65  1  0.15210000  0.07490000  0.35382000  1
  C  C66  1  0.00810000  0.92720000  0.62316000  1
  C  C67  1  0.50810000  0.42720000  0.87684000  1
  C  C68  1  0.37390000  0.28070000  0.04461000  1
  C  C69  1  0.87390000  0.78070000  0.45539000  1
  C  C70  1  0.97360000  0.87970000  0.08125000  1
  C  C71  1  0.47360000  0.37970000  0.41875000  1
  C  C72  1  0.15130000  0.99970000  0.54976000  1
  C  C73  1  0.65130000  0.49970000  0.95024000  1
  C  C74  1  0.37890000  0.22510000  0.69146000  1
  C  C75  1  0.87890000  0.72510000  0.80854000  1
  C  C76  1  0.44730000  0.27770000  0.64763000  1
  C  C77  1  0.94730000  0.77770000  0.85237000  1
  C  C78  1  0.56830000  0.37250000  0.56596000  1
  C  C79  1  0.06830000  0.87250000  0.93404000  1
  C  C80  1  0.37200000  0.13780000  0.03310000  1
  C  C81  1  0.87200000  0.63780000  0.46690000  1
  C  C82  1  0.50290000  0.24640000  0.11323000  1
  C  C83  1  0.00290000  0.74640000  0.38677000  1
  C  C84  1  0.10670000  0.82610000  0.63426000  1
  C  C85  1  0.60670000  0.32610000  0.86574000  1
  C  C86  1  0.04190000  0.73170000  0.66755000  1
  C  C87  1  0.54190000  0.23170000  0.83245000  1
  C  C88  1  0.50170000  0.18430000  0.61936000  1
  C  C89  1  0.00170000  0.68430000  0.88064000  1
  C  C90  1  0.55790000  0.23050000  0.57795000  1
  C  C91  1  0.05790000  0.73050000  0.92205000  1
  C  C92  1  0.43530000  0.05560000  0.06157000  1
  C  C93  1  0.93530000  0.55560000  0.43843000  1
  C  C94  1  0.49890000  0.10990000  0.10178000  1
  C  C95  1  0.99890000  0.60990000  0.39822000  1
  C  C96  1  0.60780000  0.12900000  0.54673000  1
  C  C97  1  0.10780000  0.62900000  0.95327000  1
  C  C98  1  0.89220000  0.37100000  0.04673000  1
  C  C99  1  0.39220000  0.87100000  0.45327000  1
  C  C100  1  0.00110000  0.39010000  0.60178000  1
  C  C101  1  0.50110000  0.89010000  0.89822000  1
  C  C102  1  0.06470000  0.44440000  0.56157000  1
  C  C103  1  0.56470000  0.94440000  0.93843000  1
  C  C104  1  0.94210000  0.26950000  0.07795000  1
  C  C105  1  0.44210000  0.76950000  0.42205000  1
  C  C106  1  0.99830000  0.31570000  0.11936000  1
  C  C107  1  0.49830000  0.81570000  0.38064000  1
  C  C108  1  0.45810000  0.76830000  0.16755000  1
  C  C109  1  0.95810000  0.26830000  0.33245000  1
  C  C110  1  0.39330000  0.67390000  0.13426000  1
  C  C111  1  0.89330000  0.17390000  0.36574000  1
  C  C112  1  0.99710000  0.25360000  0.61323000  1
  C  C113  1  0.49710000  0.75360000  0.88677000  1
  C  C114  1  0.12800000  0.36220000  0.53310000  1
  C  C115  1  0.62800000  0.86220000  0.96690000  1
  C  C116  1  0.93170000  0.12750000  0.06596000  1
  C  C117  1  0.43170000  0.62750000  0.43404000  1
  C  C118  1  0.05270000  0.22230000  0.14763000  1
  C  C119  1  0.55270000  0.72230000  0.35237000  1
  C  C120  1  0.12110000  0.27490000  0.19146000  1
  C  C121  1  0.62110000  0.77490000  0.30854000  1
  C  C122  1  0.34870000  0.50030000  0.04976000  1
  C  C123  1  0.84870000  0.00030000  0.45024000  1
  C  C124  1  0.52640000  0.62030000  0.58125000  1
  C  C125  1  0.02640000  0.12030000  0.91875000  1
  C  C126  1  0.12610000  0.21930000  0.54461000  1
  C  C127  1  0.62610000  0.71930000  0.95539000  1
  C  C128  1  0.49190000  0.57280000  0.12316000  1
  C  C129  1  0.99190000  0.07280000  0.37684000  1
  C  C130  1  0.84790000  0.92510000  0.64618000  1
  C  C131  1  0.34790000  0.42510000  0.85382000  1
  C  C132  1  0.98140000  0.03200000  0.09444000  1
  C  C133  1  0.48140000  0.53200000  0.40556000  1
  C  C134  1  0.42880000  0.47520000  0.08703000  1
  C  C135  1  0.92880000  0.97520000  0.41297000  1
  C  C136  1  0.04390000  0.08060000  0.13504000  1
  C  C137  1  0.54390000  0.58060000  0.36496000  1
  C  C138  1  0.79570000  0.82980000  0.67914000  1
  C  C139  1  0.29570000  0.32980000  0.82086000  1
  N  N140  1  0.18540000  0.11590000  0.52327000  1
  N  N141  1  0.68540000  0.61590000  0.97673000  1
  N  N142  1  0.44410000  0.33380000  0.08398000  1
  N  N143  1  0.94410000  0.83380000  0.41602000  1
  N  N144  1  0.88980000  0.73160000  0.69006000  1
  N  N145  1  0.38980000  0.23160000  0.80994000  1
  N  N146  1  0.61020000  0.76840000  0.19006000  1
  N  N147  1  0.11020000  0.26840000  0.30994000  1
  N  N148  1  0.05590000  0.16620000  0.58398000  1
  N  N149  1  0.55590000  0.66620000  0.91602000  1
  N  N150  1  0.31460000  0.38410000  0.02327000  1
  N  N151  1  0.81460000  0.88410000  0.47673000  1
  O  O152  1  0.31960000  0.30570000  0.71647000  1
  O  O153  1  0.81960000  0.80570000  0.78353000  1
  O  O154  1  0.87200000  0.83640000  0.04820000  1
  O  O155  1  0.37200000  0.33640000  0.45180000  1
  O  O156  1  0.05770000  0.80660000  0.10130000  1
  O  O157  1  0.55770000  0.30660000  0.39870000  1
  O  O158  1  0.38060000  0.09760000  0.70243000  1
  O  O159  1  0.88060000  0.59760000  0.79757000  1
  O  O160  1  0.85260000  0.48190000  0.06214000  1
  O  O161  1  0.35260000  0.98190000  0.43786000  1
  O  O162  1  0.60440000  0.15530000  0.50706000  1
  O  O163  1  0.10440000  0.65530000  0.99294000  1
  O  O164  1  0.89560000  0.34470000  0.00706000  1
  O  O165  1  0.39560000  0.84470000  0.49294000  1
  O  O166  1  0.64740000  0.01810000  0.56214000  1
  O  O167  1  0.14740000  0.51810000  0.93786000  1
  O  O168  1  0.11940000  0.40240000  0.20243000  1
  O  O169  1  0.61940000  0.90240000  0.29757000  1
  O  O170  1  0.44230000  0.69340000  0.60130000  1
  O  O171  1  0.94230000  0.19340000  0.89870000  1
  O  O172  1  0.62800000  0.66360000  0.54820000  1
  O  O173  1  0.12800000  0.16360000  0.95180000  1
  O  O174  1  0.18040000  0.19430000  0.21647000  1
  O  O175  1  0.68040000  0.69430000  0.28353000  1
