# generated using pymatgen
data_ZnH16(C13N3)2
_symmetry_space_group_name_H-M   'P 1'
_cell_length_a   6.22330000
_cell_length_b   13.98220000
_cell_length_c   13.98220000
_cell_angle_alpha   90.00000000
_cell_angle_beta   90.00000000
_cell_angle_gamma   90.00000000
_symmetry_Int_Tables_number   1
_chemical_formula_structural   ZnH16(C13N3)2
_chemical_formula_sum   'Zn2 H32 C52 N12'
_cell_volume   1216.66707907
_cell_formula_units_Z   2
loop_
 _symmetry_equiv_pos_site_id
 _symmetry_equiv_pos_as_xyz
  1  'x, y, z'
loop_
 _atom_site_type_symbol
 _atom_site_label
 _atom_site_symmetry_multiplicity
 _atom_site_fract_x
 _atom_site_fract_y
 _atom_site_fract_z
 _atom_site_occupancy
  Zn  Zn0  1  0.75000000  0.25000000  0.25000000  1
  Zn  Zn1  1  0.25000000  0.75000000  0.75000000  1
  H  H2  1  0.84500000  0.04100000  0.29300000  1
  H  H3  1  0.49590000  0.05270000  0.84390000  1
  H  H4  1  0.71770000  0.05510000  0.59230000  1
  H  H5  1  0.21770000  0.09230000  0.94490000  1
  H  H6  1  0.41900000  0.09700000  0.30100000  1
  H  H7  1  0.99590000  0.15610000  0.55270000  1
  H  H8  1  0.08100000  0.19900000  0.09700000  1
  H  H9  1  0.65500000  0.20700000  0.04100000  1
  H  H10  1  0.65500000  0.29300000  0.45900000  1
  H  H11  1  0.08100000  0.30100000  0.40300000  1
  H  H12  1  0.99590000  0.34390000  0.94730000  1
  H  H13  1  0.41900000  0.40300000  0.19900000  1
  H  H14  1  0.21770000  0.40770000  0.55510000  1
  H  H15  1  0.71770000  0.44490000  0.90770000  1
  H  H16  1  0.49590000  0.44730000  0.65610000  1
  H  H17  1  0.84500000  0.45900000  0.20700000  1
  H  H18  1  0.15500000  0.54100000  0.79300000  1
  H  H19  1  0.50410000  0.55270000  0.34390000  1
  H  H20  1  0.28230000  0.55510000  0.09230000  1
  H  H21  1  0.78230000  0.59230000  0.44490000  1
  H  H22  1  0.58100000  0.59700000  0.80100000  1
  H  H23  1  0.00410000  0.65610000  0.05270000  1
  H  H24  1  0.91900000  0.69900000  0.59700000  1
  H  H25  1  0.34500000  0.70700000  0.54100000  1
  H  H26  1  0.34500000  0.79300000  0.95900000  1
  H  H27  1  0.91900000  0.80100000  0.90300000  1
  H  H28  1  0.00410000  0.84390000  0.44730000  1
  H  H29  1  0.58100000  0.90300000  0.69900000  1
  H  H30  1  0.78230000  0.90770000  0.05510000  1
  H  H31  1  0.28230000  0.94490000  0.40770000  1
  H  H32  1  0.50410000  0.94730000  0.15610000  1
  H  H33  1  0.15500000  0.95900000  0.70700000  1
  C  C34  1  0.91540000  0.00300000  0.80240000  1
  C  C35  1  0.33540000  0.02470000  0.06190000  1
  C  C36  1  0.49730000  0.03110000  0.90680000  1
  C  C37  1  0.83160000  0.03280000  0.55550000  1
  C  C38  1  0.93740000  0.05280000  0.24180000  1
  C  C39  1  0.33160000  0.05550000  0.96720000  1
  C  C40  1  0.16460000  0.06190000  0.47530000  1
  C  C41  1  0.99730000  0.09320000  0.53110000  1
  C  C42  1  0.33550000  0.12750000  0.44510000  1
  C  C43  1  0.42950000  0.13280000  0.35940000  1
  C  C44  1  0.07050000  0.14060000  0.13280000  1
  C  C45  1  0.41540000  0.19760000  0.50300000  1
  C  C46  1  0.56260000  0.24180000  0.44720000  1
  C  C47  1  0.56260000  0.25820000  0.05280000  1
  C  C48  1  0.41540000  0.30240000  0.99700000  1
  C  C49  1  0.07050000  0.35940000  0.36720000  1
  C  C50  1  0.42950000  0.36720000  0.14060000  1
  C  C51  1  0.33550000  0.37250000  0.05490000  1
  C  C52  1  0.99730000  0.40680000  0.96890000  1
  C  C53  1  0.16460000  0.43810000  0.02470000  1
  C  C54  1  0.33160000  0.44450000  0.53280000  1
  C  C55  1  0.93740000  0.44720000  0.25820000  1
  C  C56  1  0.83160000  0.46720000  0.94450000  1
  C  C57  1  0.49730000  0.46890000  0.59320000  1
  C  C58  1  0.33540000  0.47530000  0.43810000  1
  C  C59  1  0.91540000  0.49700000  0.69760000  1
  C  C60  1  0.08460000  0.50300000  0.30240000  1
  C  C61  1  0.66460000  0.52470000  0.56190000  1
  C  C62  1  0.50270000  0.53110000  0.40680000  1
  C  C63  1  0.16840000  0.53280000  0.05550000  1
  C  C64  1  0.06260000  0.55280000  0.74180000  1
  C  C65  1  0.83550000  0.55490000  0.62750000  1
  C  C66  1  0.66840000  0.55550000  0.46720000  1
  C  C67  1  0.83540000  0.56190000  0.97530000  1
  C  C68  1  0.00270000  0.59320000  0.03110000  1
  C  C69  1  0.57050000  0.63280000  0.85940000  1
  C  C70  1  0.92950000  0.64060000  0.63280000  1
  C  C71  1  0.58460000  0.69760000  0.00300000  1
  C  C72  1  0.43740000  0.74180000  0.94720000  1
  C  C73  1  0.43740000  0.75820000  0.55280000  1
  C  C74  1  0.58460000  0.80240000  0.49700000  1
  C  C75  1  0.92950000  0.85940000  0.86720000  1
  C  C76  1  0.57050000  0.86720000  0.64060000  1
  C  C77  1  0.00270000  0.90680000  0.46890000  1
  C  C78  1  0.83540000  0.93810000  0.52470000  1
  C  C79  1  0.66840000  0.94450000  0.03280000  1
  C  C80  1  0.83550000  0.94510000  0.87250000  1
  C  C81  1  0.06260000  0.94720000  0.75820000  1
  C  C82  1  0.16840000  0.96720000  0.44450000  1
  C  C83  1  0.50270000  0.96890000  0.09320000  1
  C  C84  1  0.66460000  0.97530000  0.93810000  1
  C  C85  1  0.08460000  0.99700000  0.19760000  1
  N  N86  1  0.16450000  0.05490000  0.12750000  1
  N  N87  1  0.92630000  0.14090000  0.20440000  1
  N  N88  1  0.57370000  0.20440000  0.35910000  1
  N  N89  1  0.57370000  0.29560000  0.14090000  1
  N  N90  1  0.92630000  0.35910000  0.29560000  1
  N  N91  1  0.16450000  0.44510000  0.37250000  1
  N  N92  1  0.66450000  0.62750000  0.94510000  1
  N  N93  1  0.07370000  0.64090000  0.70440000  1
  N  N94  1  0.42630000  0.70440000  0.85910000  1
  N  N95  1  0.42630000  0.79560000  0.64090000  1
  N  N96  1  0.07370000  0.85910000  0.79560000  1
  N  N97  1  0.66450000  0.87250000  0.55490000  1
