# generated using pymatgen
data_Mg2H10C16O17
_symmetry_space_group_name_H-M   'P 1'
_cell_length_a   11.50268961
_cell_length_b   11.50268961
_cell_length_c   18.14300000
_cell_angle_alpha   96.25311775
_cell_angle_beta   96.25311775
_cell_angle_gamma   117.15928657
_symmetry_Int_Tables_number   1
_chemical_formula_structural   Mg2H10C16O17
_chemical_formula_sum   'Mg4 H20 C32 O34'
_cell_volume   2088.71391489
_cell_formula_units_Z   2
loop_
 _symmetry_equiv_pos_site_id
 _symmetry_equiv_pos_as_xyz
  1  'x, y, z'
loop_
 _atom_site_type_symbol
 _atom_site_label
 _atom_site_symmetry_multiplicity
 _atom_site_fract_x
 _atom_site_fract_y
 _atom_site_fract_z
 _atom_site_occupancy
  C  C0  1  0.96075000  0.02865000  0.56699000  1
  C  C1  1  0.02865000  0.96075000  0.06699000  1
  C  C2  1  0.91738000  0.06042000  0.63812000  1
  C  C3  1  0.06042000  0.91738000  0.13812000  1
  C  C4  1  0.87388000  0.92752000  0.95522000  1
  C  C5  1  0.92752000  0.87388000  0.45522000  1
  C  C6  1  0.88835000  0.90325000  0.52130000  1
  C  C7  1  0.90325000  0.88835000  0.02130000  1
  C  C8  1  0.56784000  0.13496000  0.99700000  1
  C  C9  1  0.13496000  0.56784000  0.49700000  1
  C  C10  1  0.61702000  0.08278000  0.86902000  1
  C  C11  1  0.08278000  0.61702000  0.36902000  1
  C  C12  1  0.50947000  0.09333000  0.05877000  1
  C  C13  1  0.09333000  0.50947000  0.55877000  1
  C  C14  1  0.55756000  0.04104000  0.93759000  1
  C  C15  1  0.04104000  0.55756000  0.43759000  1
  C  C16  1  0.44244000  0.95896000  0.06241000  1
  C  C17  1  0.95896000  0.44244000  0.56241000  1
  C  C18  1  0.49053000  0.90667000  0.94123000  1
  C  C19  1  0.90667000  0.49053000  0.44123000  1
  C  C20  1  0.38298000  0.91722000  0.13098000  1
  C  C21  1  0.91722000  0.38298000  0.63098000  1
  C  C22  1  0.43216000  0.86504000  0.00300000  1
  C  C23  1  0.86504000  0.43216000  0.50300000  1
  C  C24  1  0.11165000  0.09675000  0.47870000  1
  C  C25  1  0.09675000  0.11165000  0.97870000  1
  C  C26  1  0.12612000  0.07248000  0.04478000  1
  C  C27  1  0.07248000  0.12612000  0.54478000  1
  C  C28  1  0.08262000  0.93958000  0.36188000  1
  C  C29  1  0.93958000  0.08262000  0.86188000  1
  C  C30  1  0.03925000  0.97135000  0.43301000  1
  C  C31  1  0.97135000  0.03925000  0.93301000  1
  H  H32  1  0.76300000  0.21700000  0.78800000  1
  H  H33  1  0.21700000  0.76300000  0.28800000  1
  H  H34  1  0.66940000  0.28120000  0.95950000  1
  H  H35  1  0.28120000  0.66940000  0.45950000  1
  H  H36  1  0.74110000  0.87370000  0.87610000  1
  H  H37  1  0.87370000  0.74110000  0.37610000  1
  H  H38  1  0.45760000  0.14220000  0.13730000  1
  H  H39  1  0.14220000  0.45760000  0.63730000  1
  H  H40  1  0.76180000  0.82680000  0.57700000  1
  H  H41  1  0.82680000  0.76180000  0.07700000  1
  H  H42  1  0.23820000  0.17320000  0.42300000  1
  H  H43  1  0.17320000  0.23820000  0.92300000  1
  H  H44  1  0.54240000  0.85780000  0.86270000  1
  H  H45  1  0.85780000  0.54240000  0.36270000  1
  H  H46  1  0.25890000  0.12630000  0.12390000  1
  H  H47  1  0.12630000  0.25890000  0.62390000  1
  H  H48  1  0.33060000  0.71880000  0.04050000  1
  H  H49  1  0.71880000  0.33060000  0.54050000  1
  H  H50  1  0.23700000  0.78300000  0.21200000  1
  H  H51  1  0.78300000  0.23700000  0.71200000  1
  Mg  Mg52  1  0.69846000  0.98904000  0.73074000  1
  Mg  Mg53  1  0.98904000  0.69846000  0.23074000  1
  Mg  Mg54  1  0.30154000  0.01096000  0.26926000  1
  Mg  Mg55  1  0.01096000  0.30154000  0.76926000  1
  O  O56  1  0.79754000  0.20246000  0.75000000  1
  O  O57  1  0.20246000  0.79754000  0.25000000  1
  O  O58  1  0.63997000  0.26843000  0.99872000  1
  O  O59  1  0.26843000  0.63997000  0.49872000  1
  O  O60  1  0.68658000  0.20562000  0.87022000  1
  O  O61  1  0.20562000  0.68658000  0.37022000  1
  O  O62  1  0.83631000  0.00049000  0.81631000  1
  O  O63  1  0.00049000  0.83631000  0.31631000  1
  O  O64  1  0.80314000  0.98166000  0.64743000  1
  O  O65  1  0.98166000  0.80314000  0.14743000  1
  O  O66  1  0.50400000  0.17980000  0.10730000  1
  O  O67  1  0.17980000  0.50400000  0.60730000  1
  O  O68  1  0.75190000  0.84470000  0.91410000  1
  O  O69  1  0.84470000  0.75190000  0.41410000  1
  O  O70  1  0.59339000  0.99381000  0.81470000  1
  O  O71  1  0.99381000  0.59339000  0.31470000  1
  O  O72  1  0.77880000  0.80200000  0.53740000  1
  O  O73  1  0.80200000  0.77880000  0.03740000  1
  O  O74  1  0.22120000  0.19800000  0.46260000  1
  O  O75  1  0.19800000  0.22120000  0.96260000  1
  O  O76  1  0.40661000  0.00619000  0.18530000  1
  O  O77  1  0.00619000  0.40661000  0.68530000  1
  O  O78  1  0.24810000  0.15530000  0.08590000  1
  O  O79  1  0.15530000  0.24810000  0.58590000  1
  O  O80  1  0.49600000  0.82020000  0.89270000  1
  O  O81  1  0.82020000  0.49600000  0.39270000  1
  O  O82  1  0.19686000  0.01834000  0.35257000  1
  O  O83  1  0.01834000  0.19686000  0.85257000  1
  O  O84  1  0.16369000  0.99951000  0.18369000  1
  O  O85  1  0.99951000  0.16369000  0.68369000  1
  O  O86  1  0.31342000  0.79438000  0.12978000  1
  O  O87  1  0.79438000  0.31342000  0.62978000  1
  O  O88  1  0.36003000  0.73157000  0.00128000  1
  O  O89  1  0.73157000  0.36003000  0.50128000  1
