# generated using pymatgen
data_Co2H39C63(N2O)6
_symmetry_space_group_name_H-M   'P 1'
_cell_length_a   13.91700000
_cell_length_b   16.97500000
_cell_length_c   16.97500000
_cell_angle_alpha   120.00000000
_cell_angle_beta   90.00000000
_cell_angle_gamma   90.00000000
_symmetry_Int_Tables_number   1
_chemical_formula_structural   Co2H39C63(N2O)6
_chemical_formula_sum   'Co4 H78 C126 N24 O12'
_cell_volume   3472.92836094
_cell_formula_units_Z   2
loop_
 _symmetry_equiv_pos_site_id
 _symmetry_equiv_pos_as_xyz
  1  'x, y, z'
loop_
 _atom_site_type_symbol
 _atom_site_label
 _atom_site_symmetry_multiplicity
 _atom_site_fract_x
 _atom_site_fract_y
 _atom_site_fract_z
 _atom_site_occupancy
  Co  Co0  1  0.89661000  0.66666667  0.33333333  1
  Co  Co1  1  0.60339000  0.66666667  0.33333333  1
  Co  Co2  1  0.39661000  0.33333333  0.66666667  1
  Co  Co3  1  0.10339000  0.33333333  0.66666667  1
  H  H4  1  0.58310000  0.99080000  0.31430000  1
  H  H5  1  0.91690000  0.99080000  0.67650000  1
  H  H6  1  0.97930000  0.98850000  0.20800000  1
  H  H7  1  0.52070000  0.98850000  0.78050000  1
  H  H8  1  0.61520000  0.93430000  0.42320000  1
  H  H9  1  0.88480000  0.93430000  0.51110000  1
  H  H10  1  0.86590000  0.87290000  0.15110000  1
  H  H11  1  0.63410000  0.87290000  0.72180000  1
  H  H12  1  0.63410000  0.84890000  0.12710000  1
  H  H13  1  0.86590000  0.84890000  0.72180000  1
  H  H14  1  0.25000000  0.82840000  0.41420000  1
  H  H15  1  0.64010000  0.79880000  0.23100000  1
  H  H16  1  0.85990000  0.79880000  0.56780000  1
  H  H17  1  0.52070000  0.79200000  0.01150000  1
  H  H18  1  0.97930000  0.79200000  0.78050000  1
  H  H19  1  0.41740000  0.78760000  0.36430000  1
  H  H20  1  0.08260000  0.78760000  0.42330000  1
  H  H21  1  0.47930000  0.78050000  0.79200000  1
  H  H22  1  0.02070000  0.78050000  0.98850000  1
  H  H23  1  0.85990000  0.76900000  0.20120000  1
  H  H24  1  0.64010000  0.76900000  0.56780000  1
  H  H25  1  0.36590000  0.72180000  0.84890000  1
  H  H26  1  0.13410000  0.72180000  0.87290000  1
  H  H27  1  0.91690000  0.68570000  0.00920000  1
  H  H28  1  0.58310000  0.68570000  0.67650000  1
  H  H29  1  0.08310000  0.67650000  0.68570000  1
  H  H30  1  0.41690000  0.67650000  0.99080000  1
  H  H31  1  0.08260000  0.63570000  0.21240000  1
  H  H32  1  0.41740000  0.63570000  0.42330000  1
  H  H33  1  0.25000000  0.58580000  0.17160000  1
  H  H34  1  0.25000000  0.58580000  0.41420000  1
  H  H35  1  0.88480000  0.57680000  0.06570000  1
  H  H36  1  0.61520000  0.57680000  0.51110000  1
  H  H37  1  0.41740000  0.57670000  0.21240000  1
  H  H38  1  0.08260000  0.57670000  0.36430000  1
  H  H39  1  0.14010000  0.56780000  0.76900000  1
  H  H40  1  0.35990000  0.56780000  0.79880000  1
  H  H41  1  0.11520000  0.51110000  0.57680000  1
  H  H42  1  0.38480000  0.51110000  0.93430000  1
  H  H43  1  0.61520000  0.48890000  0.06570000  1
  H  H44  1  0.88480000  0.48890000  0.42320000  1
  H  H45  1  0.64010000  0.43220000  0.20120000  1
  H  H46  1  0.85990000  0.43220000  0.23100000  1
  H  H47  1  0.91740000  0.42330000  0.63570000  1
  H  H48  1  0.58260000  0.42330000  0.78760000  1
  H  H49  1  0.38480000  0.42320000  0.48890000  1
  H  H50  1  0.11520000  0.42320000  0.93430000  1
  H  H51  1  0.75000000  0.41420000  0.58580000  1
  H  H52  1  0.75000000  0.41420000  0.82840000  1
  H  H53  1  0.58260000  0.36430000  0.57670000  1
  H  H54  1  0.91740000  0.36430000  0.78760000  1
  H  H55  1  0.58310000  0.32350000  0.00920000  1
  H  H56  1  0.91690000  0.32350000  0.31430000  1
  H  H57  1  0.41690000  0.31430000  0.32350000  1
  H  H58  1  0.08310000  0.31430000  0.99080000  1
  H  H59  1  0.86590000  0.27820000  0.12710000  1
  H  H60  1  0.63410000  0.27820000  0.15110000  1
  H  H61  1  0.35990000  0.23100000  0.43220000  1
  H  H62  1  0.14010000  0.23100000  0.79880000  1
  H  H63  1  0.97930000  0.21950000  0.01150000  1
  H  H64  1  0.52070000  0.21950000  0.20800000  1
  H  H65  1  0.91740000  0.21240000  0.57670000  1
  H  H66  1  0.58260000  0.21240000  0.63570000  1
  H  H67  1  0.02070000  0.20800000  0.21950000  1
  H  H68  1  0.47930000  0.20800000  0.98850000  1
  H  H69  1  0.14010000  0.20120000  0.43220000  1
  H  H70  1  0.35990000  0.20120000  0.76900000  1
  H  H71  1  0.75000000  0.17160000  0.58580000  1
  H  H72  1  0.13410000  0.15110000  0.27820000  1
  H  H73  1  0.36590000  0.15110000  0.87290000  1
  H  H74  1  0.36590000  0.12710000  0.27820000  1
  H  H75  1  0.13410000  0.12710000  0.84890000  1
  H  H76  1  0.11520000  0.06570000  0.48890000  1
  H  H77  1  0.38480000  0.06570000  0.57680000  1
  H  H78  1  0.47930000  0.01150000  0.21950000  1
  H  H79  1  0.02070000  0.01150000  0.79200000  1
  H  H80  1  0.08310000  0.00920000  0.32350000  1
  H  H81  1  0.41690000  0.00920000  0.68570000  1
  C  C82  1  0.66910000  0.96600000  0.45640000  1
  C  C83  1  0.83090000  0.96600000  0.50960000  1
  C  C84  1  0.03950000  0.96130000  0.29910000  1
  C  C85  1  0.46050000  0.96130000  0.66220000  1
  C  C86  1  0.97670000  0.94900000  0.23100000  1
  C  C87  1  0.52330000  0.94900000  0.71800000  1
  C  C88  1  0.16990000  0.93940000  0.44290000  1
  C  C89  1  0.33010000  0.93940000  0.49650000  1
  C  C90  1  0.75000000  0.91920000  0.45960000  1
  C  C91  1  0.03500000  0.89900000  0.32940000  1
  C  C92  1  0.46500000  0.89900000  0.56960000  1
  C  C93  1  0.25000000  0.89170000  0.44585000  1
  C  C94  1  0.90870000  0.87800000  0.19540000  1
  C  C95  1  0.59130000  0.87800000  0.68260000  1
  C  C96  1  0.96890000  0.82580000  0.29200000  1
  C  C97  1  0.53110000  0.82580000  0.53380000  1
  C  C98  1  0.75000000  0.81770000  0.40885000  1
  C  C99  1  0.90450000  0.81610000  0.22520000  1
  C  C100  1  0.59550000  0.81610000  0.59090000  1
  C  C101  1  0.05640000  0.81060000  0.38850000  1
  C  C102  1  0.44360000  0.81060000  0.42210000  1
  C  C103  1  0.59130000  0.80460000  0.12200000  1
  C  C104  1  0.90870000  0.80460000  0.68260000  1
  C  C105  1  0.59550000  0.77480000  0.18390000  1
  C  C106  1  0.90450000  0.77480000  0.59090000  1
  C  C107  1  0.52330000  0.76900000  0.05100000  1
  C  C108  1  0.97670000  0.76900000  0.71800000  1
  C  C109  1  0.47670000  0.71800000  0.76900000  1
  C  C110  1  0.02330000  0.71800000  0.94900000  1
  C  C111  1  0.53110000  0.70800000  0.17420000  1
  C  C112  1  0.96890000  0.70800000  0.53380000  1
  C  C113  1  0.46050000  0.70090000  0.03870000  1
  C  C114  1  0.03950000  0.70090000  0.66220000  1
  C  C115  1  0.40870000  0.68260000  0.80460000  1
  C  C116  1  0.09130000  0.68260000  0.87800000  1
  C  C117  1  0.46500000  0.67060000  0.10100000  1
  C  C118  1  0.03500000  0.67060000  0.56960000  1
  C  C119  1  0.53950000  0.66220000  0.70090000  1
  C  C120  1  0.96050000  0.66220000  0.96130000  1
  C  C121  1  0.44360000  0.61150000  0.18940000  1
  C  C122  1  0.05640000  0.61150000  0.42210000  1
  C  C123  1  0.75000000  0.59115000  0.18230000  1
  C  C124  1  0.75000000  0.59115000  0.40885000  1
  C  C125  1  0.40450000  0.59090000  0.77480000  1
  C  C126  1  0.09550000  0.59090000  0.81610000  1
  C  C127  1  0.05640000  0.57790000  0.18940000  1
  C  C128  1  0.44360000  0.57790000  0.38850000  1
  C  C129  1  0.53500000  0.56960000  0.67060000  1
  C  C130  1  0.96500000  0.56960000  0.89900000  1
  C  C131  1  0.33010000  0.55710000  0.06060000  1
  C  C132  1  0.16990000  0.55710000  0.49650000  1
  C  C133  1  0.25000000  0.55415000  0.10830000  1
  C  C134  1  0.25000000  0.55415000  0.44585000  1
  C  C135  1  0.83090000  0.54360000  0.03400000  1
  C  C136  1  0.66910000  0.54360000  0.50960000  1
  C  C137  1  0.75000000  0.54040000  0.08080000  1
  C  C138  1  0.75000000  0.54040000  0.45960000  1
  C  C139  1  0.46890000  0.53380000  0.70800000  1
  C  C140  1  0.03110000  0.53380000  0.82580000  1
  C  C141  1  0.16910000  0.50960000  0.54360000  1
  C  C142  1  0.33090000  0.50960000  0.96600000  1
  C  C143  1  0.16990000  0.50350000  0.06060000  1
  C  C144  1  0.33010000  0.50350000  0.44290000  1
  C  C145  1  0.66990000  0.49650000  0.55710000  1
  C  C146  1  0.83010000  0.49650000  0.93940000  1
  C  C147  1  0.66910000  0.49040000  0.03400000  1
  C  C148  1  0.83090000  0.49040000  0.45640000  1
  C  C149  1  0.96890000  0.46620000  0.17420000  1
  C  C150  1  0.53110000  0.46620000  0.29200000  1
  C  C151  1  0.25000000  0.45960000  0.54040000  1
  C  C152  1  0.25000000  0.45960000  0.91920000  1
  C  C153  1  0.33090000  0.45640000  0.49040000  1
  C  C154  1  0.16910000  0.45640000  0.96600000  1
  C  C155  1  0.75000000  0.44585000  0.55415000  1
  C  C156  1  0.75000000  0.44585000  0.89170000  1
  C  C157  1  0.83010000  0.44290000  0.50350000  1
  C  C158  1  0.66990000  0.44290000  0.93940000  1
  C  C159  1  0.03500000  0.43040000  0.10100000  1
  C  C160  1  0.46500000  0.43040000  0.32940000  1
  C  C161  1  0.55640000  0.42210000  0.61150000  1
  C  C162  1  0.94360000  0.42210000  0.81060000  1
  C  C163  1  0.90450000  0.40910000  0.18390000  1
  C  C164  1  0.59550000  0.40910000  0.22520000  1
  C  C165  1  0.25000000  0.40885000  0.59115000  1
  C  C166  1  0.25000000  0.40885000  0.81770000  1
  C  C167  1  0.94360000  0.38850000  0.57790000  1
  C  C168  1  0.55640000  0.38850000  0.81060000  1
  C  C169  1  0.03950000  0.33780000  0.03870000  1
  C  C170  1  0.46050000  0.33780000  0.29910000  1
  C  C171  1  0.96500000  0.32940000  0.43040000  1
  C  C172  1  0.53500000  0.32940000  0.89900000  1
  C  C173  1  0.90870000  0.31740000  0.12200000  1
  C  C174  1  0.59130000  0.31740000  0.19540000  1
  C  C175  1  0.96050000  0.29910000  0.33780000  1
  C  C176  1  0.53950000  0.29910000  0.96130000  1
  C  C177  1  0.03110000  0.29200000  0.46620000  1
  C  C178  1  0.46890000  0.29200000  0.82580000  1
  C  C179  1  0.97670000  0.28200000  0.05100000  1
  C  C180  1  0.52330000  0.28200000  0.23100000  1
  C  C181  1  0.02330000  0.23100000  0.28200000  1
  C  C182  1  0.47670000  0.23100000  0.94900000  1
  C  C183  1  0.09550000  0.22520000  0.40910000  1
  C  C184  1  0.40450000  0.22520000  0.81610000  1
  C  C185  1  0.09130000  0.19540000  0.31740000  1
  C  C186  1  0.40870000  0.19540000  0.87800000  1
  C  C187  1  0.55640000  0.18940000  0.57790000  1
  C  C188  1  0.94360000  0.18940000  0.61150000  1
  C  C189  1  0.40450000  0.18390000  0.40910000  1
  C  C190  1  0.09550000  0.18390000  0.77480000  1
  C  C191  1  0.25000000  0.18230000  0.59115000  1
  C  C192  1  0.46890000  0.17420000  0.46620000  1
  C  C193  1  0.03110000  0.17420000  0.70800000  1
  C  C194  1  0.40870000  0.12200000  0.31740000  1
  C  C195  1  0.09130000  0.12200000  0.80460000  1
  C  C196  1  0.75000000  0.10830000  0.55415000  1
  C  C197  1  0.53500000  0.10100000  0.43040000  1
  C  C198  1  0.96500000  0.10100000  0.67060000  1
  C  C199  1  0.25000000  0.08080000  0.54040000  1
  C  C200  1  0.66990000  0.06060000  0.50350000  1
  C  C201  1  0.83010000  0.06060000  0.55710000  1
  C  C202  1  0.47670000  0.05100000  0.28200000  1
  C  C203  1  0.02330000  0.05100000  0.76900000  1
  C  C204  1  0.53950000  0.03870000  0.33780000  1
  C  C205  1  0.96050000  0.03870000  0.70090000  1
  C  C206  1  0.16910000  0.03400000  0.49040000  1
  C  C207  1  0.33090000  0.03400000  0.54360000  1
  N  N208  1  0.08840000  0.88810000  0.39190000  1
  N  N209  1  0.41160000  0.88810000  0.49620000  1
  N  N210  1  0.98520000  0.77170000  0.33150000  1
  N  N211  1  0.51480000  0.77170000  0.44020000  1
  N  N212  1  0.51480000  0.66850000  0.22830000  1
  N  N213  1  0.98520000  0.66850000  0.44020000  1
  N  N214  1  0.41160000  0.60810000  0.11190000  1
  N  N215  1  0.08840000  0.60810000  0.49620000  1
  N  N216  1  0.98520000  0.55980000  0.22830000  1
  N  N217  1  0.51480000  0.55980000  0.33150000  1
  N  N218  1  0.08840000  0.50380000  0.11190000  1
  N  N219  1  0.41160000  0.50380000  0.39190000  1
  N  N220  1  0.58840000  0.49620000  0.60810000  1
  N  N221  1  0.91160000  0.49620000  0.88810000  1
  N  N222  1  0.48520000  0.44020000  0.66850000  1
  N  N223  1  0.01480000  0.44020000  0.77170000  1
  N  N224  1  0.91160000  0.39190000  0.50380000  1
  N  N225  1  0.58840000  0.39190000  0.88810000  1
  N  N226  1  0.01480000  0.33150000  0.55980000  1
  N  N227  1  0.48520000  0.33150000  0.77170000  1
  N  N228  1  0.48520000  0.22830000  0.55980000  1
  N  N229  1  0.01480000  0.22830000  0.66850000  1
  N  N230  1  0.58840000  0.11190000  0.50380000  1
  N  N231  1  0.91160000  0.11190000  0.60810000  1
  O  O232  1  0.68110000  0.77960000  0.35510000  1
  O  O233  1  0.81890000  0.77960000  0.42450000  1
  O  O234  1  0.81890000  0.64490000  0.22040000  1
  O  O235  1  0.68110000  0.64490000  0.42450000  1
  O  O236  1  0.68110000  0.57550000  0.22040000  1
  O  O237  1  0.81890000  0.57550000  0.35510000  1
  O  O238  1  0.18110000  0.42450000  0.64490000  1
  O  O239  1  0.31890000  0.42450000  0.77960000  1
  O  O240  1  0.31890000  0.35510000  0.57550000  1
  O  O241  1  0.18110000  0.35510000  0.77960000  1
  O  O242  1  0.18110000  0.22040000  0.57550000  1
  O  O243  1  0.31890000  0.22040000  0.64490000  1
