# generated using pymatgen
data_Cu2H13C21N10
_symmetry_space_group_name_H-M   'P 1'
_cell_length_a   10.85220000
_cell_length_b   18.08676897
_cell_length_c   18.08676897
_cell_angle_alpha   62.92302834
_cell_angle_beta   87.22733216
_cell_angle_gamma   87.22733216
_symmetry_Int_Tables_number   1
_chemical_formula_structural   Cu2H13C21N10
_chemical_formula_sum   'Cu8 H52 C84 N40'
_cell_volume   3155.90124664
_cell_formula_units_Z   4
loop_
 _symmetry_equiv_pos_site_id
 _symmetry_equiv_pos_as_xyz
  1  'x, y, z'
loop_
 _atom_site_type_symbol
 _atom_site_label
 _atom_site_symmetry_multiplicity
 _atom_site_fract_x
 _atom_site_fract_y
 _atom_site_fract_z
 _atom_site_occupancy
  C  C0  1  0.90705000  0.29724000  0.59604000  1
  C  C1  1  0.40705000  0.59604000  0.29724000  1
  C  C2  1  0.03126000  0.27501000  0.61201000  1
  C  C3  1  0.53126000  0.61201000  0.27501000  1
  C  C4  1  0.82522000  0.24376000  0.59340000  1
  C  C5  1  0.32522000  0.59340000  0.24376000  1
  C  C6  1  0.08121000  0.19551000  0.62761000  1
  C  C7  1  0.58121000  0.62761000  0.19551000  1
  C  C8  1  0.86957000  0.16439000  0.60795000  1
  C  C9  1  0.36957000  0.60795000  0.16439000  1
  C  C10  1  0.13707000  0.35338000  0.41602000  1
  C  C11  1  0.63707000  0.41602000  0.35338000  1
  C  C12  1  0.99845000  0.14149000  0.62321000  1
  C  C13  1  0.49845000  0.62321000  0.14149000  1
  C  C14  1  0.26264000  0.32510000  0.43786000  1
  C  C15  1  0.76264000  0.43786000  0.32510000  1
  C  C16  1  0.05439000  0.30871000  0.39479000  1
  C  C17  1  0.55439000  0.39479000  0.30871000  1
  C  C18  1  0.30942000  0.25169000  0.44047000  1
  C  C19  1  0.80942000  0.44047000  0.25169000  1
  C  C20  1  0.83667000  0.03495000  0.62125000  1
  C  C21  1  0.33667000  0.62125000  0.03495000  1
  C  C22  1  0.96025000  0.01119000  0.63785000  1
  C  C23  1  0.46025000  0.63785000  0.01119000  1
  C  C24  1  0.10321000  0.23459000  0.39845000  1
  C  C25  1  0.60321000  0.39845000  0.23459000  1
  C  C26  1  0.22967000  0.20645000  0.41833000  1
  C  C27  1  0.72967000  0.41833000  0.20645000  1
  C  C28  1  0.04704000  0.87509000  0.74409000  1
  C  C29  1  0.54704000  0.74409000  0.87509000  1
  C  C30  1  0.74045000  0.97653000  0.62007000  1
  C  C31  1  0.24045000  0.62007000  0.97653000  1
  C  C32  1  0.63597000  0.01213000  0.57921000  1
  C  C33  1  0.13597000  0.57921000  0.01213000  1
  C  C34  1  0.01261000  0.92515000  0.65365000  1
  C  C35  1  0.51261000  0.65365000  0.92515000  1
  C  C36  1  0.14268000  0.94163000  0.59607000  1
  C  C37  1  0.64268000  0.59607000  0.94163000  1
  C  C38  1  0.80042000  0.90209000  0.61253000  1
  C  C39  1  0.30042000  0.61253000  0.90209000  1
  C  C40  1  0.92900000  0.87790000  0.62506000  1
  C  C41  1  0.42900000  0.62506000  0.87790000  1
  C  C42  1  0.07100000  0.12210000  0.37494000  1
  C  C43  1  0.57100000  0.37494000  0.12210000  1
  C  C44  1  0.19958000  0.09791000  0.38747000  1
  C  C45  1  0.69958000  0.38747000  0.09791000  1
  C  C46  1  0.85732000  0.05837000  0.40393000  1
  C  C47  1  0.35732000  0.40393000  0.05837000  1
  C  C48  1  0.98739000  0.07485000  0.34635000  1
  C  C49  1  0.48739000  0.34635000  0.07485000  1
  C  C50  1  0.36403000  0.98787000  0.42079000  1
  C  C51  1  0.86403000  0.42079000  0.98787000  1
  C  C52  1  0.25955000  0.02347000  0.37993000  1
  C  C53  1  0.75955000  0.37993000  0.02347000  1
  C  C54  1  0.95296000  0.12491000  0.25591000  1
  C  C55  1  0.45296000  0.25591000  0.12491000  1
  C  C56  1  0.77033000  0.79355000  0.58167000  1
  C  C57  1  0.27033000  0.58167000  0.79355000  1
  C  C58  1  0.89679000  0.76541000  0.60155000  1
  C  C59  1  0.39679000  0.60155000  0.76541000  1
  C  C60  1  0.03975000  0.98881000  0.36215000  1
  C  C61  1  0.53975000  0.36215000  0.98881000  1
  C  C62  1  0.16333000  0.96505000  0.37875000  1
  C  C63  1  0.66333000  0.37875000  0.96505000  1
  C  C64  1  0.69058000  0.74831000  0.55953000  1
  C  C65  1  0.19058000  0.55953000  0.74831000  1
  C  C66  1  0.94561000  0.69129000  0.60521000  1
  C  C67  1  0.44561000  0.60521000  0.69129000  1
  C  C68  1  0.73736000  0.67490000  0.56214000  1
  C  C69  1  0.23736000  0.56214000  0.67490000  1
  C  C70  1  0.00155000  0.85851000  0.37679000  1
  C  C71  1  0.50155000  0.37679000  0.85851000  1
  C  C72  1  0.86293000  0.64662000  0.58398000  1
  C  C73  1  0.36293000  0.58398000  0.64662000  1
  C  C74  1  0.13043000  0.83561000  0.39205000  1
  C  C75  1  0.63043000  0.39205000  0.83561000  1
  C  C76  1  0.91879000  0.80449000  0.37239000  1
  C  C77  1  0.41879000  0.37239000  0.80449000  1
  C  C78  1  0.17478000  0.75624000  0.40660000  1
  C  C79  1  0.67478000  0.40660000  0.75624000  1
  C  C80  1  0.96874000  0.72499000  0.38799000  1
  C  C81  1  0.46874000  0.38799000  0.72499000  1
  C  C82  1  0.09295000  0.70276000  0.40396000  1
  C  C83  1  0.59295000  0.40396000  0.70276000  1
  Cu  Cu84  1  0.25000000  0.35856000  0.64144000  1
  Cu  Cu85  1  0.75000000  0.45680000  0.54320000  1
  Cu  Cu86  1  0.25000000  0.54320000  0.45680000  1
  Cu  Cu87  1  0.75000000  0.64144000  0.35856000  1
  Cu  Cu88  1  0.47509000  0.36072000  0.51542000  1
  Cu  Cu89  1  0.97509000  0.51542000  0.36072000  1
  Cu  Cu90  1  0.52491000  0.63928000  0.48458000  1
  Cu  Cu91  1  0.02491000  0.48458000  0.63928000  1
  H  H92  1  0.74102000  0.25977000  0.58191000  1
  H  H93  1  0.24102000  0.58191000  0.25977000  1
  H  H94  1  0.16544000  0.18025000  0.64023000  1
  H  H95  1  0.66544000  0.64023000  0.18025000  1
  H  H96  1  0.97216000  0.32773000  0.37921000  1
  H  H97  1  0.47216000  0.37921000  0.32773000  1
  H  H98  1  0.39160000  0.23272000  0.45644000  1
  H  H99  1  0.89160000  0.45644000  0.23272000  1
  H  H100  1  0.10959000  0.90418000  0.75728000  1
  H  H101  1  0.60959000  0.75728000  0.90418000  1
  H  H102  1  0.97362000  0.86830000  0.78000000  1
  H  H103  1  0.47362000  0.78000000  0.86830000  1
  H  H104  1  0.61583000  0.06332000  0.58372000  1
  H  H105  1  0.11583000  0.58372000  0.06332000  1
  H  H106  1  0.19873000  0.95766000  0.63152000  1
  H  H107  1  0.69873000  0.63152000  0.95766000  1
  H  H108  1  0.56817000  0.97358000  0.60368000  1
  H  H109  1  0.06817000  0.60368000  0.97358000  1
  H  H110  1  0.08021000  0.82018000  0.75316000  1
  H  H111  1  0.58021000  0.75316000  0.82018000  1
  H  H112  1  0.64822000  0.02517000  0.52047000  1
  H  H113  1  0.14822000  0.52047000  0.02517000  1
  H  H114  1  0.13042000  0.97661000  0.54807000  1
  H  H115  1  0.63042000  0.54807000  0.97661000  1
  H  H116  1  0.82921000  0.11677000  0.38933000  1
  H  H117  1  0.32921000  0.38933000  0.11677000  1
  H  H118  1  0.17079000  0.88323000  0.61067000  1
  H  H119  1  0.67079000  0.61067000  0.88323000  1
  H  H120  1  0.86958000  0.02339000  0.45193000  1
  H  H121  1  0.36958000  0.45193000  0.02339000  1
  H  H122  1  0.35178000  0.97483000  0.47953000  1
  H  H123  1  0.85178000  0.47953000  0.97483000  1
  H  H124  1  0.91979000  0.17982000  0.24684000  1
  H  H125  1  0.41979000  0.24684000  0.17982000  1
  H  H126  1  0.43183000  0.02642000  0.39632000  1
  H  H127  1  0.93183000  0.39632000  0.02642000  1
  H  H128  1  0.80127000  0.04234000  0.36848000  1
  H  H129  1  0.30127000  0.36848000  0.04234000  1
  H  H130  1  0.38417000  0.93668000  0.41628000  1
  H  H131  1  0.88417000  0.41628000  0.93668000  1
  H  H132  1  0.02638000  0.13170000  0.22000000  1
  H  H133  1  0.52638000  0.22000000  0.13170000  1
  H  H134  1  0.89041000  0.09582000  0.24272000  1
  H  H135  1  0.39041000  0.24272000  0.09582000  1
  H  H136  1  0.60840000  0.76728000  0.54356000  1
  H  H137  1  0.10840000  0.54356000  0.76728000  1
  H  H138  1  0.02784000  0.67227000  0.62079000  1
  H  H139  1  0.52784000  0.62079000  0.67227000  1
  H  H140  1  0.83456000  0.81975000  0.35977000  1
  H  H141  1  0.33456000  0.35977000  0.81975000  1
  H  H142  1  0.25898000  0.74023000  0.41809000  1
  H  H143  1  0.75898000  0.41809000  0.74023000  1
  N  N144  1  0.00442000  0.40052000  0.59462000  1
  N  N145  1  0.50442000  0.59462000  0.40052000  1
  N  N146  1  0.89178000  0.37888000  0.58248000  1
  N  N147  1  0.39178000  0.58248000  0.37888000  1
  N  N148  1  0.08995000  0.34071000  0.61193000  1
  N  N149  1  0.58995000  0.61193000  0.34071000  1
  N  N150  1  0.73033000  0.43896000  0.44512000  1
  N  N151  1  0.23033000  0.44512000  0.43896000  1
  N  N152  1  0.62356000  0.41716000  0.42908000  1
  N  N153  1  0.12356000  0.42908000  0.41716000  1
  N  N154  1  0.31566000  0.38555000  0.45185000  1
  N  N155  1  0.81566000  0.45185000  0.38555000  1
  N  N156  1  0.79003000  0.10733000  0.60863000  1
  N  N157  1  0.29003000  0.60863000  0.10733000  1
  N  N158  1  0.04039000  0.06240000  0.63830000  1
  N  N159  1  0.54039000  0.63830000  0.06240000  1
  N  N160  1  0.02570000  0.18934000  0.37660000  1
  N  N161  1  0.52570000  0.37660000  0.18934000  1
  N  N162  1  0.27440000  0.13564000  0.41494000  1
  N  N163  1  0.77440000  0.41494000  0.13564000  1
  N  N164  1  0.72560000  0.86436000  0.58506000  1
  N  N165  1  0.22560000  0.58506000  0.86436000  1
  N  N166  1  0.97430000  0.81066000  0.62340000  1
  N  N167  1  0.47430000  0.62340000  0.81066000  1
  N  N168  1  0.95961000  0.93760000  0.36170000  1
  N  N169  1  0.45961000  0.36170000  0.93760000  1
  N  N170  1  0.20997000  0.89267000  0.39137000  1
  N  N171  1  0.70997000  0.39137000  0.89267000  1
  N  N172  1  0.68434000  0.61445000  0.54815000  1
  N  N173  1  0.18434000  0.54815000  0.61445000  1
  N  N174  1  0.37644000  0.58284000  0.57092000  1
  N  N175  1  0.87644000  0.57092000  0.58284000  1
  N  N176  1  0.26967000  0.56104000  0.55488000  1
  N  N177  1  0.76967000  0.55488000  0.56104000  1
  N  N178  1  0.91005000  0.65929000  0.38807000  1
  N  N179  1  0.41005000  0.38807000  0.65929000  1
  N  N180  1  0.10822000  0.62112000  0.41752000  1
  N  N181  1  0.60822000  0.41752000  0.62112000  1
  N  N182  1  0.99558000  0.59948000  0.40538000  1
  N  N183  1  0.49558000  0.40538000  0.59948000  1
