# generated using pymatgen
data_CuH14(C11N6)2
_symmetry_space_group_name_H-M   'P 1'
_cell_length_a   8.98100000
_cell_length_b   16.00150000
_cell_length_c   16.00146386
_cell_angle_alpha   116.58317704
_cell_angle_beta   100.78265972
_cell_angle_gamma   100.78300000
_symmetry_Int_Tables_number   1
_chemical_formula_structural   CuH14(C11N6)2
_chemical_formula_sum   'Cu3 H42 C66 N36'
_cell_volume   1921.77581109
_cell_formula_units_Z   3
loop_
 _symmetry_equiv_pos_site_id
 _symmetry_equiv_pos_as_xyz
  1  'x, y, z'
loop_
 _atom_site_type_symbol
 _atom_site_label
 _atom_site_symmetry_multiplicity
 _atom_site_fract_x
 _atom_site_fract_y
 _atom_site_fract_z
 _atom_site_occupancy
  Cu  Cu0  1  0.50000000  0.50000000  0.50000000  1
  Cu  Cu1  1  1.00000000  0.50000000  1.00000000  1
  Cu  Cu2  1  0.00000000  0.00000000  0.50000000  1
  H  H3  1  0.91170000  0.74180000  0.88180000  1
  H  H4  1  0.89970000  0.22760000  0.86580000  1
  H  H5  1  0.85140000  0.38470000  0.77890000  1
  H  H6  1  0.83010000  0.86000000  0.74180000  1
  H  H7  1  0.38920000  0.96920000  0.30090000  1
  H  H8  1  0.46910000  0.73300000  0.37210000  1
  H  H9  1  0.32790000  0.36180000  0.22760000  1
  H  H10  1  0.53330000  0.60580000  0.38470000  1
  H  H11  1  0.02990000  0.11820000  0.86000000  1
  H  H12  1  0.59830000  0.32630000  0.38140000  1
  H  H13  1  0.90300000  0.37210000  0.63910000  1
  H  H14  1  0.21690000  0.61860000  0.94490000  1
  H  H15  1  0.67610000  0.20160000  0.39060000  1
  H  H16  1  0.52550000  0.81100000  0.20160000  1
  H  H17  1  0.96610000  0.86580000  0.63820000  1
  H  H18  1  0.42000000  0.33170000  0.03080000  1
  H  H19  1  0.72800000  0.94490000  0.32630000  1
  H  H20  1  0.08830000  0.69910000  0.66830000  1
  H  H21  1  0.07250000  0.22110000  0.60580000  1
  H  H22  1  0.73610000  0.63910000  0.26700000  1
  H  H23  1  0.28550000  0.60940000  0.81100000  1
  H  H24  1  0.71450000  0.39060000  0.18900000  1
  H  H25  1  0.26390000  0.36090000  0.73300000  1
  H  H26  1  0.92750000  0.77890000  0.39420000  1
  H  H27  1  0.91170000  0.30090000  0.33170000  1
  H  H28  1  0.27200000  0.05510000  0.67370000  1
  H  H29  1  0.58000000  0.66830000  0.96920000  1
  H  H30  1  0.03390000  0.13420000  0.36180000  1
  H  H31  1  0.47450000  0.18900000  0.79840000  1
  H  H32  1  0.32390000  0.79840000  0.60940000  1
  H  H33  1  0.78310000  0.38140000  0.05510000  1
  H  H34  1  0.09700000  0.62790000  0.36090000  1
  H  H35  1  0.40170000  0.67370000  0.61860000  1
  H  H36  1  0.97010000  0.88180000  0.14000000  1
  H  H37  1  0.46670000  0.39420000  0.61530000  1
  H  H38  1  0.67210000  0.63820000  0.77240000  1
  H  H39  1  0.53090000  0.26700000  0.62790000  1
  H  H40  1  0.61080000  0.03080000  0.69910000  1
  H  H41  1  0.16990000  0.14000000  0.25820000  1
  H  H42  1  0.14860000  0.61530000  0.22110000  1
  H  H43  1  0.10030000  0.77240000  0.13420000  1
  H  H44  1  0.08830000  0.25820000  0.11820000  1
  C  C45  1  0.31510000  0.00331000  0.31239000  1
  C  C46  1  0.75680000  0.65020000  0.74930000  1
  C  C47  1  0.44997000  0.72045000  0.42116000  1
  C  C48  1  0.49011000  0.64510000  0.43033000  1
  C  C49  1  0.90110000  0.71230000  0.81500000  1
  C  C50  1  0.81120000  0.89730000  0.71230000  1
  C  C51  1  0.61896000  0.22339000  0.51359000  1
  C  C52  1  0.00750000  0.25070000  0.90090000  1
  C  C53  1  0.76664000  0.00170000  0.62632000  1
  C  C54  1  0.94022000  0.43033000  0.78523000  1
  C  C55  1  0.58834000  0.31565000  0.43297000  1
  C  C56  1  0.68374000  0.15034000  0.52718000  1
  C  C57  1  0.74763000  0.05984000  0.57775000  1
  C  C58  1  0.08610000  0.18500000  0.89730000  1
  C  C59  1  0.63474000  0.24044000  0.43768000  1
  C  C60  1  0.23506000  0.37538000  0.00170000  1
  C  C61  1  0.85968000  0.62632000  0.62462000  1
  C  C62  1  0.89340000  0.90090000  0.65020000  1
  C  C63  1  0.31221000  0.48209000  0.05984000  1
  C  C64  1  0.97119000  0.42116000  0.70071000  1
  C  C65  1  0.15537000  0.56703000  0.88268000  1
  C  C66  1  0.00271000  0.68761000  0.69092000  1
  C  C67  1  0.83012000  0.57775000  0.51791000  1
  C  C68  1  0.31179000  0.30908000  0.99669000  1
  C  C69  1  0.46660000  0.62316000  0.15034000  1
  C  C70  1  0.60570000  0.80276000  0.24044000  1
  C  C71  1  0.60443000  0.70980000  0.22339000  1
  C  C72  1  0.19706000  0.56232000  0.80276000  1
  C  C73  1  0.10537000  0.48641000  0.70980000  1
  C  C74  1  0.72731000  0.88268000  0.31565000  1
  C  C75  1  0.72952000  0.70071000  0.27955000  1
  C  C76  1  0.84344000  0.52718000  0.37684000  1
  C  C77  1  0.84501000  0.78523000  0.35490000  1
  C  C78  1  0.15499000  0.21477000  0.64510000  1
  C  C79  1  0.15656000  0.47282000  0.62316000  1
  C  C80  1  0.27048000  0.29929000  0.72045000  1
  C  C81  1  0.27269000  0.11732000  0.68435000  1
  C  C82  1  0.89463000  0.51359000  0.29020000  1
  C  C83  1  0.80294000  0.43768000  0.19724000  1
  C  C84  1  0.39557000  0.29020000  0.77661000  1
  C  C85  1  0.39430000  0.19724000  0.75956000  1
  C  C86  1  0.53340000  0.37684000  0.84966000  1
  C  C87  1  0.68821000  0.69092000  0.00331000  1
  C  C88  1  0.16988000  0.42225000  0.48209000  1
  C  C89  1  0.99729000  0.31239000  0.30908000  1
  C  C90  1  0.84463000  0.43297000  0.11732000  1
  C  C91  1  0.02881000  0.57884000  0.29929000  1
  C  C92  1  0.68779000  0.51791000  0.94016000  1
  C  C93  1  0.10660000  0.09910000  0.34980000  1
  C  C94  1  0.14032000  0.37368000  0.37538000  1
  C  C95  1  0.76494000  0.62462000  0.99830000  1
  C  C96  1  0.36526000  0.75956000  0.56232000  1
  C  C97  1  0.91390000  0.81500000  0.10270000  1
  C  C98  1  0.25237000  0.94016000  0.42225000  1
  C  C99  1  0.31626000  0.84966000  0.47282000  1
  C  C100  1  0.41166000  0.68435000  0.56703000  1
  C  C101  1  0.05978000  0.56967000  0.21477000  1
  C  C102  1  0.23336000  0.99830000  0.37368000  1
  C  C103  1  0.99250000  0.74930000  0.09910000  1
  C  C104  1  0.38104000  0.77661000  0.48641000  1
  C  C105  1  0.18880000  0.10270000  0.28770000  1
  C  C106  1  0.09890000  0.28770000  0.18500000  1
  C  C107  1  0.50989000  0.35490000  0.56967000  1
  C  C108  1  0.55003000  0.27955000  0.57884000  1
  C  C109  1  0.24320000  0.34980000  0.25070000  1
  C  C110  1  0.68490000  0.99669000  0.68761000  1
  N  N111  1  0.29350000  0.05563000  0.26757000  1
  N  N112  1  0.52989000  0.37423000  0.49904000  1
  N  N113  1  0.65242000  0.11700000  0.58806000  1
  N  N114  1  0.73316000  0.60614000  0.65314000  1
  N  N115  1  0.08002000  0.34686000  0.95300000  1
  N  N116  1  0.03085000  0.50096000  0.87519000  1
  N  N117  1  0.22871000  0.54224000  0.05909000  1
  N  N118  1  0.32909000  0.63630000  0.11857000  1
  N  N119  1  0.68647000  0.51685000  0.45776000  1
  N  N120  1  0.02593000  0.73243000  0.78806000  1
  N  N121  1  0.87298000  0.95300000  0.60614000  1
  N  N122  1  0.23787000  0.21194000  0.94437000  1
  N  N123  1  0.78948000  0.11857000  0.48227000  1
  N  N124  1  0.83038000  0.05909000  0.51685000  1
  N  N125  1  0.69279000  0.48227000  0.36370000  1
  N  N126  1  0.46458000  0.52894000  0.11700000  1
  N  N127  1  0.93564000  0.58806000  0.47106000  1
  N  N128  1  0.84434000  0.87519000  0.37423000  1
  N  N129  1  0.15566000  0.12481000  0.62577000  1
  N  N130  1  0.06436000  0.41194000  0.52894000  1
  N  N131  1  0.53542000  0.47106000  0.88300000  1
  N  N132  1  0.30721000  0.51773000  0.63630000  1
  N  N133  1  0.16962000  0.94091000  0.48315000  1
  N  N134  1  0.21052000  0.88143000  0.51773000  1
  N  N135  1  0.76213000  0.78806000  0.05563000  1
  N  N136  1  0.12702000  0.04700000  0.39386000  1
  N  N137  1  0.97407000  0.26757000  0.21194000  1
  N  N138  1  0.31353000  0.48315000  0.54224000  1
  N  N139  1  0.67091000  0.36370000  0.88143000  1
  N  N140  1  0.77129000  0.45776000  0.94091000  1
  N  N141  1  0.96915000  0.49904000  0.12481000  1
  N  N142  1  0.91998000  0.65314000  0.04700000  1
  N  N143  1  0.26684000  0.39386000  0.34686000  1
  N  N144  1  0.34758000  0.88300000  0.41194000  1
  N  N145  1  0.47011000  0.62577000  0.50096000  1
  N  N146  1  0.70650000  0.94437000  0.73243000  1
