# generated using pymatgen
data_Co2H18C24N4O9
_symmetry_space_group_name_H-M   'P 1'
_cell_length_a   11.37900000
_cell_length_b   13.38600000
_cell_length_c   25.90400000
_cell_angle_alpha   90.00000000
_cell_angle_beta   90.00000000
_cell_angle_gamma   90.00000000
_symmetry_Int_Tables_number   1
_chemical_formula_structural   Co2H18C24N4O9
_chemical_formula_sum   'Co8 H72 C96 N16 O36'
_cell_volume   3945.67899178
_cell_formula_units_Z   4
loop_
 _symmetry_equiv_pos_site_id
 _symmetry_equiv_pos_as_xyz
  1  'x, y, z'
loop_
 _atom_site_type_symbol
 _atom_site_label
 _atom_site_symmetry_multiplicity
 _atom_site_fract_x
 _atom_site_fract_y
 _atom_site_fract_z
 _atom_site_occupancy
  Co  Co0  1  0.09813000  0.55392000  0.36133000  1
  Co  Co1  1  0.15568000  0.94353000  0.07801000  1
  Co  Co2  1  0.34432000  0.05647000  0.57801000  1
  Co  Co3  1  0.40187000  0.44608000  0.86133000  1
  Co  Co4  1  0.59813000  0.94608000  0.63867000  1
  Co  Co5  1  0.65568000  0.55647000  0.92199000  1
  Co  Co6  1  0.84432000  0.44353000  0.42199000  1
  Co  Co7  1  0.90187000  0.05392000  0.13867000  1
  H  H8  1  0.00420000  0.37170000  0.00300000  1
  H  H9  1  0.00500000  0.61500000  0.85350000  1
  H  H10  1  0.01490000  0.81570000  0.66400000  1
  H  H11  1  0.02540000  0.25360000  0.16300000  1
  H  H12  1  0.05430000  0.36670000  0.22910000  1
  H  H13  1  0.06620000  0.35290000  0.55630000  1
  H  H14  1  0.08880000  0.13040000  0.09100000  1
  H  H15  1  0.09350000  0.99760000  0.54160000  1
  H  H16  1  0.09770000  0.09870000  0.99350000  1
  H  H17  1  0.13150000  0.68760000  0.17590000  1
  H  H18  1  0.13170000  0.08900000  0.14580000  1
  H  H19  1  0.15470000  0.57520000  0.24500000  1
  H  H20  1  0.15530000  0.84300000  0.97400000  1
  H  H21  1  0.16930000  0.22800000  0.59960000  1
  H  H22  1  0.18870000  0.22270000  0.94370000  1
  H  H23  1  0.19170000  0.31130000  0.83620000  1
  H  H24  1  0.20510000  0.60410000  0.84780000  1
  H  H25  1  0.24890000  0.28480000  0.42660000  1
  H  H26  1  0.25110000  0.71520000  0.92660000  1
  H  H27  1  0.29490000  0.39590000  0.34780000  1
  H  H28  1  0.30830000  0.68870000  0.33620000  1
  H  H29  1  0.31130000  0.77730000  0.44370000  1
  H  H30  1  0.33070000  0.77200000  0.09960000  1
  H  H31  1  0.34470000  0.15700000  0.47400000  1
  H  H32  1  0.34530000  0.42480000  0.74500000  1
  H  H33  1  0.36830000  0.91100000  0.64580000  1
  H  H34  1  0.36850000  0.31240000  0.67590000  1
  H  H35  1  0.40230000  0.90130000  0.49350000  1
  H  H36  1  0.40650000  0.00240000  0.04160000  1
  H  H37  1  0.41120000  0.86960000  0.59100000  1
  H  H38  1  0.43380000  0.64710000  0.05630000  1
  H  H39  1  0.44570000  0.63330000  0.72910000  1
  H  H40  1  0.47460000  0.74640000  0.66300000  1
  H  H41  1  0.48510000  0.18430000  0.16400000  1
  H  H42  1  0.49500000  0.38500000  0.35350000  1
  H  H43  1  0.49580000  0.62830000  0.50300000  1
  H  H44  1  0.50420000  0.12830000  0.99700000  1
  H  H45  1  0.50500000  0.88500000  0.14650000  1
  H  H46  1  0.51490000  0.68430000  0.33600000  1
  H  H47  1  0.52540000  0.24640000  0.83700000  1
  H  H48  1  0.55430000  0.13330000  0.77090000  1
  H  H49  1  0.56620000  0.14710000  0.44370000  1
  H  H50  1  0.58880000  0.36960000  0.90900000  1
  H  H51  1  0.59350000  0.50240000  0.45840000  1
  H  H52  1  0.59770000  0.40130000  0.00650000  1
  H  H53  1  0.63150000  0.81240000  0.82410000  1
  H  H54  1  0.63170000  0.41100000  0.85420000  1
  H  H55  1  0.65470000  0.92480000  0.75500000  1
  H  H56  1  0.65530000  0.65700000  0.02600000  1
  H  H57  1  0.66930000  0.27200000  0.40040000  1
  H  H58  1  0.68870000  0.27730000  0.05630000  1
  H  H59  1  0.69170000  0.18870000  0.16380000  1
  H  H60  1  0.70510000  0.89590000  0.15220000  1
  H  H61  1  0.74890000  0.21520000  0.57340000  1
  H  H62  1  0.75110000  0.78480000  0.07340000  1
  H  H63  1  0.79490000  0.10410000  0.65220000  1
  H  H64  1  0.80830000  0.81130000  0.66380000  1
  H  H65  1  0.81130000  0.72270000  0.55630000  1
  H  H66  1  0.83070000  0.72800000  0.90040000  1
  H  H67  1  0.84470000  0.34300000  0.52600000  1
  H  H68  1  0.84530000  0.07520000  0.25500000  1
  H  H69  1  0.86830000  0.58900000  0.35420000  1
  H  H70  1  0.86850000  0.18760000  0.32410000  1
  H  H71  1  0.90230000  0.59870000  0.50650000  1
  H  H72  1  0.90650000  0.49760000  0.95840000  1
  H  H73  1  0.91120000  0.63040000  0.40900000  1
  H  H74  1  0.93380000  0.85290000  0.94370000  1
  H  H75  1  0.94570000  0.86670000  0.27090000  1
  H  H76  1  0.97460000  0.75360000  0.33700000  1
  H  H77  1  0.98510000  0.31570000  0.83600000  1
  H  H78  1  0.99500000  0.11500000  0.64650000  1
  H  H79  1  0.99580000  0.87170000  0.49700000  1
  C  C80  1  0.00700000  0.73960000  0.30400000  1
  C  C81  1  0.01080000  0.30740000  0.23550000  1
  C  C82  1  0.01950000  0.86540000  0.17317000  1
  C  C83  1  0.02690000  0.96630000  0.65525000  1
  C  C84  1  0.02910000  0.37570000  0.83940000  1
  C  C85  1  0.03380000  0.78980000  0.21650000  1
  C  C86  1  0.04130000  0.55170000  0.84897000  1
  C  C87  1  0.07890000  0.87730000  0.49490000  1
  C  C88  1  0.07950000  0.73220000  0.43440000  1
  C  C89  1  0.08650000  0.41510000  0.45779000  1
  C  C90  1  0.09810000  0.70210000  0.20870000  1
  C  C91  1  0.11240000  0.63550000  0.25040000  1
  C  C92  1  0.12480000  0.31550000  0.53870000  1
  C  C93  1  0.13820000  0.95040000  0.52240000  1
  C  C94  1  0.14240000  0.81340000  0.46470000  1
  C  C95  1  0.15050000  0.33540000  0.48830000  1
  C  C96  1  0.15280000  0.37380000  0.83910000  1
  C  C97  1  0.15860000  0.96980000  0.64851000  1
  C  C98  1  0.16000000  0.54440000  0.84660000  1
  C  C99  1  0.18090000  0.10450000  0.99410000  1
  C  C100  1  0.18570000  0.23930000  0.56410000  1
  C  C101  1  0.21140000  0.80180000  0.99090000  1
  C  C102  1  0.23220000  0.27490000  0.46210000  1
  C  C103  1  0.23470000  0.17860000  0.96410000  1
  C  C104  1  0.26530000  0.82140000  0.46410000  1
  C  C105  1  0.26780000  0.72510000  0.96210000  1
  C  C106  1  0.28860000  0.19820000  0.49090000  1
  C  C107  1  0.31430000  0.76070000  0.06410000  1
  C  C108  1  0.31910000  0.89550000  0.49410000  1
  C  C109  1  0.34000000  0.45560000  0.34660000  1
  C  C110  1  0.34140000  0.03020000  0.14851000  1
  C  C111  1  0.34720000  0.62620000  0.33910000  1
  C  C112  1  0.34950000  0.66460000  0.98830000  1
  C  C113  1  0.35760000  0.18660000  0.96470000  1
  C  C114  1  0.36180000  0.04960000  0.02240000  1
  C  C115  1  0.37520000  0.68450000  0.03870000  1
  C  C116  1  0.38760000  0.36450000  0.75040000  1
  C  C117  1  0.40190000  0.29790000  0.70870000  1
  C  C118  1  0.41350000  0.58490000  0.95779000  1
  C  C119  1  0.42050000  0.26780000  0.93440000  1
  C  C120  1  0.42110000  0.12270000  0.99490000  1
  C  C121  1  0.45870000  0.44830000  0.34897000  1
  C  C122  1  0.46620000  0.21020000  0.71650000  1
  C  C123  1  0.47090000  0.62430000  0.33940000  1
  C  C124  1  0.47310000  0.03370000  0.15525000  1
  C  C125  1  0.48050000  0.13460000  0.67317000  1
  C  C126  1  0.48920000  0.69260000  0.73550000  1
  C  C127  1  0.49300000  0.26040000  0.80400000  1
  C  C128  1  0.50700000  0.76040000  0.69600000  1
  C  C129  1  0.51080000  0.19260000  0.76450000  1
  C  C130  1  0.51950000  0.63460000  0.82683000  1
  C  C131  1  0.52690000  0.53370000  0.34475000  1
  C  C132  1  0.52910000  0.12430000  0.16060000  1
  C  C133  1  0.53380000  0.71020000  0.78350000  1
  C  C134  1  0.54130000  0.94830000  0.15103000  1
  C  C135  1  0.57890000  0.62270000  0.50510000  1
  C  C136  1  0.57950000  0.76780000  0.56560000  1
  C  C137  1  0.58650000  0.08490000  0.54221000  1
  C  C138  1  0.59810000  0.79790000  0.79130000  1
  C  C139  1  0.61240000  0.86450000  0.74960000  1
  C  C140  1  0.62480000  0.18450000  0.46130000  1
  C  C141  1  0.63820000  0.54960000  0.47760000  1
  C  C142  1  0.64240000  0.68660000  0.53530000  1
  C  C143  1  0.65050000  0.16460000  0.51170000  1
  C  C144  1  0.65280000  0.12620000  0.16090000  1
  C  C145  1  0.65860000  0.53020000  0.35149000  1
  C  C146  1  0.66000000  0.95560000  0.15340000  1
  C  C147  1  0.68090000  0.39550000  0.00590000  1
  C  C148  1  0.68570000  0.26070000  0.43590000  1
  C  C149  1  0.71140000  0.69820000  0.00910000  1
  C  C150  1  0.73220000  0.22510000  0.53790000  1
  C  C151  1  0.73470000  0.32140000  0.03590000  1
  C  C152  1  0.76530000  0.67860000  0.53590000  1
  C  C153  1  0.76780000  0.77490000  0.03790000  1
  C  C154  1  0.78860000  0.30180000  0.50910000  1
  C  C155  1  0.81430000  0.73930000  0.93590000  1
  C  C156  1  0.81910000  0.60450000  0.50590000  1
  C  C157  1  0.84000000  0.04440000  0.65340000  1
  C  C158  1  0.84140000  0.46980000  0.85149000  1
  C  C159  1  0.84720000  0.87380000  0.66090000  1
  C  C160  1  0.84950000  0.83540000  0.01170000  1
  C  C161  1  0.85760000  0.31340000  0.03530000  1
  C  C162  1  0.86180000  0.45040000  0.97760000  1
  C  C163  1  0.87520000  0.81550000  0.96130000  1
  C  C164  1  0.88760000  0.13550000  0.24960000  1
  C  C165  1  0.90190000  0.20210000  0.29130000  1
  C  C166  1  0.91350000  0.91510000  0.04221000  1
  C  C167  1  0.92050000  0.23220000  0.06560000  1
  C  C168  1  0.92110000  0.37730000  0.00510000  1
  C  C169  1  0.95870000  0.05170000  0.65103000  1
  C  C170  1  0.96620000  0.28980000  0.28350000  1
  C  C171  1  0.97090000  0.87570000  0.66060000  1
  C  C172  1  0.97310000  0.46630000  0.84475000  1
  C  C173  1  0.98050000  0.36540000  0.32683000  1
  C  C174  1  0.98920000  0.80740000  0.26450000  1
  C  C175  1  0.99300000  0.23960000  0.19600000  1
  N  N176  1  0.06830000  0.65440000  0.29749000  1
  N  N177  1  0.21740000  0.45640000  0.84269000  1
  N  N178  1  0.23430000  0.81800000  0.04101000  1
  N  N179  1  0.24250000  0.04210000  0.02323000  1
  N  N180  1  0.25750000  0.95790000  0.52323000  1
  N  N181  1  0.26570000  0.18200000  0.54101000  1
  N  N182  1  0.28260000  0.54360000  0.34269000  1
  N  N183  1  0.43170000  0.34560000  0.79749000  1
  N  N184  1  0.56830000  0.84560000  0.70251000  1
  N  N185  1  0.71740000  0.04360000  0.15731000  1
  N  N186  1  0.73430000  0.68200000  0.95899000  1
  N  N187  1  0.74250000  0.45790000  0.97677000  1
  N  N188  1  0.75750000  0.54210000  0.47677000  1
  N  N189  1  0.76570000  0.31800000  0.45899000  1
  N  N190  1  0.78260000  0.95640000  0.65731000  1
  N  N191  1  0.93170000  0.15440000  0.20251000  1
  O  O192  1  0.01580000  0.93630000  0.02691000  1
  O  O193  1  0.02850000  0.23050000  0.06333000  1
  O  O194  1  0.04920000  0.43630000  0.31623000  1
  O  O195  1  0.07440000  0.84950000  0.13257000  1
  O  O196  1  0.08370000  0.07300000  0.11502000  1
  O  O197  1  0.14070000  0.45350000  0.42034000  1
  O  O198  1  0.14600000  0.67380000  0.40746000  1
  O  O199  1  0.19850000  0.04900000  0.62648000  1
  O  O200  1  0.21960000  0.89670000  0.66367000  1
  O  O201  1  0.28040000  0.10330000  0.16367000  1
  O  O202  1  0.30150000  0.95100000  0.12648000  1
  O  O203  1  0.35400000  0.32620000  0.90746000  1
  O  O204  1  0.35930000  0.54650000  0.92034000  1
  O  O205  1  0.41630000  0.92700000  0.61502000  1
  O  O206  1  0.42560000  0.15050000  0.63257000  1
  O  O207  1  0.45080000  0.56370000  0.81623000  1
  O  O208  1  0.47150000  0.76950000  0.56333000  1
  O  O209  1  0.48420000  0.06370000  0.52691000  1
  O  O210  1  0.51580000  0.56370000  0.97309000  1
  O  O211  1  0.52850000  0.26950000  0.93667000  1
  O  O212  1  0.54920000  0.06370000  0.68377000  1
  O  O213  1  0.57440000  0.65050000  0.86743000  1
  O  O214  1  0.58370000  0.42700000  0.88498000  1
  O  O215  1  0.64070000  0.04650000  0.57966000  1
  O  O216  1  0.64600000  0.82620000  0.59254000  1
  O  O217  1  0.69850000  0.45100000  0.37352000  1
  O  O218  1  0.71960000  0.60330000  0.33633000  1
  O  O219  1  0.78040000  0.39670000  0.83633000  1
  O  O220  1  0.80150000  0.54900000  0.87352000  1
  O  O221  1  0.85400000  0.17380000  0.09254000  1
  O  O222  1  0.85930000  0.95350000  0.07966000  1
  O  O223  1  0.91630000  0.57300000  0.38498000  1
  O  O224  1  0.92560000  0.34950000  0.36743000  1
  O  O225  1  0.95080000  0.93630000  0.18377000  1
  O  O226  1  0.97150000  0.73050000  0.43667000  1
  O  O227  1  0.98420000  0.43630000  0.47309000  1
