# generated using pymatgen
data_KNa2Cd3H24(C2O)24
_symmetry_space_group_name_H-M   'P 1'
_cell_length_a   16.95870000
_cell_length_b   17.11555193
_cell_length_c   17.11555193
_cell_angle_alpha   112.61383000
_cell_angle_beta   106.05139548
_cell_angle_gamma   106.05139548
_symmetry_Int_Tables_number   1
_chemical_formula_structural   KNa2Cd3H24(C2O)24
_chemical_formula_sum   'K2 Na4 Cd6 H48 C96 O48'
_cell_volume   3975.72313309
_cell_formula_units_Z   2
loop_
 _symmetry_equiv_pos_site_id
 _symmetry_equiv_pos_as_xyz
  1  'x, y, z'
loop_
 _atom_site_type_symbol
 _atom_site_label
 _atom_site_symmetry_multiplicity
 _atom_site_fract_x
 _atom_site_fract_y
 _atom_site_fract_z
 _atom_site_occupancy
  C  C0  1  0.43720000  0.52760000  0.46200000  1
  C  C1  1  0.93720000  0.46200000  0.52760000  1
  C  C2  1  0.36960000  0.55900000  0.42180000  1
  C  C3  1  0.86960000  0.42180000  0.55900000  1
  C  C4  1  0.51870000  0.78570000  0.15870000  1
  C  C5  1  0.01870000  0.15870000  0.78570000  1
  C  C6  1  0.01130000  0.44100000  0.42680000  1
  C  C7  1  0.51130000  0.42680000  0.44100000  1
  C  C8  1  0.44970000  0.45440000  0.40480000  1
  C  C9  1  0.94970000  0.40480000  0.45440000  1
  C  C10  1  0.57620000  0.91810000  0.92270000  1
  C  C11  1  0.07620000  0.92270000  0.91810000  1
  C  C12  1  0.63630000  0.88060000  0.94860000  1
  C  C13  1  0.13630000  0.94860000  0.88060000  1
  C  C14  1  0.39160000  0.66230000  0.15110000  1
  C  C15  1  0.89160000  0.15110000  0.66230000  1
  C  C16  1  0.45500000  0.68470000  0.11770000  1
  C  C17  1  0.95500000  0.11770000  0.68470000  1
  C  C18  1  0.12910000  0.57380000  0.19000000  1
  C  C19  1  0.62910000  0.19000000  0.57380000  1
  C  C20  1  0.97500000  0.80560000  0.94060000  1
  C  C21  1  0.47500000  0.94060000  0.80560000  1
  C  C22  1  0.03530000  0.83100000  0.89600000  1
  C  C23  1  0.53530000  0.89600000  0.83100000  1
  C  C24  1  0.65460000  0.82220000  0.88240000  1
  C  C25  1  0.15460000  0.88240000  0.82220000  1
  C  C26  1  0.72100000  0.78290000  0.91090000  1
  C  C27  1  0.22100000  0.91090000  0.78290000  1
  C  C28  1  0.33200000  0.57010000  0.11390000  1
  C  C29  1  0.83200000  0.11390000  0.57010000  1
  C  C30  1  0.45750000  0.61360000  0.04660000  1
  C  C31  1  0.95750000  0.04660000  0.61360000  1
  C  C32  1  0.01620000  0.58470000  0.06970000  1
  C  C33  1  0.51620000  0.06970000  0.58470000  1
  C  C34  1  0.06250000  0.53630000  0.09150000  1
  C  C35  1  0.56250000  0.09150000  0.53630000  1
  C  C36  1  0.73330000  0.60180000  0.00120000  1
  C  C37  1  0.23330000  0.00120000  0.60180000  1
  C  C38  1  0.05300000  0.76570000  0.83550000  1
  C  C39  1  0.55300000  0.83550000  0.76570000  1
  C  C40  1  0.11150000  0.79080000  0.79840000  1
  C  C41  1  0.61150000  0.79840000  0.79080000  1
  C  C42  1  0.33333333  0.49910000  0.04070000  1
  C  C43  1  0.83330000  0.04070000  0.49910000  1
  C  C44  1  0.95440000  0.55000000  0.98000000  1
  C  C45  1  0.45440000  0.98000000  0.55000000  1
  C  C46  1  0.39770000  0.52130000  0.00830000  1
  C  C47  1  0.89770000  0.00830000  0.52130000  1
  C  C48  1  0.60230000  0.47870000  0.99170000  1
  C  C49  1  0.10230000  0.99170000  0.47870000  1
  C  C50  1  0.04560000  0.45000000  0.02000000  1
  C  C51  1  0.54560000  0.02000000  0.45000000  1
  C  C52  1  0.66666667  0.50090000  0.95930000  1
  C  C53  1  0.16670000  0.95930000  0.50090000  1
  C  C54  1  0.88850000  0.20920000  0.20160000  1
  C  C55  1  0.38850000  0.20160000  0.20920000  1
  C  C56  1  0.94700000  0.23430000  0.16450000  1
  C  C57  1  0.44700000  0.16450000  0.23430000  1
  C  C58  1  0.26670000  0.39820000  0.99880000  1
  C  C59  1  0.76670000  0.99880000  0.39820000  1
  C  C60  1  0.93750000  0.46370000  0.90850000  1
  C  C61  1  0.43750000  0.90850000  0.46370000  1
  C  C62  1  0.98380000  0.41530000  0.93030000  1
  C  C63  1  0.48380000  0.93030000  0.41530000  1
  C  C64  1  0.54250000  0.38640000  0.95340000  1
  C  C65  1  0.04250000  0.95340000  0.38640000  1
  C  C66  1  0.66800000  0.42990000  0.88610000  1
  C  C67  1  0.16800000  0.88610000  0.42990000  1
  C  C68  1  0.27900000  0.21710000  0.08910000  1
  C  C69  1  0.77900000  0.08910000  0.21710000  1
  C  C70  1  0.34540000  0.17780000  0.11760000  1
  C  C71  1  0.84540000  0.11760000  0.17780000  1
  C  C72  1  0.96470000  0.16900000  0.10400000  1
  C  C73  1  0.46470000  0.10400000  0.16900000  1
  C  C74  1  0.02500000  0.19440000  0.05940000  1
  C  C75  1  0.52500000  0.05940000  0.19440000  1
  C  C76  1  0.87090000  0.42620000  0.81000000  1
  C  C77  1  0.37090000  0.81000000  0.42620000  1
  C  C78  1  0.54500000  0.31530000  0.88230000  1
  C  C79  1  0.04500000  0.88230000  0.31530000  1
  C  C80  1  0.60840000  0.33770000  0.84890000  1
  C  C81  1  0.10840000  0.84890000  0.33770000  1
  C  C82  1  0.36370000  0.11940000  0.05140000  1
  C  C83  1  0.86370000  0.05140000  0.11940000  1
  C  C84  1  0.42380000  0.08190000  0.07730000  1
  C  C85  1  0.92380000  0.07730000  0.08190000  1
  C  C86  1  0.55030000  0.54560000  0.59520000  1
  C  C87  1  0.05030000  0.59520000  0.54560000  1
  C  C88  1  0.98870000  0.55900000  0.57320000  1
  C  C89  1  0.48870000  0.57320000  0.55900000  1
  C  C90  1  0.48130000  0.21430000  0.84130000  1
  C  C91  1  0.98130000  0.84130000  0.21430000  1
  C  C92  1  0.63040000  0.44100000  0.57820000  1
  C  C93  1  0.13040000  0.57820000  0.44100000  1
  C  C94  1  0.56280000  0.47240000  0.53800000  1
  C  C95  1  0.06280000  0.53800000  0.47240000  1
  Cd  Cd96  1  0.25000000  0.63247000  0.36753000  1
  Cd  Cd97  1  0.75000000  0.36753000  0.63247000  1
  Cd  Cd98  1  0.87225000  0.76981000  0.03085000  1
  Cd  Cd99  1  0.37225000  0.03085000  0.76981000  1
  Cd  Cd100  1  0.12775000  0.23019000  0.96915000  1
  Cd  Cd101  1  0.62775000  0.96915000  0.23019000  1
  H  H102  1  0.56390000  0.95890000  0.96890000  1
  H  H103  1  0.06390000  0.96890000  0.95890000  1
  H  H104  1  0.38910000  0.71080000  0.20020000  1
  H  H105  1  0.88910000  0.20020000  0.71080000  1
  H  H106  1  0.66420000  0.89580000  0.01200000  1
  H  H107  1  0.16420000  0.01200000  0.89580000  1
  H  H108  1  0.01940000  0.40050000  0.37650000  1
  H  H109  1  0.51940000  0.37650000  0.40050000  1
  H  H110  1  0.02710000  0.64350000  0.11790000  1
  H  H111  1  0.41460000  0.42270000  0.33870000  1
  H  H112  1  0.91460000  0.33870000  0.42270000  1
  H  H113  1  0.52710000  0.11790000  0.64350000  1
  H  H114  1  0.29000000  0.55550000  0.13870000  1
  H  H115  1  0.79000000  0.13870000  0.55550000  1
  H  H116  1  0.50100000  0.62810000  0.02330000  1
  H  H117  1  0.00100000  0.02330000  0.62810000  1
  H  H118  1  0.59910000  0.52720000  0.04040000  1
  H  H119  1  0.09910000  0.04040000  0.52720000  1
  H  H120  1  0.92310000  0.58460000  0.96640000  1
  H  H121  1  0.42310000  0.96640000  0.58460000  1
  H  H122  1  0.02440000  0.70180000  0.81900000  1
  H  H123  1  0.52440000  0.81900000  0.70180000  1
  H  H124  1  0.12200000  0.74400000  0.75600000  1
  H  H125  1  0.87800000  0.25600000  0.24400000  1
  H  H126  1  0.37800000  0.24400000  0.25600000  1
  H  H127  1  0.62200000  0.75600000  0.74400000  1
  H  H128  1  0.97560000  0.29820000  0.18100000  1
  H  H129  1  0.47560000  0.18100000  0.29820000  1
  H  H130  1  0.07690000  0.41540000  0.03360000  1
  H  H131  1  0.57690000  0.03360000  0.41540000  1
  H  H132  1  0.40090000  0.47280000  0.95960000  1
  H  H133  1  0.90090000  0.95960000  0.47280000  1
  H  H134  1  0.49900000  0.37190000  0.97670000  1
  H  H135  1  0.99900000  0.97670000  0.37190000  1
  H  H136  1  0.71000000  0.44450000  0.86130000  1
  H  H137  1  0.21000000  0.86130000  0.44450000  1
  H  H138  1  0.58540000  0.57730000  0.66130000  1
  H  H139  1  0.97290000  0.35650000  0.88210000  1
  H  H140  1  0.47290000  0.88210000  0.35650000  1
  H  H141  1  0.08540000  0.66130000  0.57730000  1
  H  H142  1  0.98060000  0.59950000  0.62350000  1
  H  H143  1  0.48060000  0.62350000  0.59950000  1
  H  H144  1  0.33580000  0.10420000  0.98800000  1
  H  H145  1  0.83580000  0.98800000  0.10420000  1
  H  H146  1  0.61090000  0.28920000  0.79980000  1
  H  H147  1  0.11090000  0.79980000  0.28920000  1
  H  H148  1  0.43610000  0.04110000  0.03110000  1
  H  H149  1  0.93610000  0.03110000  0.04110000  1
  K  K150  1  0.75000000  0.83699000  0.16301000  1
  K  K151  1  0.25000000  0.16301000  0.83699000  1
  Na  Na152  1  0.21818000  0.40629000  0.18901000  1
  Na  Na153  1  0.71818000  0.18901000  0.40629000  1
  Na  Na154  1  0.78182000  0.59371000  0.81099000  1
  Na  Na155  1  0.28182000  0.81099000  0.59371000  1
  O  O156  1  0.57700000  0.80407000  0.12793000  1
  O  O157  1  0.07700000  0.12793000  0.80407000  1
  O  O158  1  0.98890000  0.77999000  0.15141000  1
  O  O159  1  0.48890000  0.15141000  0.77999000  1
  O  O160  1  0.13450000  0.64570000  0.25430000  1
  O  O161  1  0.63450000  0.25430000  0.64570000  1
  O  O162  1  0.13600000  0.52260000  0.37180000  1
  O  O163  1  0.63600000  0.37180000  0.52260000  1
  O  O164  1  0.97400000  0.86966000  0.00714000  1
  O  O165  1  0.47400000  0.00714000  0.86966000  1
  O  O166  1  0.32280000  0.51640000  0.33680000  1
  O  O167  1  0.82280000  0.33680000  0.51640000  1
  O  O168  1  0.76230000  0.81407000  0.99773000  1
  O  O169  1  0.26230000  0.99773000  0.81407000  1
  O  O170  1  0.17640000  0.53286000  0.20594000  1
  O  O171  1  0.67640000  0.20594000  0.53286000  1
  O  O172  1  0.73970000  0.66257000  0.07423000  1
  O  O173  1  0.23970000  0.07423000  0.66257000  1
  O  O174  1  0.92960000  0.72035000  0.91085000  1
  O  O175  1  0.42960000  0.91085000  0.72035000  1
  O  O176  1  0.73200000  0.72570000  0.85090000  1
  O  O177  1  0.23200000  0.85090000  0.72570000  1
  O  O178  1  0.78040000  0.61671000  0.95909000  1
  O  O179  1  0.28040000  0.95909000  0.61671000  1
  O  O180  1  0.21960000  0.38329000  0.04091000  1
  O  O181  1  0.71960000  0.04091000  0.38329000  1
  O  O182  1  0.26800000  0.27430000  0.14910000  1
  O  O183  1  0.76800000  0.14910000  0.27430000  1
  O  O184  1  0.07040000  0.27965000  0.08915000  1
  O  O185  1  0.57040000  0.08915000  0.27965000  1
  O  O186  1  0.26030000  0.33743000  0.92577000  1
  O  O187  1  0.76030000  0.92577000  0.33743000  1
  O  O188  1  0.82360000  0.46714000  0.79406000  1
  O  O189  1  0.32360000  0.79406000  0.46714000  1
  O  O190  1  0.23770000  0.18593000  0.00227000  1
  O  O191  1  0.73770000  0.00227000  0.18593000  1
  O  O192  1  0.67720000  0.48360000  0.66320000  1
  O  O193  1  0.17720000  0.66320000  0.48360000  1
  O  O194  1  0.02600000  0.13034000  0.99286000  1
  O  O195  1  0.52600000  0.99286000  0.13034000  1
  O  O196  1  0.86400000  0.47740000  0.62820000  1
  O  O197  1  0.36400000  0.62820000  0.47740000  1
  O  O198  1  0.86550000  0.35430000  0.74570000  1
  O  O199  1  0.36550000  0.74570000  0.35430000  1
  O  O200  1  0.01110000  0.22001000  0.84859000  1
  O  O201  1  0.51110000  0.84859000  0.22001000  1
  O  O202  1  0.42300000  0.19593000  0.87207000  1
  O  O203  1  0.92300000  0.87207000  0.19593000  1
