# generated using pymatgen
data_ZnH10C12(NO)2
_symmetry_space_group_name_H-M   'P 1'
_cell_length_a   13.95620530
_cell_length_b   18.08020000
_cell_length_c   18.08020000
_cell_angle_alpha   81.42370000
_cell_angle_beta   67.29705509
_cell_angle_gamma   67.29710000
_symmetry_Int_Tables_number   1
_chemical_formula_structural   ZnH10C12(NO)2
_chemical_formula_sum   'Zn8 H80 C96 N16 O16'
_cell_volume   3882.61099613
_cell_formula_units_Z   8
loop_
 _symmetry_equiv_pos_site_id
 _symmetry_equiv_pos_as_xyz
  1  'x, y, z'
loop_
 _atom_site_type_symbol
 _atom_site_label
 _atom_site_symmetry_multiplicity
 _atom_site_fract_x
 _atom_site_fract_y
 _atom_site_fract_z
 _atom_site_occupancy
  Zn  Zn0  1  0.10425000  0.76672000  0.78176000  1
  Zn  Zn1  1  0.84727000  0.78176000  0.76672000  1
  Zn  Zn2  1  0.39575000  0.71824000  0.73328000  1
  Zn  Zn3  1  0.65273000  0.73328000  0.71824000  1
  Zn  Zn4  1  0.34727000  0.26672000  0.28176000  1
  Zn  Zn5  1  0.60425000  0.28176000  0.26672000  1
  Zn  Zn6  1  0.15273000  0.21824000  0.23328000  1
  Zn  Zn7  1  0.89575000  0.23328000  0.21824000  1
  H  H8  1  0.41060000  0.43290000  0.99250000  1
  H  H9  1  0.00690000  0.88120000  0.98280000  1
  H  H10  1  0.08310000  0.62180000  0.97940000  1
  H  H11  1  0.86500000  0.65840000  0.96440000  1
  H  H12  1  0.85530000  0.06230000  0.95330000  1
  H  H13  1  0.61230000  0.91710000  0.94990000  1
  H  H14  1  0.24500000  0.84030000  0.94610000  1
  H  H15  1  0.37090000  0.04670000  0.93770000  1
  H  H16  1  0.91060000  0.49250000  0.93290000  1
  H  H17  1  0.02070000  0.94990000  0.91710000  1
  H  H18  1  0.54120000  0.60130000  0.90750000  1
  H  H19  1  0.95880000  0.59250000  0.89870000  1
  H  H20  1  0.09250000  0.85770000  0.89290000  1
  H  H21  1  0.62910000  0.98280000  0.88120000  1
  H  H22  1  0.93410000  0.68570000  0.87870000  1
  H  H23  1  0.41690000  0.52060000  0.87820000  1
  H  H24  1  0.65690000  0.89290000  0.85770000  1
  H  H25  1  0.63500000  0.53560000  0.84160000  1
  H  H26  1  0.46860000  0.94610000  0.84030000  1
  H  H27  1  0.56590000  0.62130000  0.81430000  1
  H  H28  1  0.00150000  0.87870000  0.68570000  1
  H  H29  1  0.25500000  0.55390000  0.65970000  1
  H  H30  1  0.01220000  0.96440000  0.65840000  1
  H  H31  1  0.40750000  0.60710000  0.64230000  1
  H  H32  1  0.81570000  0.97940000  0.62180000  1
  H  H33  1  0.49850000  0.81430000  0.62130000  1
  H  H34  1  0.49310000  0.51720000  0.61880000  1
  H  H35  1  0.84310000  0.64230000  0.60710000  1
  H  H36  1  0.45000000  0.90750000  0.60130000  1
  H  H37  1  0.05000000  0.89870000  0.59250000  1
  H  H38  1  0.88770000  0.55010000  0.58290000  1
  H  H39  1  0.33600000  0.00750000  0.56710000  1
  H  H40  1  0.35530000  0.45330000  0.56230000  1
  H  H41  1  0.03140000  0.65970000  0.55390000  1
  H  H42  1  0.47930000  0.58290000  0.55010000  1
  H  H43  1  0.87090000  0.43770000  0.54670000  1
  H  H44  1  0.48780000  0.84160000  0.53560000  1
  H  H45  1  0.68430000  0.87820000  0.52060000  1
  H  H46  1  0.87090000  0.61880000  0.51720000  1
  H  H47  1  0.83600000  0.06710000  0.50750000  1
  H  H48  1  0.16400000  0.93290000  0.49250000  1
  H  H49  1  0.12910000  0.38120000  0.48280000  1
  H  H50  1  0.31570000  0.12180000  0.47940000  1
  H  H51  1  0.51220000  0.15840000  0.46440000  1
  H  H52  1  0.12910000  0.56230000  0.45330000  1
  H  H53  1  0.52070000  0.41710000  0.44990000  1
  H  H54  1  0.96860000  0.34030000  0.44610000  1
  H  H55  1  0.64470000  0.54670000  0.43770000  1
  H  H56  1  0.66400000  0.99250000  0.43290000  1
  H  H57  1  0.11230000  0.44990000  0.41710000  1
  H  H58  1  0.95000000  0.10130000  0.40750000  1
  H  H59  1  0.55000000  0.09250000  0.39870000  1
  H  H60  1  0.15690000  0.35770000  0.39290000  1
  H  H61  1  0.50690000  0.48280000  0.38120000  1
  H  H62  1  0.50150000  0.18570000  0.37870000  1
  H  H63  1  0.18430000  0.02060000  0.37820000  1
  H  H64  1  0.59250000  0.39290000  0.35770000  1
  H  H65  1  0.98780000  0.03560000  0.34160000  1
  H  H66  1  0.74500000  0.44610000  0.34030000  1
  H  H67  1  0.99850000  0.12130000  0.31430000  1
  H  H68  1  0.43410000  0.37870000  0.18570000  1
  H  H69  1  0.53140000  0.05390000  0.15970000  1
  H  H70  1  0.36500000  0.46440000  0.15840000  1
  H  H71  1  0.34310000  0.10710000  0.14230000  1
  H  H72  1  0.58310000  0.47940000  0.12180000  1
  H  H73  1  0.06590000  0.31430000  0.12130000  1
  H  H74  1  0.37090000  0.01720000  0.11880000  1
  H  H75  1  0.90750000  0.14230000  0.10710000  1
  H  H76  1  0.04120000  0.40750000  0.10130000  1
  H  H77  1  0.45880000  0.39870000  0.09250000  1
  H  H78  1  0.97930000  0.05010000  0.08290000  1
  H  H79  1  0.08940000  0.50750000  0.06710000  1
  H  H80  1  0.62910000  0.95330000  0.06230000  1
  H  H81  1  0.75500000  0.15970000  0.05390000  1
  H  H82  1  0.38770000  0.08290000  0.05010000  1
  H  H83  1  0.14470000  0.93770000  0.04670000  1
  H  H84  1  0.13500000  0.34160000  0.03560000  1
  H  H85  1  0.91690000  0.37820000  0.02060000  1
  H  H86  1  0.99310000  0.11880000  0.01720000  1
  H  H87  1  0.58940000  0.56710000  0.00750000  1
  C  C88  1  0.75410000  0.99590000  0.99590000  1
  C  C89  1  0.78980000  0.05940000  0.99500000  1
  C  C90  1  0.34330000  0.46770000  0.98590000  1
  C  C91  1  0.15240000  0.58070000  0.97570000  1
  C  C92  1  0.84330000  0.48590000  0.96770000  1
  C  C93  1  0.75000000  0.53600000  0.96400000  1
  C  C94  1  0.27040000  0.88240000  0.94500000  1
  C  C95  1  0.34420000  0.00500000  0.94060000  1
  C  C96  1  0.81670000  0.93330000  0.93330000  1
  C  C97  1  0.02030000  0.89520000  0.92620000  1
  C  C98  1  0.34760000  0.52430000  0.91930000  1
  C  C99  1  0.25000000  0.58330000  0.91670000  1
  C  C100  1  0.90070000  0.64600000  0.90700000  1
  C  C101  1  0.93050000  0.89030000  0.90410000  1
  C  C102  1  0.75000000  0.59840000  0.90160000  1
  C  C103  1  0.65830000  0.92620000  0.89520000  1
  C  C104  1  0.77510000  0.90410000  0.89030000  1
  C  C105  1  0.36490000  0.88510000  0.88510000  1
  C  C106  1  0.40220000  0.94500000  0.88240000  1
  C  C107  1  0.81760000  0.64810000  0.87570000  1
  C  C108  1  0.59930000  0.59300000  0.85400000  1
  C  C109  1  0.25000000  0.64610000  0.85390000  1
  C  C110  1  0.68240000  0.62430000  0.85190000  1
  C  C111  1  0.42800000  0.82200000  0.82200000  1
  C  C112  1  0.07200000  0.67800000  0.67800000  1
  C  C113  1  0.15860000  0.87570000  0.64810000  1
  C  C114  1  0.75000000  0.85390000  0.64610000  1
  C  C115  1  0.04630000  0.90700000  0.64600000  1
  C  C116  1  0.34140000  0.85190000  0.62430000  1
  C  C117  1  0.22960000  0.55500000  0.61760000  1
  C  C118  1  0.13510000  0.61490000  0.61490000  1
  C  C119  1  0.56950000  0.59590000  0.60970000  1
  C  C120  1  0.47970000  0.57380000  0.60480000  1
  C  C121  1  0.25000000  0.90160000  0.59840000  1
  C  C122  1  0.72490000  0.60970000  0.59590000  1
  C  C123  1  0.45370000  0.85400000  0.59300000  1
  C  C124  1  0.75000000  0.91666667  0.58330000  1
  C  C125  1  0.79120000  0.97570000  0.58070000  1
  C  C126  1  0.84170000  0.60480000  0.57380000  1
  C  C127  1  0.68330000  0.56670000  0.56670000  1
  C  C128  1  0.28980000  0.49500000  0.55940000  1
  C  C129  1  0.09780000  0.61760000  0.55500000  1
  C  C130  1  0.25000000  0.96400000  0.53600000  1
  C  C131  1  0.29690000  0.01410000  0.53230000  1
  C  C132  1  0.70880000  0.91930000  0.52430000  1
  C  C133  1  0.79690000  0.03230000  0.51410000  1
  C  C134  1  0.84420000  0.44060000  0.50500000  1
  C  C135  1  0.74590000  0.50410000  0.50410000  1
  C  C136  1  0.25410000  0.49590000  0.49590000  1
  C  C137  1  0.15580000  0.55940000  0.49500000  1
  C  C138  1  0.20310000  0.96770000  0.48590000  1
  C  C139  1  0.29120000  0.08070000  0.47570000  1
  C  C140  1  0.70310000  0.98590000  0.46770000  1
  C  C141  1  0.75000000  0.03600000  0.46400000  1
  C  C142  1  0.90220000  0.38240000  0.44500000  1
  C  C143  1  0.71020000  0.50500000  0.44060000  1
  C  C144  1  0.31670000  0.43330000  0.43330000  1
  C  C145  1  0.15830000  0.39520000  0.42620000  1
  C  C146  1  0.20880000  0.02430000  0.41930000  1
  C  C147  1  0.25000000  0.08333333  0.41670000  1
  C  C148  1  0.54630000  0.14600000  0.40700000  1
  C  C149  1  0.27510000  0.39030000  0.40410000  1
  C  C150  1  0.75000000  0.09840000  0.40160000  1
  C  C151  1  0.52030000  0.42620000  0.39520000  1
  C  C152  1  0.43050000  0.40410000  0.39030000  1
  C  C153  1  0.86490000  0.38510000  0.38510000  1
  C  C154  1  0.77040000  0.44500000  0.38240000  1
  C  C155  1  0.65860000  0.14810000  0.37570000  1
  C  C156  1  0.95370000  0.09300000  0.35400000  1
  C  C157  1  0.25000000  0.14610000  0.35390000  1
  C  C158  1  0.84140000  0.12430000  0.35190000  1
  C  C159  1  0.92800000  0.32200000  0.32200000  1
  C  C160  1  0.57200000  0.17800000  0.17800000  1
  C  C161  1  0.31760000  0.37570000  0.14810000  1
  C  C162  1  0.75000000  0.35390000  0.14610000  1
  C  C163  1  0.40070000  0.40700000  0.14600000  1
  C  C164  1  0.18240000  0.35190000  0.12430000  1
  C  C165  1  0.59780000  0.05500000  0.11760000  1
  C  C166  1  0.63510000  0.11490000  0.11490000  1
  C  C167  1  0.22490000  0.09590000  0.10970000  1
  C  C168  1  0.34170000  0.07380000  0.10480000  1
  C  C169  1  0.25000000  0.40160000  0.09840000  1
  C  C170  1  0.06950000  0.10970000  0.09590000  1
  C  C171  1  0.09930000  0.35400000  0.09300000  1
  C  C172  1  0.75000000  0.41670000  0.08330000  1
  C  C173  1  0.65240000  0.47570000  0.08070000  1
  C  C174  1  0.97970000  0.10480000  0.07380000  1
  C  C175  1  0.18330000  0.06670000  0.06670000  1
  C  C176  1  0.65580000  0.99500000  0.05940000  1
  C  C177  1  0.72960000  0.11760000  0.05500000  1
  C  C178  1  0.25000000  0.46400000  0.03600000  1
  C  C179  1  0.15670000  0.51410000  0.03230000  1
  C  C180  1  0.84760000  0.41930000  0.02430000  1
  C  C181  1  0.65670000  0.53230000  0.01410000  1
  C  C182  1  0.21020000  0.94060000  0.00500000  1
  C  C183  1  0.24590000  0.00410000  0.00410000  1
  N  N184  1  0.95570000  0.83960000  0.84700000  1
  N  N185  1  0.85770000  0.84700000  0.83960000  1
  N  N186  1  0.78930000  0.69830000  0.82010000  1
  N  N187  1  0.71070000  0.67990000  0.80170000  1
  N  N188  1  0.19230000  0.82010000  0.69830000  1
  N  N189  1  0.30770000  0.80170000  0.67990000  1
  N  N190  1  0.54430000  0.65300000  0.66040000  1
  N  N191  1  0.64230000  0.66040000  0.65300000  1
  N  N192  1  0.35770000  0.33960000  0.34700000  1
  N  N193  1  0.45570000  0.34700000  0.33960000  1
  N  N194  1  0.69230000  0.19830000  0.32010000  1
  N  N195  1  0.80770000  0.17990000  0.30170000  1
  N  N196  1  0.28930000  0.32010000  0.19830000  1
  N  N197  1  0.21070000  0.30170000  0.17990000  1
  N  N198  1  0.14230000  0.15300000  0.16040000  1
  N  N199  1  0.04430000  0.16040000  0.15300000  1
  O  O200  1  0.16310000  0.70500000  0.86480000  1
  O  O201  1  0.38780000  0.76780000  0.82460000  1
  O  O202  1  0.33690000  0.63520000  0.79500000  1
  O  O203  1  0.51980000  0.82460000  0.76780000  1
  O  O204  1  0.11220000  0.67540000  0.73220000  1
  O  O205  1  0.76710000  0.86480000  0.70500000  1
  O  O206  1  0.98020000  0.73220000  0.67540000  1
  O  O207  1  0.73290000  0.79500000  0.63520000  1
  O  O208  1  0.26710000  0.20500000  0.36480000  1
  O  O209  1  0.01980000  0.26780000  0.32460000  1
  O  O210  1  0.23290000  0.13520000  0.29500000  1
  O  O211  1  0.88780000  0.32460000  0.26780000  1
  O  O212  1  0.48020000  0.17540000  0.23220000  1
  O  O213  1  0.66310000  0.36480000  0.20500000  1
  O  O214  1  0.61220000  0.23220000  0.17540000  1
  O  O215  1  0.83690000  0.29500000  0.13520000  1
