# generated using pymatgen
data_CeH8C16NO6
_symmetry_space_group_name_H-M   'P 1'
_cell_length_a   13.50970000
_cell_length_b   14.56850000
_cell_length_c   16.24881351
_cell_angle_alpha   116.63479809
_cell_angle_beta   99.03563635
_cell_angle_gamma   90.00000000
_symmetry_Int_Tables_number   1
_chemical_formula_structural   CeH8C16NO6
_chemical_formula_sum   'Ce4 H32 C64 N4 O24'
_cell_volume   2814.19326966
_cell_formula_units_Z   4
loop_
 _symmetry_equiv_pos_site_id
 _symmetry_equiv_pos_as_xyz
  1  'x, y, z'
loop_
 _atom_site_type_symbol
 _atom_site_label
 _atom_site_symmetry_multiplicity
 _atom_site_fract_x
 _atom_site_fract_y
 _atom_site_fract_z
 _atom_site_occupancy
  Ce  Ce0  1  0.95721000  0.46729000  0.36264000  1
  Ce  Ce1  1  0.54279000  0.10465000  0.63736000  1
  Ce  Ce2  1  0.45721000  0.89535000  0.36264000  1
  Ce  Ce3  1  0.04279000  0.53271000  0.63736000  1
  H  H4  1  0.94450000  0.86810000  0.89060000  1
  H  H5  1  0.93190000  0.62560000  0.94140000  1
  H  H6  1  0.92410000  0.19890000  0.32140000  1
  H  H7  1  0.89080000  0.97160000  0.03300000  1
  H  H8  1  0.88260000  0.72620000  0.08360000  1
  H  H9  1  0.84900000  0.86600000  0.18400000  1
  H  H10  1  0.80420000  0.22110000  0.54120000  1
  H  H11  1  0.76840000  0.67730000  0.70760000  1
  H  H12  1  0.73160000  0.96970000  0.29240000  1
  H  H13  1  0.69580000  0.67990000  0.45880000  1
  H  H14  1  0.65100000  0.68200000  0.81600000  1
  H  H15  1  0.61740000  0.64260000  0.91640000  1
  H  H16  1  0.60920000  0.93860000  0.96700000  1
  H  H17  1  0.57590000  0.87750000  0.67860000  1
  H  H18  1  0.56810000  0.68420000  0.05860000  1
  H  H19  1  0.55550000  0.97750000  0.10940000  1
  H  H20  1  0.44450000  0.02250000  0.89060000  1
  H  H21  1  0.43190000  0.31580000  0.94140000  1
  H  H22  1  0.42410000  0.12250000  0.32140000  1
  H  H23  1  0.39080000  0.06140000  0.03300000  1
  H  H24  1  0.38260000  0.35740000  0.08360000  1
  H  H25  1  0.34900000  0.31800000  0.18400000  1
  H  H26  1  0.30420000  0.32010000  0.54120000  1
  H  H27  1  0.26840000  0.03030000  0.70760000  1
  H  H28  1  0.23160000  0.32270000  0.29240000  1
  H  H29  1  0.19580000  0.77890000  0.45880000  1
  H  H30  1  0.15100000  0.13400000  0.81600000  1
  H  H31  1  0.11740000  0.27380000  0.91640000  1
  H  H32  1  0.10920000  0.02840000  0.96700000  1
  H  H33  1  0.07590000  0.80110000  0.67860000  1
  H  H34  1  0.06810000  0.37440000  0.05860000  1
  H  H35  1  0.05550000  0.13190000  0.10940000  1
  C  C36  1  0.98080000  0.67290000  0.81200000  1
  C  C37  1  0.94590000  0.73790000  0.90340000  1
  C  C38  1  0.93250000  0.83970000  0.92960000  1
  C  C39  1  0.92900000  0.32920000  0.50160000  1
  C  C40  1  0.92540000  0.69540000  0.96020000  1
  C  C41  1  0.90040000  0.90250000  0.01540000  1
  C  C42  1  0.89510000  0.75570000  0.04560000  1
  C  C43  1  0.88370000  0.17120000  0.34740000  1
  C  C44  1  0.88360000  0.85810000  0.07340000  1
  C  C45  1  0.87300000  0.22640000  0.44060000  1
  C  C46  1  0.85440000  0.92240000  0.16560000  1
  C  C47  1  0.83270000  0.07300000  0.29260000  1
  C  C48  1  0.81660000  0.58780000  0.53900000  1
  C  C49  1  0.80980000  0.18490000  0.47840000  1
  C  C50  1  0.76720000  0.03340000  0.32960000  1
  C  C51  1  0.75540000  0.09010000  0.42280000  1
  C  C52  1  0.74460000  0.66730000  0.57720000  1
  C  C53  1  0.73280000  0.70380000  0.67040000  1
  C  C54  1  0.69020000  0.70650000  0.52160000  1
  C  C55  1  0.68340000  0.04880000  0.46100000  1
  C  C56  1  0.66730000  0.78040000  0.70740000  1
  C  C57  1  0.64560000  0.75680000  0.83440000  1
  C  C58  1  0.62700000  0.78580000  0.55940000  1
  C  C59  1  0.61640000  0.78470000  0.92660000  1
  C  C60  1  0.61630000  0.82380000  0.65260000  1
  C  C61  1  0.60490000  0.71010000  0.95440000  1
  C  C62  1  0.59960000  0.88710000  0.98460000  1
  C  C63  1  0.57460000  0.73520000  0.03980000  1
  C  C64  1  0.57100000  0.82760000  0.49840000  1
  C  C65  1  0.56750000  0.91010000  0.07040000  1
  C  C66  1  0.55410000  0.83450000  0.09660000  1
  C  C67  1  0.51920000  0.86090000  0.18800000  1
  C  C68  1  0.48080000  0.13910000  0.81200000  1
  C  C69  1  0.44590000  0.16550000  0.90340000  1
  C  C70  1  0.43250000  0.08990000  0.92960000  1
  C  C71  1  0.42900000  0.17240000  0.50160000  1
  C  C72  1  0.42540000  0.26480000  0.96020000  1
  C  C73  1  0.40040000  0.11290000  0.01540000  1
  C  C74  1  0.39510000  0.28990000  0.04560000  1
  C  C75  1  0.38370000  0.17620000  0.34740000  1
  C  C76  1  0.38360000  0.21530000  0.07340000  1
  C  C77  1  0.37300000  0.21420000  0.44060000  1
  C  C78  1  0.35440000  0.24320000  0.16560000  1
  C  C79  1  0.33270000  0.21960000  0.29260000  1
  C  C80  1  0.31660000  0.95120000  0.53900000  1
  C  C81  1  0.30980000  0.29350000  0.47840000  1
  C  C82  1  0.26720000  0.29620000  0.32960000  1
  C  C83  1  0.25540000  0.33270000  0.42280000  1
  C  C84  1  0.24460000  0.90990000  0.57720000  1
  C  C85  1  0.23280000  0.96660000  0.67040000  1
  C  C86  1  0.19020000  0.81510000  0.52160000  1
  C  C87  1  0.18340000  0.41220000  0.46100000  1
  C  C88  1  0.16730000  0.92700000  0.70740000  1
  C  C89  1  0.14560000  0.07760000  0.83440000  1
  C  C90  1  0.12700000  0.77360000  0.55940000  1
  C  C91  1  0.11640000  0.14190000  0.92660000  1
  C  C92  1  0.11630000  0.82880000  0.65260000  1
  C  C93  1  0.10490000  0.24430000  0.95440000  1
  C  C94  1  0.09960000  0.09750000  0.98460000  1
  C  C95  1  0.07460000  0.30460000  0.03980000  1
  C  C96  1  0.07100000  0.67080000  0.49840000  1
  C  C97  1  0.06750000  0.16030000  0.07040000  1
  C  C98  1  0.05410000  0.26210000  0.09660000  1
  C  C99  1  0.01920000  0.32710000  0.18800000  1
  N  N100  1  0.84990000  0.01770000  0.19840000  1
  N  N101  1  0.65010000  0.81930000  0.80160000  1
  N  N102  1  0.34990000  0.18070000  0.19840000  1
  N  N103  1  0.15010000  0.98230000  0.80160000  1
  O  O104  1  0.99820000  0.28783000  0.23746000  1
  O  O105  1  0.98780000  0.57893000  0.79026000  1
  O  O106  1  0.96280000  0.38013000  0.46326000  1
  O  O107  1  0.94530000  0.36252000  0.58884000  1
  O  O108  1  0.86550000  0.55798000  0.59496000  1
  O  O109  1  0.82560000  0.55370000  0.45420000  1
  O  O110  1  0.67440000  0.09950000  0.54580000  1
  O  O111  1  0.63450000  0.96302000  0.40504000  1
  O  O112  1  0.55470000  0.77368000  0.41116000  1
  O  O113  1  0.53720000  0.91687000  0.53674000  1
  O  O114  1  0.51220000  0.78867000  0.20974000  1
  O  O115  1  0.50180000  0.05037000  0.76254000  1
  O  O116  1  0.49820000  0.94963000  0.23746000  1
  O  O117  1  0.48780000  0.21133000  0.79026000  1
  O  O118  1  0.46280000  0.08313000  0.46326000  1
  O  O119  1  0.44530000  0.22632000  0.58884000  1
  O  O120  1  0.36550000  0.03698000  0.59496000  1
  O  O121  1  0.32560000  0.90050000  0.45420000  1
  O  O122  1  0.17440000  0.44630000  0.54580000  1
  O  O123  1  0.13450000  0.44202000  0.40504000  1
  O  O124  1  0.05470000  0.63748000  0.41116000  1
  O  O125  1  0.03720000  0.61987000  0.53674000  1
  O  O126  1  0.01220000  0.42107000  0.20974000  1
  O  O127  1  0.00180000  0.71217000  0.76254000  1
