# generated using pymatgen
data_MgH4(C2O)4
_symmetry_space_group_name_H-M   'P 1'
_cell_length_a   16.80990000
_cell_length_b   22.81040000
_cell_length_c   22.81040000
_cell_angle_alpha   120.00000000
_cell_angle_beta   90.00000000
_cell_angle_gamma   90.00000000
_symmetry_Int_Tables_number   1
_chemical_formula_structural   MgH4(C2O)4
_chemical_formula_sum   'Mg18 H72 C144 O72'
_cell_volume   7574.63244402
_cell_formula_units_Z   18
loop_
 _symmetry_equiv_pos_site_id
 _symmetry_equiv_pos_as_xyz
  1  'x, y, z'
loop_
 _atom_site_type_symbol
 _atom_site_label
 _atom_site_symmetry_multiplicity
 _atom_site_fract_x
 _atom_site_fract_y
 _atom_site_fract_z
 _atom_site_occupancy
  Mg  Mg0  1  0.79330000  0.96172000  0.22690000  1
  Mg  Mg1  1  0.29330000  0.96172000  0.73482000  1
  Mg  Mg2  1  0.76768000  0.93167000  0.37136000  1
  Mg  Mg3  1  0.26768000  0.93167000  0.56031000  1
  Mg  Mg4  1  0.29330000  0.77310000  0.03828000  1
  Mg  Mg5  1  0.79330000  0.77310000  0.73482000  1
  Mg  Mg6  1  0.26768000  0.62864000  0.06833000  1
  Mg  Mg7  1  0.76768000  0.62864000  0.56031000  1
  Mg  Mg8  1  0.78800000  0.59851000  0.70616000  1
  Mg  Mg9  1  0.28800000  0.59851000  0.89235000  1
  Mg  Mg10  1  0.76768000  0.43969000  0.06833000  1
  Mg  Mg11  1  0.26768000  0.43969000  0.37136000  1
  Mg  Mg12  1  0.28800000  0.29384000  0.40149000  1
  Mg  Mg13  1  0.78800000  0.29384000  0.89235000  1
  Mg  Mg14  1  0.79330000  0.26518000  0.03828000  1
  Mg  Mg15  1  0.29330000  0.26518000  0.22690000  1
  Mg  Mg16  1  0.78800000  0.10765000  0.40149000  1
  Mg  Mg17  1  0.28800000  0.10765000  0.70616000  1
  H  H18  1  0.58920000  0.96370000  0.41990000  1
  H  H19  1  0.08920000  0.96370000  0.54380000  1
  H  H20  1  0.47680000  0.95040000  0.47230000  1
  H  H21  1  0.97680000  0.95040000  0.47810000  1
  H  H22  1  0.97700000  0.91790000  0.22030000  1
  H  H23  1  0.47700000  0.91790000  0.69760000  1
  H  H24  1  0.08140000  0.86270000  0.14900000  1
  H  H25  1  0.58140000  0.86270000  0.71370000  1
  H  H26  1  0.58140000  0.85100000  0.13730000  1
  H  H27  1  0.08140000  0.85100000  0.71370000  1
  H  H28  1  0.55630000  0.82310000  0.29500000  1
  H  H29  1  0.05630000  0.82310000  0.52810000  1
  H  H30  1  0.12640000  0.82150000  0.90830000  1
  H  H31  1  0.62640000  0.82150000  0.91320000  1
  H  H32  1  0.00850000  0.81610000  0.85240000  1
  H  H33  1  0.50850000  0.81610000  0.96370000  1
  H  H34  1  0.47700000  0.77970000  0.08210000  1
  H  H35  1  0.97700000  0.77970000  0.69760000  1
  H  H36  1  0.43980000  0.76130000  0.24610000  1
  H  H37  1  0.93980000  0.76130000  0.51520000  1
  H  H38  1  0.93980000  0.75390000  0.23870000  1
  H  H39  1  0.43980000  0.75390000  0.51520000  1
  H  H40  1  0.05630000  0.70500000  0.17690000  1
  H  H41  1  0.55630000  0.70500000  0.52810000  1
  H  H42  1  0.60670000  0.63020000  0.77360000  1
  H  H43  1  0.10670000  0.63020000  0.85660000  1
  H  H44  1  0.98980000  0.62010000  0.79700000  1
  H  H45  1  0.48980000  0.62010000  0.82310000  1
  H  H46  1  0.08920000  0.58010000  0.03630000  1
  H  H47  1  0.58920000  0.58010000  0.54380000  1
  H  H48  1  0.97680000  0.52770000  0.04960000  1
  H  H49  1  0.47680000  0.52770000  0.47810000  1
  H  H50  1  0.47680000  0.52190000  0.04960000  1
  H  H51  1  0.97680000  0.52190000  0.47230000  1
  H  H52  1  0.43980000  0.48480000  0.23870000  1
  H  H53  1  0.93980000  0.48480000  0.24610000  1
  H  H54  1  0.55630000  0.47190000  0.17690000  1
  H  H55  1  0.05630000  0.47190000  0.29500000  1
  H  H56  1  0.57640000  0.45780000  0.62220000  1
  H  H57  1  0.07640000  0.45780000  0.83560000  1
  H  H58  1  0.58920000  0.45620000  0.03630000  1
  H  H59  1  0.08920000  0.45620000  0.41990000  1
  H  H60  1  0.96490000  0.44410000  0.59790000  1
  H  H61  1  0.46490000  0.44410000  0.84620000  1
  H  H62  1  0.46490000  0.40210000  0.55590000  1
  H  H63  1  0.96490000  0.40210000  0.84620000  1
  H  H64  1  0.07640000  0.37780000  0.54220000  1
  H  H65  1  0.57640000  0.37780000  0.83560000  1
  H  H66  1  0.97700000  0.30240000  0.08210000  1
  H  H67  1  0.47700000  0.30240000  0.22030000  1
  H  H68  1  0.08140000  0.28630000  0.13730000  1
  H  H69  1  0.58140000  0.28630000  0.14900000  1
  H  H70  1  0.10670000  0.22640000  0.36980000  1
  H  H71  1  0.60670000  0.22640000  0.85660000  1
  H  H72  1  0.48980000  0.20300000  0.37990000  1
  H  H73  1  0.98980000  0.20300000  0.82310000  1
  H  H74  1  0.98980000  0.17690000  0.37990000  1
  H  H75  1  0.48980000  0.17690000  0.79700000  1
  H  H76  1  0.57640000  0.16440000  0.54220000  1
  H  H77  1  0.07640000  0.16440000  0.62220000  1
  H  H78  1  0.96490000  0.15380000  0.55590000  1
  H  H79  1  0.46490000  0.15380000  0.59790000  1
  H  H80  1  0.50850000  0.14760000  0.18390000  1
  H  H81  1  0.00850000  0.14760000  0.96370000  1
  H  H82  1  0.60670000  0.14340000  0.36980000  1
  H  H83  1  0.10670000  0.14340000  0.77360000  1
  H  H84  1  0.62640000  0.09170000  0.17850000  1
  H  H85  1  0.12640000  0.09170000  0.91320000  1
  H  H86  1  0.12640000  0.08680000  0.17850000  1
  H  H87  1  0.62640000  0.08680000  0.90830000  1
  H  H88  1  0.00850000  0.03630000  0.18390000  1
  H  H89  1  0.50850000  0.03630000  0.85240000  1
  C  C90  1  0.49810000  0.99350000  0.48920000  1
  C  C91  1  0.99810000  0.99350000  0.50430000  1
  C  C92  1  0.65950000  0.87950000  0.24860000  1
  C  C93  1  0.15950000  0.87950000  0.63090000  1
  C  C94  1  0.87600000  0.87520000  0.28120000  1
  C  C95  1  0.37600000  0.87520000  0.59400000  1
  C  C96  1  0.99080000  0.87450000  0.21090000  1
  C  C97  1  0.49080000  0.87450000  0.66360000  1
  C  C98  1  0.94680000  0.84280000  0.23830000  1
  C  C99  1  0.44680000  0.84280000  0.60450000  1
  C  C100  1  0.05520000  0.84200000  0.16980000  1
  C  C101  1  0.55520000  0.84200000  0.67220000  1
  C  C102  1  0.58180000  0.84150000  0.21920000  1
  C  C103  1  0.08180000  0.84150000  0.62230000  1
  C  C104  1  0.55520000  0.83020000  0.15800000  1
  C  C105  1  0.05520000  0.83020000  0.67220000  1
  C  C106  1  0.53950000  0.81540000  0.25290000  1
  C  C107  1  0.03950000  0.81540000  0.56250000  1
  C  C108  1  0.49080000  0.78910000  0.12550000  1
  C  C109  1  0.99080000  0.78910000  0.66360000  1
  C  C110  1  0.09710000  0.78150000  0.88760000  1
  C  C111  1  0.59710000  0.78150000  0.89390000  1
  C  C112  1  0.08180000  0.78080000  0.15850000  1
  C  C113  1  0.58180000  0.78080000  0.62230000  1
  C  C114  1  0.02780000  0.77760000  0.85190000  1
  C  C115  1  0.52780000  0.77760000  0.92570000  1
  C  C116  1  0.97030000  0.77750000  0.22320000  1
  C  C117  1  0.47030000  0.77750000  0.55430000  1
  C  C118  1  0.47030000  0.77680000  0.22250000  1
  C  C119  1  0.97030000  0.77680000  0.55430000  1
  C  C120  1  0.44680000  0.76170000  0.15720000  1
  C  C121  1  0.94680000  0.76170000  0.60450000  1
  C  C122  1  0.15950000  0.75140000  0.12050000  1
  C  C123  1  0.65950000  0.75140000  0.63090000  1
  C  C124  1  0.03950000  0.74710000  0.18460000  1
  C  C125  1  0.53950000  0.74710000  0.56250000  1
  C  C126  1  0.69860000  0.74230000  0.80080000  1
  C  C127  1  0.19860000  0.74230000  0.94150000  1
  C  C128  1  0.62200000  0.72720000  0.83490000  1
  C  C129  1  0.12200000  0.72720000  0.89230000  1
  C  C130  1  0.37600000  0.71880000  0.12480000  1
  C  C131  1  0.87600000  0.71880000  0.59400000  1
  C  C132  1  0.98880000  0.71850000  0.81680000  1
  C  C133  1  0.48880000  0.71850000  0.90170000  1
  C  C134  1  0.91760000  0.70690000  0.77610000  1
  C  C135  1  0.41760000  0.70690000  0.93080000  1
  C  C136  1  0.58590000  0.66810000  0.81130000  1
  C  C137  1  0.08590000  0.66810000  0.85680000  1
  C  C138  1  0.01670000  0.66120000  0.81940000  1
  C  C139  1  0.51670000  0.66120000  0.84180000  1
  C  C140  1  0.66940000  0.55430000  0.62580000  1
  C  C141  1  0.16940000  0.55430000  0.92850000  1
  C  C142  1  0.56620000  0.54280000  0.54330000  1
  C  C143  1  0.06620000  0.54280000  0.99950000  1
  C  C144  1  0.89110000  0.53880000  0.57970000  1
  C  C145  1  0.39110000  0.53880000  0.95910000  1
  C  C146  1  0.59540000  0.51680000  0.57910000  1
  C  C147  1  0.09540000  0.51680000  0.93770000  1
  C  C148  1  0.99810000  0.51080000  0.00650000  1
  C  C149  1  0.49810000  0.51080000  0.50430000  1
  C  C150  1  0.95940000  0.49780000  0.54660000  1
  C  C151  1  0.45940000  0.49780000  0.95120000  1
  C  C152  1  0.49810000  0.49570000  0.00650000  1
  C  C153  1  0.99810000  0.49570000  0.48920000  1
  C  C154  1  0.55750000  0.46810000  0.59000000  1
  C  C155  1  0.05750000  0.46810000  0.87810000  1
  C  C156  1  0.06620000  0.45670000  0.45720000  1
  C  C157  1  0.56620000  0.45670000  0.99950000  1
  C  C158  1  0.45940000  0.45340000  0.50220000  1
  C  C159  1  0.95940000  0.45340000  0.95120000  1
  C  C160  1  0.99010000  0.44920000  0.56450000  1
  C  C161  1  0.49010000  0.44920000  0.88470000  1
  C  C162  1  0.97030000  0.44570000  0.22250000  1
  C  C163  1  0.47030000  0.44570000  0.22320000  1
  C  C164  1  0.53950000  0.43750000  0.18460000  1
  C  C165  1  0.03950000  0.43750000  0.25290000  1
  C  C166  1  0.49010000  0.43550000  0.55080000  1
  C  C167  1  0.99010000  0.43550000  0.88470000  1
  C  C168  1  0.09540000  0.42090000  0.48320000  1
  C  C169  1  0.59540000  0.42090000  0.93770000  1
  C  C170  1  0.39110000  0.42030000  0.46120000  1
  C  C171  1  0.89110000  0.42030000  0.95910000  1
  C  C172  1  0.05750000  0.41000000  0.53190000  1
  C  C173  1  0.55750000  0.41000000  0.87810000  1
  C  C174  1  0.87600000  0.40600000  0.12480000  1
  C  C175  1  0.37600000  0.40600000  0.28120000  1
  C  C176  1  0.94680000  0.39550000  0.15720000  1
  C  C177  1  0.44680000  0.39550000  0.23830000  1
  C  C178  1  0.58180000  0.37770000  0.15850000  1
  C  C179  1  0.08180000  0.37770000  0.21920000  1
  C  C180  1  0.16940000  0.37420000  0.44570000  1
  C  C181  1  0.66940000  0.37420000  0.92850000  1
  C  C182  1  0.65950000  0.36910000  0.12050000  1
  C  C183  1  0.15950000  0.36910000  0.24860000  1
  C  C184  1  0.99080000  0.33640000  0.12550000  1
  C  C185  1  0.49080000  0.33640000  0.21090000  1
  C  C186  1  0.05520000  0.32780000  0.15800000  1
  C  C187  1  0.55520000  0.32780000  0.16980000  1
  C  C188  1  0.41760000  0.22390000  0.29310000  1
  C  C189  1  0.91760000  0.22390000  0.93080000  1
  C  C190  1  0.19860000  0.19920000  0.25770000  1
  C  C191  1  0.69860000  0.19920000  0.94150000  1
  C  C192  1  0.08590000  0.18870000  0.33190000  1
  C  C193  1  0.58590000  0.18870000  0.85680000  1
  C  C194  1  0.48880000  0.18320000  0.28150000  1
  C  C195  1  0.98880000  0.18320000  0.90170000  1
  C  C196  1  0.51670000  0.18060000  0.33880000  1
  C  C197  1  0.01670000  0.18060000  0.84180000  1
  C  C198  1  0.12200000  0.16510000  0.27280000  1
  C  C199  1  0.62200000  0.16510000  0.89230000  1
  C  C200  1  0.01670000  0.15820000  0.33880000  1
  C  C201  1  0.51670000  0.15820000  0.81940000  1
  C  C202  1  0.52780000  0.14810000  0.22240000  1
  C  C203  1  0.02780000  0.14810000  0.92570000  1
  C  C204  1  0.58590000  0.14320000  0.33190000  1
  C  C205  1  0.08590000  0.14320000  0.81130000  1
  C  C206  1  0.55750000  0.12190000  0.53190000  1
  C  C207  1  0.05750000  0.12190000  0.59000000  1
  C  C208  1  0.99010000  0.11530000  0.55080000  1
  C  C209  1  0.49010000  0.11530000  0.56450000  1
  C  C210  1  0.59710000  0.11240000  0.21850000  1
  C  C211  1  0.09710000  0.11240000  0.89390000  1
  C  C212  1  0.62200000  0.10770000  0.27280000  1
  C  C213  1  0.12200000  0.10770000  0.83490000  1
  C  C214  1  0.09710000  0.10610000  0.21850000  1
  C  C215  1  0.59710000  0.10610000  0.88760000  1
  C  C216  1  0.98880000  0.09830000  0.28150000  1
  C  C217  1  0.48880000  0.09830000  0.81680000  1
  C  C218  1  0.02780000  0.07430000  0.22240000  1
  C  C219  1  0.52780000  0.07430000  0.85190000  1
  C  C220  1  0.66940000  0.07150000  0.44570000  1
  C  C221  1  0.16940000  0.07150000  0.62580000  1
  C  C222  1  0.91760000  0.06920000  0.29310000  1
  C  C223  1  0.41760000  0.06920000  0.77610000  1
  C  C224  1  0.59540000  0.06230000  0.48320000  1
  C  C225  1  0.09540000  0.06230000  0.57910000  1
  C  C226  1  0.69860000  0.05850000  0.25770000  1
  C  C227  1  0.19860000  0.05850000  0.80080000  1
  C  C228  1  0.95940000  0.04880000  0.50220000  1
  C  C229  1  0.45940000  0.04880000  0.54660000  1
  C  C230  1  0.89110000  0.04090000  0.46120000  1
  C  C231  1  0.39110000  0.04090000  0.57970000  1
  C  C232  1  0.56620000  0.00050000  0.45720000  1
  C  C233  1  0.06620000  0.00050000  0.54330000  1
  O  O234  1  0.86050000  0.98200000  0.42900000  1
  O  O235  1  0.36050000  0.98200000  0.55300000  1
  O  O236  1  0.84470000  0.92440000  0.28080000  1
  O  O237  1  0.34470000  0.92440000  0.64360000  1
  O  O238  1  0.69150000  0.90820000  0.22210000  1
  O  O239  1  0.19150000  0.90820000  0.68610000  1
  O  O240  1  0.68210000  0.88280000  0.30530000  1
  O  O241  1  0.18210000  0.88280000  0.57750000  1
  O  O242  1  0.85070000  0.85030000  0.31610000  1
  O  O243  1  0.35070000  0.85030000  0.53420000  1
  O  O244  1  0.71870000  0.79730000  0.81770000  1
  O  O245  1  0.21870000  0.79730000  0.97960000  1
  O  O246  1  0.19150000  0.77790000  0.09180000  1
  O  O247  1  0.69150000  0.77790000  0.68610000  1
  O  O248  1  0.89190000  0.76030000  0.78130000  1
  O  O249  1  0.39190000  0.76030000  0.97900000  1
  O  O250  1  0.34470000  0.71920000  0.07560000  1
  O  O251  1  0.84470000  0.71920000  0.64360000  1
  O  O252  1  0.18210000  0.69470000  0.11720000  1
  O  O253  1  0.68210000  0.69470000  0.57750000  1
  O  O254  1  0.72810000  0.68930000  0.74850000  1
  O  O255  1  0.22810000  0.68930000  0.94080000  1
  O  O256  1  0.35070000  0.68390000  0.14970000  1
  O  O257  1  0.85070000  0.68390000  0.53420000  1
  O  O258  1  0.88530000  0.64900000  0.74730000  1
  O  O259  1  0.38530000  0.64900000  0.90170000  1
  O  O260  1  0.70900000  0.59280000  0.61340000  1
  O  O261  1  0.20900000  0.59280000  0.97940000  1
  O  O262  1  0.36050000  0.57100000  0.01800000  1
  O  O263  1  0.86050000  0.57100000  0.55300000  1
  O  O264  1  0.68880000  0.53940000  0.66790000  1
  O  O265  1  0.18880000  0.53940000  0.87150000  1
  O  O266  1  0.85960000  0.53340000  0.62490000  1
  O  O267  1  0.35960000  0.53340000  0.90850000  1
  O  O268  1  0.85070000  0.46580000  0.14970000  1
  O  O269  1  0.35070000  0.46580000  0.31610000  1
  O  O270  1  0.86050000  0.44700000  0.01800000  1
  O  O271  1  0.36050000  0.44700000  0.42900000  1
  O  O272  1  0.68210000  0.42250000  0.11720000  1
  O  O273  1  0.18210000  0.42250000  0.30530000  1
  O  O274  1  0.20900000  0.38660000  0.40720000  1
  O  O275  1  0.70900000  0.38660000  0.97940000  1
  O  O276  1  0.35960000  0.37510000  0.46660000  1
  O  O277  1  0.85960000  0.37510000  0.90850000  1
  O  O278  1  0.84470000  0.35640000  0.07560000  1
  O  O279  1  0.34470000  0.35640000  0.28080000  1
  O  O280  1  0.18880000  0.33210000  0.46060000  1
  O  O281  1  0.68880000  0.33210000  0.87150000  1
  O  O282  1  0.69150000  0.31390000  0.09180000  1
  O  O283  1  0.19150000  0.31390000  0.22210000  1
  O  O284  1  0.38530000  0.25270000  0.35100000  1
  O  O285  1  0.88530000  0.25270000  0.90170000  1
  O  O286  1  0.22810000  0.25150000  0.31070000  1
  O  O287  1  0.72810000  0.25150000  0.94080000  1
  O  O288  1  0.39190000  0.21870000  0.23970000  1
  O  O289  1  0.89190000  0.21870000  0.97900000  1
  O  O290  1  0.21870000  0.18230000  0.20270000  1
  O  O291  1  0.71870000  0.18230000  0.97960000  1
  O  O292  1  0.68880000  0.12850000  0.46060000  1
  O  O293  1  0.18880000  0.12850000  0.66790000  1
  O  O294  1  0.88530000  0.09830000  0.35100000  1
  O  O295  1  0.38530000  0.09830000  0.74730000  1
  O  O296  1  0.85960000  0.09150000  0.46660000  1
  O  O297  1  0.35960000  0.09150000  0.62490000  1
  O  O298  1  0.72810000  0.05920000  0.31070000  1
  O  O299  1  0.22810000  0.05920000  0.74850000  1
  O  O300  1  0.89190000  0.02100000  0.23970000  1
  O  O301  1  0.39190000  0.02100000  0.78130000  1
  O  O302  1  0.70900000  0.02060000  0.40720000  1
  O  O303  1  0.20900000  0.02060000  0.61340000  1
  O  O304  1  0.71870000  0.02040000  0.20270000  1
  O  O305  1  0.21870000  0.02040000  0.81770000  1
