# generated using pymatgen
data_Cd2B2H48C55N6(O2F)4
_symmetry_space_group_name_H-M   'P 1'
_cell_length_a   14.15220000
_cell_length_b   19.44128490
_cell_length_c   21.22730000
_cell_angle_alpha   90.00000000
_cell_angle_beta   90.00000000
_cell_angle_gamma   96.53405906
_symmetry_Int_Tables_number   1
_chemical_formula_structural   Cd2B2H48C55N6(O2F)4
_chemical_formula_sum   'Cd8 B8 H192 C220 N24 O32 F16'
_cell_volume   5802.47755227
_cell_formula_units_Z   4
loop_
 _symmetry_equiv_pos_site_id
 _symmetry_equiv_pos_as_xyz
  1  'x, y, z'
loop_
 _atom_site_type_symbol
 _atom_site_label
 _atom_site_symmetry_multiplicity
 _atom_site_fract_x
 _atom_site_fract_y
 _atom_site_fract_z
 _atom_site_occupancy
  Cd  Cd0  1  0.50205000  0.40197000  0.09126000  1
  Cd  Cd1  1  0.00205000  0.90197000  0.40874000  1
  Cd  Cd2  1  0.69731000  0.48943000  0.02234000  1
  Cd  Cd3  1  0.19731000  0.98943000  0.47766000  1
  Cd  Cd4  1  0.80269000  0.01057000  0.52234000  1
  Cd  Cd5  1  0.30269000  0.51057000  0.97766000  1
  Cd  Cd6  1  0.99795000  0.09803000  0.59126000  1
  Cd  Cd7  1  0.49795000  0.59803000  0.90874000  1
  B  B8  1  0.16220000  0.15890000  0.14690000  1
  B  B9  1  0.66220000  0.65890000  0.35310000  1
  B  B10  1  0.13710000  0.65190000  0.65720000  1
  B  B11  1  0.63710000  0.15190000  0.84280000  1
  B  B12  1  0.36290000  0.84810000  0.15720000  1
  B  B13  1  0.86290000  0.34810000  0.34280000  1
  B  B14  1  0.33780000  0.34110000  0.64690000  1
  B  B15  1  0.83780000  0.84110000  0.85310000  1
  H  H16  1  0.00880000  0.00740000  0.20540000  1
  H  H17  1  0.50880000  0.50740000  0.29460000  1
  H  H18  1  0.73570000  0.70280000  0.11060000  1
  H  H19  1  0.23570000  0.20280000  0.38940000  1
  H  H20  1  0.67470000  0.63730000  0.08320000  1
  H  H21  1  0.17470000  0.13730000  0.41680000  1
  H  H22  1  0.25880000  0.21530000  0.01380000  1
  H  H23  1  0.75880000  0.71530000  0.48620000  1
  H  H24  1  0.91570000  0.86960000  0.10760000  1
  H  H25  1  0.41570000  0.36960000  0.39240000  1
  H  H26  1  0.14420000  0.09400000  0.72260000  1
  H  H27  1  0.64420000  0.59400000  0.77740000  1
  H  H28  1  0.09030000  0.02910000  0.15690000  1
  H  H29  1  0.59030000  0.52910000  0.34310000  1
  H  H30  1  0.35170000  0.29010000  0.52330000  1
  H  H31  1  0.85170000  0.79010000  0.97670000  1
  H  H32  1  0.79700000  0.72320000  0.00650000  1
  H  H33  1  0.29700000  0.22320000  0.49350000  1
  H  H34  1  0.87610000  0.79910000  0.19510000  1
  H  H35  1  0.37610000  0.29910000  0.30490000  1
  H  H36  1  0.87350000  0.79610000  0.59900000  1
  H  H37  1  0.37350000  0.29610000  0.90100000  1
  H  H38  1  0.10780000  0.97930000  0.21270000  1
  H  H39  1  0.60780000  0.47930000  0.28730000  1
  H  H40  1  0.71280000  0.58390000  0.55650000  1
  H  H41  1  0.21280000  0.08390000  0.94350000  1
  H  H42  1  0.20330000  0.05120000  0.67770000  1
  H  H43  1  0.70330000  0.55120000  0.82230000  1
  H  H44  1  0.59650000  0.43530000  0.62810000  1
  H  H45  1  0.09650000  0.93530000  0.87190000  1
  H  H46  1  0.25030000  0.08540000  0.73870000  1
  H  H47  1  0.75030000  0.58540000  0.76130000  1
  H  H48  1  0.11040000  0.94030000  0.62030000  1
  H  H49  1  0.61040000  0.44030000  0.87970000  1
  H  H50  1  0.41460000  0.24280000  0.10570000  1
  H  H51  1  0.91460000  0.74280000  0.39430000  1
  H  H52  1  0.09750000  0.91860000  0.69120000  1
  H  H53  1  0.59750000  0.41860000  0.80880000  1
  H  H54  1  0.56460000  0.35690000  0.22910000  1
  H  H55  1  0.06460000  0.85690000  0.27090000  1
  H  H56  1  0.86050000  0.65050000  0.18150000  1
  H  H57  1  0.36050000  0.15050000  0.31850000  1
  H  H58  1  0.89990000  0.68030000  0.67540000  1
  H  H59  1  0.39990000  0.18030000  0.82460000  1
  H  H60  1  0.55963333  0.33333333  0.68420000  1
  H  H61  1  0.05970000  0.83340000  0.81580000  1
  H  H62  1  0.90090000  0.66500000  0.07850000  1
  H  H63  1  0.40090000  0.16500000  0.42150000  1
  H  H64  1  0.74360000  0.49960000  0.64110000  1
  H  H65  1  0.24360000  0.99960000  0.85890000  1
  H  H66  1  0.40700000  0.14800000  0.17050000  1
  H  H67  1  0.90700000  0.64800000  0.32950000  1
  H  H68  1  0.86330000  0.60260000  0.59030000  1
  H  H69  1  0.36330000  0.10260000  0.90970000  1
  H  H70  1  0.97460000  0.71230000  0.11910000  1
  H  H71  1  0.47460000  0.21230000  0.38090000  1
  H  H72  1  0.19880000  0.92510000  0.66030000  1
  H  H73  1  0.69880000  0.42510000  0.83970000  1
  H  H74  1  0.79130000  0.50300000  0.23010000  1
  H  H75  1  0.29130000  0.00300000  0.26990000  1
  H  H76  1  0.98130000  0.67850000  0.52680000  1
  H  H77  1  0.48130000  0.17850000  0.97320000  1
  H  H78  1  0.28740000  0.98010000  0.19900000  1
  H  H79  1  0.78740000  0.48010000  0.30100000  1
  H  H80  1  0.89230000  0.58100000  0.15610000  1
  H  H81  1  0.39230000  0.08100000  0.34390000  1
  H  H82  1  0.07400000  0.76190000  0.20660000  1
  H  H83  1  0.57400000  0.26190000  0.29340000  1
  H  H84  1  0.56970000  0.20860000  0.01320000  1
  H  H85  1  0.06970000  0.70860000  0.48680000  1
  H  H86  1  0.39990000  0.01890000  0.54440000  1
  H  H87  1  0.89990000  0.51890000  0.95560000  1
  H  H88  1  0.97280000  0.58860000  0.24470000  1
  H  H89  1  0.47280000  0.08860000  0.25530000  1
  H  H90  1  0.85390000  0.46200000  0.71020000  1
  H  H91  1  0.35390000  0.96200000  0.78980000  1
  H  H92  1  0.38490000  0.98940000  0.23480000  1
  H  H93  1  0.88490000  0.48940000  0.26520000  1
  H  H94  1  0.12790000  0.71440000  0.06820000  1
  H  H95  1  0.62790000  0.21440000  0.43180000  1
  H  H96  1  0.25530000  0.84010000  0.52120000  1
  H  H97  1  0.75530000  0.34010000  0.97880000  1
  H  H98  1  0.04970000  0.62760000  0.20040000  1
  H  H99  1  0.54970000  0.12760000  0.29960000  1
  H  H100  1  0.07780000  0.64670000  0.53310000  1
  H  H101  1  0.57780000  0.14670000  0.96690000  1
  H  H102  1  0.66660000  0.23260000  0.14300000  1
  H  H103  1  0.16660000  0.73260000  0.35700000  1
  H  H104  1  0.97160000  0.53300000  0.08140000  1
  H  H105  1  0.47160000  0.03300000  0.41860000  1
  H  H106  1  0.72870000  0.28410000  0.63250000  1
  H  H107  1  0.22870000  0.78410000  0.86750000  1
  H  H108  1  0.73270000  0.27620000  0.09480000  1
  H  H109  1  0.23270000  0.77620000  0.40520000  1
  H  H110  1  0.31700000  0.86010000  0.73360000  1
  H  H111  1  0.81700000  0.36010000  0.76640000  1
  H  H112  1  0.18300000  0.63990000  0.23360000  1
  H  H113  1  0.68300000  0.13990000  0.26640000  1
  H  H114  1  0.76730000  0.22380000  0.59480000  1
  H  H115  1  0.26730000  0.72380000  0.90520000  1
  H  H116  1  0.77130000  0.21590000  0.13250000  1
  H  H117  1  0.27130000  0.71590000  0.36750000  1
  H  H118  1  0.52840000  0.96700000  0.58140000  1
  H  H119  1  0.02840000  0.46700000  0.91860000  1
  H  H120  1  0.83340000  0.26740000  0.64300000  1
  H  H121  1  0.33340000  0.76740000  0.85700000  1
  H  H122  1  0.42220000  0.85330000  0.03310000  1
  H  H123  1  0.92220000  0.35330000  0.46690000  1
  H  H124  1  0.45030000  0.87240000  0.70040000  1
  H  H125  1  0.95030000  0.37240000  0.79960000  1
  H  H126  1  0.24470000  0.65990000  0.02120000  1
  H  H127  1  0.74470000  0.15990000  0.47880000  1
  H  H128  1  0.37210000  0.78560000  0.56820000  1
  H  H129  1  0.87210000  0.28560000  0.93180000  1
  H  H130  1  0.11510000  0.51060000  0.73480000  1
  H  H131  1  0.61510000  0.01060000  0.76520000  1
  H  H132  1  0.64610000  0.03800000  0.21020000  1
  H  H133  1  0.14610000  0.53800000  0.28980000  1
  H  H134  1  0.52720000  0.91140000  0.74470000  1
  H  H135  1  0.02720000  0.41140000  0.75530000  1
  H  H136  1  0.10010000  0.48110000  0.04440000  1
  H  H137  1  0.60010000  0.98110000  0.45560000  1
  H  H138  1  0.93030000  0.29140000  0.51320000  1
  H  H139  1  0.43030000  0.79140000  0.98680000  1
  H  H140  1  0.42600000  0.73810000  0.70660000  1
  H  H141  1  0.92600000  0.23810000  0.79340000  1
  H  H142  1  0.60770000  0.91900000  0.65610000  1
  H  H143  1  0.10770000  0.41900000  0.84390000  1
  H  H144  1  0.21260000  0.51990000  0.69900000  1
  H  H145  1  0.71260000  0.01990000  0.80100000  1
  H  H146  1  0.51870000  0.82150000  0.02680000  1
  H  H147  1  0.01870000  0.32150000  0.47320000  1
  H  H148  1  0.70870000  0.99700000  0.73010000  1
  H  H149  1  0.20870000  0.49700000  0.76990000  1
  H  H150  1  0.30120000  0.57490000  0.16030000  1
  H  H151  1  0.80120000  0.07490000  0.33970000  1
  H  H152  1  0.52540000  0.78770000  0.61910000  1
  H  H153  1  0.02540000  0.28770000  0.88090000  1
  H  H154  1  0.63670000  0.89740000  0.09030000  1
  H  H155  1  0.13670000  0.39740000  0.40970000  1
  H  H156  1  0.09300000  0.35200000  0.67050000  1
  H  H157  1  0.59300000  0.85200000  0.82950000  1
  H  H158  1  0.75640000  0.00040000  0.14110000  1
  H  H159  1  0.25640000  0.50040000  0.35890000  1
  H  H160  1  0.59910000  0.83500000  0.57850000  1
  H  H161  1  0.09910000  0.33500000  0.92150000  1
  H  H162  1  0.94030000  0.16660000  0.18420000  1
  H  H163  1  0.44030000  0.66660000  0.31580000  1
  H  H164  1  0.60010000  0.81970000  0.17540000  1
  H  H165  1  0.10010000  0.31970000  0.32460000  1
  H  H166  1  0.63950000  0.84950000  0.68150000  1
  H  H167  1  0.13950000  0.34950000  0.81850000  1
  H  H168  1  0.93540000  0.14310000  0.72910000  1
  H  H169  1  0.43540000  0.64310000  0.77090000  1
  H  H170  1  0.40250000  0.58140000  0.19120000  1
  H  H171  1  0.90250000  0.08140000  0.30880000  1
  H  H172  1  0.08540000  0.25720000  0.60570000  1
  H  H173  1  0.58540000  0.75720000  0.89430000  1
  H  H174  1  0.38960000  0.55970000  0.12030000  1
  H  H175  1  0.88960000  0.05970000  0.37970000  1
  H  H176  1  0.24970000  0.41460000  0.23870000  1
  H  H177  1  0.74970000  0.91460000  0.26130000  1
  H  H178  1  0.90350000  0.06470000  0.12810000  1
  H  H179  1  0.40350000  0.56470000  0.37190000  1
  H  H180  1  0.29670000  0.44880000  0.17770000  1
  H  H181  1  0.79670000  0.94880000  0.32230000  1
  H  H182  1  0.78720000  0.91610000  0.05650000  1
  H  H183  1  0.28720000  0.41610000  0.44350000  1
  H  H184  1  0.39220000  0.52070000  0.71270000  1
  H  H185  1  0.89220000  0.02070000  0.78730000  1
  H  H186  1  0.62650000  0.70390000  0.09900000  1
  H  H187  1  0.12650000  0.20390000  0.40100000  1
  H  H188  1  0.62390000  0.70090000  0.69510000  1
  H  H189  1  0.12390000  0.20090000  0.80490000  1
  H  H190  1  0.70300000  0.77680000  0.50650000  1
  H  H191  1  0.20300000  0.27680000  0.99350000  1
  H  H192  1  0.14830000  0.20990000  0.02330000  1
  H  H193  1  0.64830000  0.70990000  0.47670000  1
  H  H194  1  0.40970000  0.47090000  0.65690000  1
  H  H195  1  0.90970000  0.97090000  0.84310000  1
  H  H196  1  0.35580000  0.40600000  0.22260000  1
  H  H197  1  0.85580000  0.90600000  0.27740000  1
  H  H198  1  0.58430000  0.63040000  0.60760000  1
  H  H199  1  0.08430000  0.13040000  0.89240000  1
  H  H200  1  0.24120000  0.28470000  0.51380000  1
  H  H201  1  0.74120000  0.78470000  0.98620000  1
  H  H202  1  0.82530000  0.86270000  0.58320000  1
  H  H203  1  0.32530000  0.36270000  0.91680000  1
  H  H204  1  0.76430000  0.79720000  0.61060000  1
  H  H205  1  0.26430000  0.29720000  0.88940000  1
  H  H206  1  0.49120000  0.49260000  0.70540000  1
  H  H207  1  0.99120000  0.99260000  0.79460000  1
  C  C208  1  0.82540000  0.82430000  0.61160000  1
  C  C209  1  0.32540000  0.32430000  0.88840000  1
  C  C210  1  0.65450000  0.64950000  0.17670000  1
  C  C211  1  0.15450000  0.14950000  0.32330000  1
  C  C212  1  0.64680000  0.64010000  0.62160000  1
  C  C213  1  0.14680000  0.14010000  0.87840000  1
  C  C214  1  0.82830000  0.81760000  0.17290000  1
  C  C215  1  0.32830000  0.31760000  0.32710000  1
  C  C216  1  0.82680000  0.81420000  0.73340000  1
  C  C217  1  0.32680000  0.31420000  0.76660000  1
  C  C218  1  0.10990000  0.07870000  0.24010000  1
  C  C219  1  0.60990000  0.57870000  0.25990000  1
  C  C220  1  0.61440000  0.58230000  0.19330000  1
  C  C221  1  0.11440000  0.08230000  0.30670000  1
  C  C222  1  0.29350000  0.25930000  0.52390000  1
  C  C223  1  0.79350000  0.75930000  0.97610000  1
  C  C224  1  0.78750000  0.74520000  0.74470000  1
  C  C225  1  0.28750000  0.24520000  0.75530000  1
  C  C226  1  0.27900000  0.22830000  0.58770000  1
  C  C227  1  0.77900000  0.72830000  0.91230000  1
  C  C228  1  0.27260000  0.22080000  0.69240000  1
  C  C229  1  0.77260000  0.72080000  0.80760000  1
  C  C230  1  0.58030000  0.52440000  0.15030000  1
  C  C231  1  0.08030000  0.02440000  0.34970000  1
  C  C232  1  0.07620000  0.01830000  0.20030000  1
  C  C233  1  0.57620000  0.51830000  0.29970000  1
  C  C234  1  0.76530000  0.69850000  0.69260000  1
  C  C235  1  0.26530000  0.19850000  0.80740000  1
  C  C236  1  0.24160000  0.16060000  0.60280000  1
  C  C237  1  0.74160000  0.66060000  0.89720000  1
  C  C238  1  0.23800000  0.15500000  0.66860000  1
  C  C239  1  0.73800000  0.65500000  0.83140000  1
  C  C240  1  0.72590000  0.61210000  0.59150000  1
  C  C241  1  0.22590000  0.11210000  0.90850000  1
  C  C242  1  0.21780000  0.10370000  0.55670000  1
  C  C243  1  0.71780000  0.60370000  0.94330000  1
  C  C244  1  0.20610000  0.09060000  0.70520000  1
  C  C245  1  0.70610000  0.59060000  0.79480000  1
  C  C246  1  0.83730000  0.66980000  0.66220000  1
  C  C247  1  0.33730000  0.16980000  0.83780000  1
  C  C248  1  0.81580000  0.62380000  0.61030000  1
  C  C249  1  0.31580000  0.12380000  0.88970000  1
  C  C250  1  0.04350000  0.85000000  0.52360000  1
  C  C251  1  0.54350000  0.35000000  0.97640000  1
  C  C252  1  0.44460000  0.24730000  0.14470000  1
  C  C253  1  0.94460000  0.74730000  0.35530000  1
  C  C254  1  0.13220000  0.91210000  0.65320000  1
  C  C255  1  0.63220000  0.41210000  0.84680000  1
  C  C256  1  0.53440000  0.31400000  0.21660000  1
  C  C257  1  0.03440000  0.81400000  0.28340000  1
  C  C258  1  0.64070000  0.42020000  0.65580000  1
  C  C259  1  0.14070000  0.92020000  0.84420000  1
  C  C260  1  0.44150000  0.18930000  0.18290000  1
  C  C261  1  0.94150000  0.68930000  0.31710000  1
  C  C262  1  0.61870000  0.35920000  0.68940000  1
  C  C263  1  0.11870000  0.85920000  0.81060000  1
  C  C264  1  0.07680000  0.81140000  0.57730000  1
  C  C265  1  0.57680000  0.31140000  0.92270000  1
  C  C266  1  0.72890000  0.45880000  0.66360000  1
  C  C267  1  0.22890000  0.95880000  0.83640000  1
  C  C268  1  0.11630000  0.83810000  0.63420000  1
  C  C269  1  0.61630000  0.33810000  0.86580000  1
  C  C270  1  0.03900000  0.75720000  0.24370000  1
  C  C271  1  0.53900000  0.25720000  0.25630000  1
  C  C272  1  0.91460000  0.62870000  0.16650000  1
  C  C273  1  0.41460000  0.12870000  0.33350000  1
  C  C274  1  0.95200000  0.66460000  0.10880000  1
  C  C275  1  0.45200000  0.16460000  0.39120000  1
  C  C276  1  0.49030000  0.19330000  0.23980000  1
  C  C277  1  0.99030000  0.69330000  0.26020000  1
  C  C278  1  0.74190000  0.41610000  0.12840000  1
  C  C279  1  0.24190000  0.91610000  0.37160000  1
  C  C280  1  0.07900000  0.73870000  0.57840000  1
  C  C281  1  0.57900000  0.23870000  0.92160000  1
  C  C282  1  0.31800000  0.97490000  0.23880000  1
  C  C283  1  0.81800000  0.47490000  0.26120000  1
  C  C284  1  0.68470000  0.33660000  0.73090000  1
  C  C285  1  0.18470000  0.83660000  0.76910000  1
  C  C286  1  0.13990000  0.78230000  0.66960000  1
  C  C287  1  0.63990000  0.28230000  0.83040000  1
  C  C288  1  0.98740000  0.62960000  0.21880000  1
  C  C289  1  0.48740000  0.12960000  0.28120000  1
  C  C290  1  0.79490000  0.43620000  0.70500000  1
  C  C291  1  0.29490000  0.93620000  0.79500000  1
  C  C292  1  0.04920000  0.68860000  0.52660000  1
  C  C293  1  0.54920000  0.18860000  0.97340000  1
  C  C294  1  0.76750000  0.37470000  0.18350000  1
  C  C295  1  0.26750000  0.87470000  0.31650000  1
  C  C296  1  0.77290000  0.37520000  0.73860000  1
  C  C297  1  0.27290000  0.87520000  0.76140000  1
  C  C298  1  0.18170000  0.78260000  0.73180000  1
  C  C299  1  0.68170000  0.28260000  0.76820000  1
  C  C300  1  0.80310000  0.40070000  0.24140000  1
  C  C301  1  0.30310000  0.90070000  0.25860000  1
  C  C302  1  0.03430000  0.62990000  0.07860000  1
  C  C303  1  0.53430000  0.12990000  0.42140000  1
  C  C304  1  0.39440000  0.97090000  0.54710000  1
  C  C305  1  0.89440000  0.47090000  0.95290000  1
  C  C306  1  0.30980000  0.86700000  0.53530000  1
  C  C307  1  0.80980000  0.36700000  0.96470000  1
  C  C308  1  0.11860000  0.66680000  0.06180000  1
  C  C309  1  0.61860000  0.16680000  0.43820000  1
  C  C310  1  0.76420000  0.30190000  0.18570000  1
  C  C311  1  0.26420000  0.80190000  0.31430000  1
  C  C312  1  0.02770000  0.56030000  0.07090000  1
  C  C313  1  0.52770000  0.06030000  0.42910000  1
  C  C314  1  0.73070000  0.25220000  0.13440000  1
  C  C315  1  0.23070000  0.75220000  0.36560000  1
  C  C316  1  0.70030000  0.21490000  0.74390000  1
  C  C317  1  0.20030000  0.71490000  0.75610000  1
  C  C318  1  0.79970000  0.28510000  0.24390000  1
  C  C319  1  0.29970000  0.78510000  0.25610000  1
  C  C320  1  0.76930000  0.24780000  0.63440000  1
  C  C321  1  0.26930000  0.74780000  0.86560000  1
  C  C322  1  0.47230000  0.93970000  0.57090000  1
  C  C323  1  0.97230000  0.43970000  0.92910000  1
  C  C324  1  0.73580000  0.19810000  0.68570000  1
  C  C325  1  0.23580000  0.69810000  0.81430000  1
  C  C326  1  0.38140000  0.83320000  0.56180000  1
  C  C327  1  0.88140000  0.33320000  0.93820000  1
  C  C328  1  0.19020000  0.63300000  0.03530000  1
  C  C329  1  0.69020000  0.13300000  0.46470000  1
  C  C330  1  0.10560000  0.52910000  0.04710000  1
  C  C331  1  0.60560000  0.02910000  0.45290000  1
  C  C332  1  0.46570000  0.87010000  0.57860000  1
  C  C333  1  0.96570000  0.37010000  0.92140000  1
  C  C334  1  0.69690000  0.09930000  0.74140000  1
  C  C335  1  0.19690000  0.59930000  0.75860000  1
  C  C336  1  0.31830000  0.71740000  0.23180000  1
  C  C337  1  0.81830000  0.21740000  0.26820000  1
  C  C338  1  0.72710000  0.12480000  0.23860000  1
  C  C339  1  0.22710000  0.62480000  0.26140000  1
  C  C340  1  0.73250000  0.12530000  0.68350000  1
  C  C341  1  0.23250000  0.62530000  0.81650000  1
  C  C342  1  0.45080000  0.81140000  0.02660000  1
  C  C343  1  0.95080000  0.31140000  0.47340000  1
  C  C344  1  0.70510000  0.06380000  0.20500000  1
  C  C345  1  0.20510000  0.56380000  0.29500000  1
  C  C346  1  0.51260000  0.87040000  0.71880000  1
  C  C347  1  0.01260000  0.37040000  0.78120000  1
  C  C348  1  0.36010000  0.71770000  0.16960000  1
  C  C349  1  0.86010000  0.21770000  0.33040000  1
  C  C350  1  0.81530000  0.16340000  0.23090000  1
  C  C351  1  0.31530000  0.66340000  0.26910000  1
  C  C352  1  0.18200000  0.52510000  0.73880000  1
  C  C353  1  0.68200000  0.02510000  0.76120000  1
  C  C354  1  0.42100000  0.76130000  0.07840000  1
  C  C355  1  0.92100000  0.26130000  0.42160000  1
  C  C356  1  0.75810000  0.08390000  0.62840000  1
  C  C357  1  0.25810000  0.58390000  0.87160000  1
  C  C358  1  0.00970000  0.30670000  0.73980000  1
  C  C359  1  0.50970000  0.80670000  0.76020000  1
  C  C360  1  0.54800000  0.83540000  0.60880000  1
  C  C361  1  0.04800000  0.33540000  0.89120000  1
  C  C362  1  0.58540000  0.87130000  0.66650000  1
  C  C363  1  0.08540000  0.37130000  0.83350000  1
  C  C364  1  0.46100000  0.74280000  0.74370000  1
  C  C365  1  0.96100000  0.24280000  0.75630000  1
  C  C366  1  0.38370000  0.66190000  0.13420000  1
  C  C367  1  0.88370000  0.16190000  0.36580000  1
  C  C368  1  0.77110000  0.04120000  0.16360000  1
  C  C369  1  0.27110000  0.54120000  0.33640000  1
  C  C370  1  0.42320000  0.68860000  0.07730000  1
  C  C371  1  0.92320000  0.18860000  0.42270000  1
  C  C372  1  0.88130000  0.14080000  0.18940000  1
  C  C373  1  0.38130000  0.64080000  0.31060000  1
  C  C374  1  0.05850000  0.31070000  0.68290000  1
  C  C375  1  0.55850000  0.81070000  0.81710000  1
  C  C376  1  0.85930000  0.07980000  0.15580000  1
  C  C377  1  0.35930000  0.57980000  0.34420000  1
  C  C378  1  0.96560000  0.18600000  0.71660000  1
  C  C379  1  0.46560000  0.68600000  0.78340000  1
  C  C380  1  0.36780000  0.58790000  0.15320000  1
  C  C381  1  0.86780000  0.08790000  0.34680000  1
  C  C382  1  0.05540000  0.25270000  0.64470000  1
  C  C383  1  0.55540000  0.75270000  0.85530000  1
  C  C384  1  0.45650000  0.65000000  0.02360000  1
  C  C385  1  0.95650000  0.15000000  0.47640000  1
  C  C386  1  0.68420000  0.87620000  0.11030000  1
  C  C387  1  0.18420000  0.37620000  0.38970000  1
  C  C388  1  0.66270000  0.83020000  0.16220000  1
  C  C389  1  0.16270000  0.33020000  0.33780000  1
  C  C390  1  0.29390000  0.40940000  0.20520000  1
  C  C391  1  0.79390000  0.90940000  0.29480000  1
  C  C392  1  0.28220000  0.39630000  0.05670000  1
  C  C393  1  0.78220000  0.89630000  0.44330000  1
  C  C394  1  0.77410000  0.88790000  0.09150000  1
  C  C395  1  0.27410000  0.38790000  0.40850000  1
  C  C396  1  0.26200000  0.34500000  0.16860000  1
  C  C397  1  0.76200000  0.84500000  0.33140000  1
  C  C398  1  0.25840000  0.33940000  0.10280000  1
  C  C399  1  0.75840000  0.83940000  0.39720000  1
  C  C400  1  0.73470000  0.80150000  0.19260000  1
  C  C401  1  0.23470000  0.30150000  0.30740000  1
  C  C402  1  0.42380000  0.48170000  0.70030000  1
  C  C403  1  0.92380000  0.98170000  0.79970000  1
  C  C404  1  0.91970000  0.97560000  0.65030000  1
  C  C405  1  0.41970000  0.47560000  0.84970000  1
  C  C406  1  0.22740000  0.27920000  0.19240000  1
  C  C407  1  0.72740000  0.77920000  0.30760000  1
  C  C408  1  0.22100000  0.27170000  0.08770000  1
  C  C409  1  0.72100000  0.77170000  0.41230000  1
  C  C410  1  0.71250000  0.75480000  0.24470000  1
  C  C411  1  0.21250000  0.25480000  0.25530000  1
  C  C412  1  0.20650000  0.24070000  0.02390000  1
  C  C413  1  0.70650000  0.74070000  0.47610000  1
  C  C414  1  0.88560000  0.91770000  0.69330000  1
  C  C415  1  0.38560000  0.41770000  0.80670000  1
  C  C416  1  0.39010000  0.42130000  0.74010000  1
  C  C417  1  0.89010000  0.92130000  0.75990000  1
  C  C418  1  0.67320000  0.68580000  0.23340000  1
  C  C419  1  0.17320000  0.18580000  0.26660000  1
  C  C420  1  0.67170000  0.68240000  0.67290000  1
  C  C421  1  0.17170000  0.18240000  0.82710000  1
  C  C422  1  0.85320000  0.85990000  0.12160000  1
  C  C423  1  0.35320000  0.35990000  0.37840000  1
  C  C424  1  0.84550000  0.85050000  0.67670000  1
  C  C425  1  0.34550000  0.35050000  0.82330000  1
  C  C426  1  0.67460000  0.67570000  0.11160000  1
  C  C427  1  0.17460000  0.17570000  0.38840000  1
  N  N428  1  0.14740000  0.14050000  0.21680000  1
  N  N429  1  0.64740000  0.64050000  0.28320000  1
  N  N430  1  0.29690000  0.26510000  0.64170000  1
  N  N431  1  0.79690000  0.76510000  0.85830000  1
  N  N432  1  0.48830000  0.30950000  0.16080000  1
  N  N433  1  0.98830000  0.80950000  0.33920000  1
  N  N434  1  0.31410000  0.93560000  0.52860000  1
  N  N435  1  0.81410000  0.43560000  0.97140000  1
  N  N436  1  0.11780000  0.72180000  0.63450000  1
  N  N437  1  0.61780000  0.22180000  0.86550000  1
  N  N438  1  0.32320000  0.84600000  0.22240000  1
  N  N439  1  0.82320000  0.34600000  0.27760000  1
  N  N440  1  0.17680000  0.65400000  0.72240000  1
  N  N441  1  0.67680000  0.15400000  0.77760000  1
  N  N442  1  0.38220000  0.77820000  0.13450000  1
  N  N443  1  0.88220000  0.27820000  0.36550000  1
  N  N444  1  0.18590000  0.56440000  0.02860000  1
  N  N445  1  0.68590000  0.06440000  0.47140000  1
  N  N446  1  0.01170000  0.19050000  0.66080000  1
  N  N447  1  0.51170000  0.69050000  0.83920000  1
  N  N448  1  0.20310000  0.23490000  0.14170000  1
  N  N449  1  0.70310000  0.73490000  0.35830000  1
  N  N450  1  0.35260000  0.35950000  0.71680000  1
  N  N451  1  0.85260000  0.85950000  0.78320000  1
  O  O452  1  0.59220000  0.53000000  0.09123000  1
  O  O453  1  0.09220000  0.03000000  0.40877000  1
  O  O454  1  0.53850000  0.47000000  0.17560000  1
  O  O455  1  0.03850000  0.97000000  0.32440000  1
  O  O456  1  0.14197000  0.06257000  0.56436000  1
  O  O457  1  0.64197000  0.56257000  0.93564000  1
  O  O458  1  0.07109000  0.91389000  0.51636000  1
  O  O459  1  0.57109000  0.41389000  0.98364000  1
  O  O460  1  0.48690000  0.31760000  0.01558000  1
  O  O461  1  0.98690000  0.81760000  0.48442000  1
  O  O462  1  0.27490000  0.09560000  0.51290000  1
  O  O463  1  0.77490000  0.59560000  0.98710000  1
  O  O464  1  0.67590000  0.39040000  0.09225000  1
  O  O465  1  0.17590000  0.89040000  0.40775000  1
  O  O466  1  0.78730000  0.47460000  0.11800000  1
  O  O467  1  0.28730000  0.97460000  0.38200000  1
  O  O468  1  0.71270000  0.02540000  0.61800000  1
  O  O469  1  0.21270000  0.52540000  0.88200000  1
  O  O470  1  0.82410000  0.10960000  0.59225000  1
  O  O471  1  0.32410000  0.60960000  0.90775000  1
  O  O472  1  0.22510000  0.40440000  0.01290000  1
  O  O473  1  0.72510000  0.90440000  0.48710000  1
  O  O474  1  0.01310000  0.18240000  0.51558000  1
  O  O475  1  0.51310000  0.68240000  0.98442000  1
  O  O476  1  0.42891000  0.58611000  0.01636000  1
  O  O477  1  0.92891000  0.08611000  0.48364000  1
  O  O478  1  0.35803000  0.43743000  0.06436000  1
  O  O479  1  0.85803000  0.93743000  0.43564000  1
  O  O480  1  0.96150000  0.03000000  0.67560000  1
  O  O481  1  0.46150000  0.53000000  0.82440000  1
  O  O482  1  0.90780000  0.97000000  0.59123000  1
  O  O483  1  0.40780000  0.47000000  0.90877000  1
  F  F484  1  0.42020000  0.35420000  0.61250000  1
  F  F485  1  0.92020000  0.85420000  0.88750000  1
  F  F486  1  0.22830000  0.11630000  0.11980000  1
  F  F487  1  0.72830000  0.61630000  0.38020000  1
  F  F488  1  0.30800000  0.88050000  0.11520000  1
  F  F489  1  0.80800000  0.38050000  0.38480000  1
  F  F490  1  0.05270000  0.60260000  0.65250000  1
  F  F491  1  0.55270000  0.10260000  0.84750000  1
  F  F492  1  0.44730000  0.89740000  0.15250000  1
  F  F493  1  0.94730000  0.39740000  0.34750000  1
  F  F494  1  0.19200000  0.61950000  0.61520000  1
  F  F495  1  0.69200000  0.11950000  0.88480000  1
  F  F496  1  0.27170000  0.38370000  0.61980000  1
  F  F497  1  0.77170000  0.88370000  0.88020000  1
  F  F498  1  0.07980000  0.14580000  0.11250000  1
  F  F499  1  0.57980000  0.64580000  0.38750000  1
