# generated using pymatgen
data_Gd2H36(C17O4)3
_symmetry_space_group_name_H-M   'P 1'
_cell_length_a   11.49570000
_cell_length_b   13.68040000
_cell_length_c   23.96930000
_cell_angle_alpha   76.32800000
_cell_angle_beta   76.21400000
_cell_angle_gamma   66.91700000
_symmetry_Int_Tables_number   1
_chemical_formula_structural   Gd2H36(C17O4)3
_chemical_formula_sum   'Gd4 H72 C102 O24'
_cell_volume   3324.47560397
_cell_formula_units_Z   2
loop_
 _symmetry_equiv_pos_site_id
 _symmetry_equiv_pos_as_xyz
  1  'x, y, z'
loop_
 _atom_site_type_symbol
 _atom_site_label
 _atom_site_symmetry_multiplicity
 _atom_site_fract_x
 _atom_site_fract_y
 _atom_site_fract_z
 _atom_site_occupancy
  Gd  Gd0  1  0.18404000  0.40190000  0.96173000  1
  Gd  Gd1  1  0.35934000  0.70119000  0.51730000  1
  Gd  Gd2  1  0.64066000  0.29881000  0.48270000  1
  Gd  Gd3  1  0.81596000  0.59810000  0.03827000  1
  H  H4  1  0.00080000  0.98130000  0.56140000  1
  H  H5  1  0.00170000  0.33770000  0.86650000  1
  H  H6  1  0.03780000  0.70920000  0.21190000  1
  H  H7  1  0.06800000  0.06000000  0.80600000  1
  H  H8  1  0.07670000  0.11560000  0.74080000  1
  H  H9  1  0.08960000  0.99430000  0.75660000  1
  H  H10  1  0.09710000  0.85200000  0.63350000  1
  H  H11  1  0.12540000  0.72330000  0.30490000  1
  H  H12  1  0.16250000  0.16800000  0.11430000  1
  H  H13  1  0.17210000  0.72830000  0.73310000  1
  H  H14  1  0.17640000  0.91420000  0.20780000  1
  H  H15  1  0.19000000  0.63630000  0.82730000  1
  H  H16  1  0.21390000  0.13810000  0.84950000  1
  H  H17  1  0.22430000  0.69270000  0.38430000  1
  H  H18  1  0.26450000  0.95400000  0.15410000  1
  H  H19  1  0.27150000  0.93360000  0.84620000  1
  H  H20  1  0.27520000  0.86010000  0.80410000  1
  H  H21  1  0.28030000  0.87170000  0.68970000  1
  H  H22  1  0.30080000  0.32020000  0.29020000  1
  H  H23  1  0.31090000  0.89560000  0.32190000  1
  H  H24  1  0.31420000  0.39890000  0.13900000  1
  H  H25  1  0.32290000  0.88030000  0.20890000  1
  H  H26  1  0.32520000  0.12210000  0.23370000  1
  H  H27  1  0.36050000  0.09290000  0.17090000  1
  H  H28  1  0.39070000  0.27280000  0.23520000  1
  H  H29  1  0.39570000  0.88900000  0.80140000  1
  H  H30  1  0.39910000  0.33220000  0.75730000  1
  H  H31  1  0.41110000  0.00440000  0.22320000  1
  H  H32  1  0.41570000  0.62540000  0.77210000  1
  H  H33  1  0.44990000  0.27300000  0.28770000  1
  H  H34  1  0.45290000  0.24450000  0.67770000  1
  H  H35  1  0.46140000  0.62900000  0.82790000  1
  H  H36  1  0.47320000  0.51860000  0.81430000  1
  H  H37  1  0.48650000  0.41790000  0.33560000  1
  H  H38  1  0.48700000  0.11460000  0.59960000  1
  H  H39  1  0.48960000  0.98660000  0.55090000  1
  H  H40  1  0.51040000  0.01340000  0.44910000  1
  H  H41  1  0.51300000  0.88540000  0.40040000  1
  H  H42  1  0.51350000  0.58210000  0.66440000  1
  H  H43  1  0.52680000  0.48140000  0.18570000  1
  H  H44  1  0.53860000  0.37100000  0.17210000  1
  H  H45  1  0.54710000  0.75550000  0.32230000  1
  H  H46  1  0.55010000  0.72700000  0.71230000  1
  H  H47  1  0.58430000  0.37460000  0.22790000  1
  H  H48  1  0.58890000  0.99560000  0.77680000  1
  H  H49  1  0.60090000  0.66780000  0.24270000  1
  H  H50  1  0.60430000  0.11100000  0.19860000  1
  H  H51  1  0.60930000  0.72720000  0.76480000  1
  H  H52  1  0.63950000  0.90710000  0.82910000  1
  H  H53  1  0.67480000  0.87790000  0.76630000  1
  H  H54  1  0.67710000  0.11970000  0.79110000  1
  H  H55  1  0.68580000  0.60110000  0.86100000  1
  H  H56  1  0.68910000  0.10440000  0.67810000  1
  H  H57  1  0.69920000  0.67980000  0.70980000  1
  H  H58  1  0.71970000  0.12830000  0.31030000  1
  H  H59  1  0.72480000  0.13990000  0.19590000  1
  H  H60  1  0.72850000  0.06640000  0.15380000  1
  H  H61  1  0.73550000  0.04600000  0.84590000  1
  H  H62  1  0.77570000  0.30730000  0.61570000  1
  H  H63  1  0.78610000  0.86190000  0.15050000  1
  H  H64  1  0.81000000  0.36370000  0.17270000  1
  H  H65  1  0.82360000  0.08580000  0.79220000  1
  H  H66  1  0.82790000  0.27170000  0.26690000  1
  H  H67  1  0.83750000  0.83200000  0.88570000  1
  H  H68  1  0.87460000  0.27670000  0.69510000  1
  H  H69  1  0.90290000  0.14800000  0.36650000  1
  H  H70  1  0.91040000  0.00570000  0.24340000  1
  H  H71  1  0.92330000  0.88440000  0.25920000  1
  H  H72  1  0.93200000  0.94000000  0.19400000  1
  H  H73  1  0.96220000  0.29080000  0.78810000  1
  H  H74  1  0.99830000  0.66230000  0.13350000  1
  H  H75  1  0.99920000  0.01870000  0.43860000  1
  C  C76  1  0.00630000  0.16610000  0.24700000  1
  C  C77  1  0.01550000  0.72470000  0.86570000  1
  C  C78  1  0.01640000  0.90330000  0.64250000  1
  C  C79  1  0.02620000  0.66180000  0.92580000  1
  C  C80  1  0.04220000  0.02050000  0.40040000  1
  C  C81  1  0.04620000  0.09620000  0.30100000  1
  C  C82  1  0.07010000  0.61840000  0.15050000  1
  C  C83  1  0.09330000  0.64650000  0.19760000  1
  C  C84  1  0.09550000  0.18880000  0.14470000  1
  C  C85  1  0.10480000  0.74890000  0.76350000  1
  C  C86  1  0.10590000  0.13330000  0.20100000  1
  C  C87  1  0.10850000  0.04960000  0.76680000  1
  C  C88  1  0.11530000  0.69410000  0.82010000  1
  C  C89  1  0.12560000  0.49940000  0.07700000  1
  C  C90  1  0.15130000  0.52700000  0.12870000  1
  C  C91  1  0.16690000  0.94420000  0.38790000  1
  C  C92  1  0.16860000  0.02040000  0.28810000  1
  C  C93  1  0.19680000  0.66170000  0.31140000  1
  C  C94  1  0.19970000  0.58070000  0.22300000  1
  C  C95  1  0.22060000  0.03750000  0.22210000  1
  C  C96  1  0.22910000  0.94520000  0.33100000  1
  C  C97  1  0.23210000  0.86310000  0.43410000  1
  C  C98  1  0.24580000  0.58680000  0.27370000  1
  C  C99  1  0.24880000  0.93710000  0.19580000  1
  C  C100  1  0.25390000  0.01490000  0.76270000  1
  C  C101  1  0.25630000  0.64290000  0.35880000  1
  C  C102  1  0.25880000  0.46100000  0.15390000  1
  C  C103  1  0.26080000  0.16020000  0.81490000  1
  C  C104  1  0.26380000  0.30180000  0.86300000  1
  C  C105  1  0.28320000  0.48720000  0.20050000  1
  C  C106  1  0.29100000  0.10710000  0.76770000  1
  C  C107  1  0.29960000  0.24480000  0.81120000  1
  C  C108  1  0.30370000  0.91510000  0.80780000  1
  C  C109  1  0.31930000  0.99500000  0.70110000  1
  C  C110  1  0.32110000  0.92040000  0.67160000  1
  C  C111  1  0.34050000  0.06700000  0.21150000  1
  C  C112  1  0.35500000  0.49530000  0.28300000  1
  C  C113  1  0.36180000  0.55210000  0.36910000  1
  C  C114  1  0.36340000  0.13880000  0.71660000  1
  C  C115  1  0.37190000  0.27540000  0.75980000  1
  C  C116  1  0.38100000  0.83850000  0.58150000  1
  C  C117  1  0.38190000  0.31190000  0.26530000  1
  C  C118  1  0.38220000  0.06840000  0.67480000  1
  C  C119  1  0.38330000  0.91740000  0.61500000  1
  C  C120  1  0.38890000  0.42430000  0.23740000  1
  C  C121  1  0.40450000  0.22310000  0.71200000  1
  C  C122  1  0.41330000  0.47810000  0.32990000  1
  C  C123  1  0.42030000  0.52910000  0.42200000  1
  C  C124  1  0.44580000  0.06620000  0.61780000  1
  C  C125  1  0.44620000  0.98990000  0.58880000  1
  C  C126  1  0.47810000  0.58820000  0.79750000  1
  C  C127  1  0.52190000  0.41180000  0.20250000  1
  C  C128  1  0.55380000  0.01010000  0.41120000  1
  C  C129  1  0.55420000  0.93380000  0.38220000  1
  C  C130  1  0.57970000  0.47090000  0.57800000  1
  C  C131  1  0.58670000  0.52190000  0.67010000  1
  C  C132  1  0.59550000  0.77690000  0.28800000  1
  C  C133  1  0.61110000  0.57570000  0.76260000  1
  C  C134  1  0.61670000  0.08260000  0.38500000  1
  C  C135  1  0.61780000  0.93160000  0.32520000  1
  C  C136  1  0.61810000  0.68810000  0.73470000  1
  C  C137  1  0.61900000  0.16150000  0.41850000  1
  C  C138  1  0.62810000  0.72460000  0.24020000  1
  C  C139  1  0.63660000  0.86120000  0.28340000  1
  C  C140  1  0.63820000  0.44790000  0.63090000  1
  C  C141  1  0.64500000  0.50470000  0.71700000  1
  C  C142  1  0.65950000  0.93300000  0.78850000  1
  C  C143  1  0.67890000  0.07960000  0.32840000  1
  C  C144  1  0.68070000  0.00500000  0.29890000  1
  C  C145  1  0.69630000  0.08490000  0.19220000  1
  C  C146  1  0.70040000  0.75520000  0.18880000  1
  C  C147  1  0.70900000  0.89290000  0.23230000  1
  C  C148  1  0.71680000  0.51280000  0.79950000  1
  C  C149  1  0.73620000  0.69820000  0.13700000  1
  C  C150  1  0.73920000  0.83980000  0.18510000  1
  C  C151  1  0.74120000  0.53900000  0.84610000  1
  C  C152  1  0.74370000  0.35710000  0.64120000  1
  C  C153  1  0.74610000  0.98510000  0.23730000  1
  C  C154  1  0.75120000  0.06290000  0.80420000  1
  C  C155  1  0.75420000  0.41320000  0.72630000  1
  C  C156  1  0.76790000  0.13690000  0.56590000  1
  C  C157  1  0.77090000  0.05480000  0.66900000  1
  C  C158  1  0.77940000  0.96250000  0.77790000  1
  C  C159  1  0.80030000  0.41930000  0.77700000  1
  C  C160  1  0.80320000  0.33830000  0.68860000  1
  C  C161  1  0.83140000  0.97960000  0.71190000  1
  C  C162  1  0.83310000  0.05580000  0.61210000  1
  C  C163  1  0.84870000  0.47300000  0.87130000  1
  C  C164  1  0.87440000  0.50060000  0.92300000  1
  C  C165  1  0.88470000  0.30590000  0.17990000  1
  C  C166  1  0.89150000  0.95040000  0.23320000  1
  C  C167  1  0.89410000  0.86670000  0.79900000  1
  C  C168  1  0.89520000  0.25110000  0.23650000  1
  C  C169  1  0.90450000  0.81120000  0.85530000  1
  C  C170  1  0.90670000  0.35350000  0.80240000  1
  C  C171  1  0.92990000  0.38160000  0.84950000  1
  C  C172  1  0.95380000  0.90380000  0.69900000  1
  C  C173  1  0.95780000  0.97950000  0.59960000  1
  C  C174  1  0.97380000  0.33820000  0.07420000  1
  C  C175  1  0.98360000  0.09670000  0.35750000  1
  C  C176  1  0.98450000  0.27530000  0.13430000  1
  C  C177  1  0.99370000  0.83390000  0.75300000  1
  O  O178  1  0.01510000  0.53660000  0.06540000  1
  O  O179  1  0.07110000  0.31220000  0.03550000  1
  O  O180  1  0.13090000  0.58640000  0.93340000  1
  O  O181  1  0.17360000  0.85240000  0.48610000  1
  O  O182  1  0.21590000  0.25830000  0.91120000  1
  O  O183  1  0.22060000  0.43810000  0.04720000  1
  O  O184  1  0.27840000  0.38910000  0.85800000  1
  O  O185  1  0.33030000  0.76930000  0.60670000  1
  O  O186  1  0.34670000  0.80460000  0.42153000  1
  O  O187  1  0.35680000  0.58100000  0.46311000  1
  O  O188  1  0.43020000  0.84080000  0.52825000  1
  O  O189  1  0.46890000  0.54270000  0.57593000  1
  O  O190  1  0.53110000  0.45730000  0.42407000  1
  O  O191  1  0.56980000  0.15920000  0.47175000  1
  O  O192  1  0.64320000  0.41900000  0.53689000  1
  O  O193  1  0.65330000  0.19540000  0.57847000  1
  O  O194  1  0.66970000  0.23070000  0.39330000  1
  O  O195  1  0.72160000  0.61090000  0.14200000  1
  O  O196  1  0.77940000  0.56190000  0.95280000  1
  O  O197  1  0.78410000  0.74170000  0.08880000  1
  O  O198  1  0.82640000  0.14760000  0.51390000  1
  O  O199  1  0.86910000  0.41360000  0.06660000  1
  O  O200  1  0.92890000  0.68780000  0.96450000  1
  O  O201  1  0.98490000  0.46340000  0.93460000  1
