# generated using pymatgen
data_Cu4H20C37O20
_symmetry_space_group_name_H-M   'P 1'
_cell_length_a   12.10000000
_cell_length_b   26.16200000
_cell_length_c   26.16200000
_cell_angle_alpha   90.00000000
_cell_angle_beta   90.00000000
_cell_angle_gamma   90.00000000
_symmetry_Int_Tables_number   1
_chemical_formula_structural   Cu4H20C37O20
_chemical_formula_sum   'Cu16 H80 C148 O80'
_cell_volume   8281.84795240
_cell_formula_units_Z   4
loop_
 _symmetry_equiv_pos_site_id
 _symmetry_equiv_pos_as_xyz
  1  'x, y, z'
loop_
 _atom_site_type_symbol
 _atom_site_label
 _atom_site_symmetry_multiplicity
 _atom_site_fract_x
 _atom_site_fract_y
 _atom_site_fract_z
 _atom_site_occupancy
  Cu  Cu0  1  0.01028000  0.70493000  0.75000000  1
  Cu  Cu1  1  0.01028000  0.79507000  0.25000000  1
  Cu  Cu2  1  0.07621000  0.50607000  0.53557000  1
  Cu  Cu3  1  0.07621000  0.50607000  0.96443000  1
  Cu  Cu4  1  0.07621000  0.99393000  0.03557000  1
  Cu  Cu5  1  0.07621000  0.99393000  0.46443000  1
  Cu  Cu6  1  0.14406000  0.22390000  0.25000000  1
  Cu  Cu7  1  0.14406000  0.27610000  0.75000000  1
  Cu  Cu8  1  0.85594000  0.72390000  0.25000000  1
  Cu  Cu9  1  0.85594000  0.77610000  0.75000000  1
  Cu  Cu10  1  0.92379000  0.00607000  0.53557000  1
  Cu  Cu11  1  0.92379000  0.00607000  0.96443000  1
  Cu  Cu12  1  0.92379000  0.49393000  0.03557000  1
  Cu  Cu13  1  0.92379000  0.49393000  0.46443000  1
  Cu  Cu14  1  0.98972000  0.20493000  0.75000000  1
  Cu  Cu15  1  0.98972000  0.29507000  0.25000000  1
  H  H16  1  0.00040000  0.62520000  0.13100000  1
  H  H17  1  0.00040000  0.62520000  0.36900000  1
  H  H18  1  0.00040000  0.87480000  0.63100000  1
  H  H19  1  0.00040000  0.87480000  0.86900000  1
  H  H20  1  0.09790000  0.11150000  0.63120000  1
  H  H21  1  0.09790000  0.11150000  0.86880000  1
  H  H22  1  0.09790000  0.38850000  0.13120000  1
  H  H23  1  0.09790000  0.38850000  0.36880000  1
  H  H24  1  0.21140000  0.74270000  0.13280000  1
  H  H25  1  0.21140000  0.74270000  0.36720000  1
  H  H26  1  0.21140000  0.75730000  0.63280000  1
  H  H27  1  0.21140000  0.75730000  0.86720000  1
  H  H28  1  0.24570000  0.63300000  0.02840000  1
  H  H29  1  0.24570000  0.63300000  0.47160000  1
  H  H30  1  0.24570000  0.86700000  0.52840000  1
  H  H31  1  0.24570000  0.86700000  0.97160000  1
  H  H32  1  0.30060000  0.11280000  0.51090000  1
  H  H33  1  0.30060000  0.11280000  0.98910000  1
  H  H34  1  0.30060000  0.38720000  0.01090000  1
  H  H35  1  0.30060000  0.38720000  0.48910000  1
  H  H36  1  0.33170000  0.22010000  0.61930000  1
  H  H37  1  0.33170000  0.22010000  0.88070000  1
  H  H38  1  0.33170000  0.27990000  0.11930000  1
  H  H39  1  0.33170000  0.27990000  0.38070000  1
  H  H40  1  0.33580000  0.69580000  0.51190000  1
  H  H41  1  0.33580000  0.69580000  0.98810000  1
  H  H42  1  0.33580000  0.80420000  0.01190000  1
  H  H43  1  0.33580000  0.80420000  0.48810000  1
  H  H44  1  0.41590000  0.23970000  0.05220000  1
  H  H45  1  0.41590000  0.23970000  0.44780000  1
  H  H46  1  0.41590000  0.26030000  0.55220000  1
  H  H47  1  0.41590000  0.26030000  0.94780000  1
  H  H48  1  0.43090000  0.67550000  0.02390000  1
  H  H49  1  0.43090000  0.67550000  0.47610000  1
  H  H50  1  0.43090000  0.82450000  0.52390000  1
  H  H51  1  0.43090000  0.82450000  0.97610000  1
  H  H52  1  0.48810000  0.72620000  0.57400000  1
  H  H53  1  0.48810000  0.72620000  0.92600000  1
  H  H54  1  0.48810000  0.77380000  0.07400000  1
  H  H55  1  0.48810000  0.77380000  0.42600000  1
  H  H56  1  0.51190000  0.22620000  0.57400000  1
  H  H57  1  0.51190000  0.22620000  0.92600000  1
  H  H58  1  0.51190000  0.27380000  0.07400000  1
  H  H59  1  0.51190000  0.27380000  0.42600000  1
  H  H60  1  0.56910000  0.17550000  0.02390000  1
  H  H61  1  0.56910000  0.17550000  0.47610000  1
  H  H62  1  0.56910000  0.32450000  0.52390000  1
  H  H63  1  0.56910000  0.32450000  0.97610000  1
  H  H64  1  0.58410000  0.73970000  0.05220000  1
  H  H65  1  0.58410000  0.73970000  0.44780000  1
  H  H66  1  0.58410000  0.76030000  0.55220000  1
  H  H67  1  0.58410000  0.76030000  0.94780000  1
  H  H68  1  0.66420000  0.19580000  0.51190000  1
  H  H69  1  0.66420000  0.19580000  0.98810000  1
  H  H70  1  0.66420000  0.30420000  0.01190000  1
  H  H71  1  0.66420000  0.30420000  0.48810000  1
  H  H72  1  0.66830000  0.72010000  0.61930000  1
  H  H73  1  0.66830000  0.72010000  0.88070000  1
  H  H74  1  0.66830000  0.77990000  0.11930000  1
  H  H75  1  0.66830000  0.77990000  0.38070000  1
  H  H76  1  0.69940000  0.61280000  0.51090000  1
  H  H77  1  0.69940000  0.61280000  0.98910000  1
  H  H78  1  0.69940000  0.88720000  0.01090000  1
  H  H79  1  0.69940000  0.88720000  0.48910000  1
  H  H80  1  0.75430000  0.13300000  0.02840000  1
  H  H81  1  0.75430000  0.13300000  0.47160000  1
  H  H82  1  0.75430000  0.36700000  0.52840000  1
  H  H83  1  0.75430000  0.36700000  0.97160000  1
  H  H84  1  0.78860000  0.24270000  0.13280000  1
  H  H85  1  0.78860000  0.24270000  0.36720000  1
  H  H86  1  0.78860000  0.25730000  0.63280000  1
  H  H87  1  0.78860000  0.25730000  0.86720000  1
  H  H88  1  0.90210000  0.61150000  0.63120000  1
  H  H89  1  0.90210000  0.61150000  0.86880000  1
  H  H90  1  0.90210000  0.88850000  0.13120000  1
  H  H91  1  0.90210000  0.88850000  0.36880000  1
  H  H92  1  0.99960000  0.12520000  0.13100000  1
  H  H93  1  0.99960000  0.12520000  0.36900000  1
  H  H94  1  0.99960000  0.37480000  0.63100000  1
  H  H95  1  0.99960000  0.37480000  0.86900000  1
  C  C96  1  0.03640000  0.71115000  0.18116000  1
  C  C97  1  0.03640000  0.71115000  0.31884000  1
  C  C98  1  0.03640000  0.78885000  0.68116000  1
  C  C99  1  0.03640000  0.78885000  0.81884000  1
  C  C100  1  0.06150000  0.64191000  0.11740000  1
  C  C101  1  0.06150000  0.64191000  0.38260000  1
  C  C102  1  0.06150000  0.85809000  0.61740000  1
  C  C103  1  0.06150000  0.85809000  0.88260000  1
  C  C104  1  0.07830000  0.57434000  0.05009000  1
  C  C105  1  0.07830000  0.57434000  0.44991000  1
  C  C106  1  0.07830000  0.92566000  0.55009000  1
  C  C107  1  0.07830000  0.92566000  0.94991000  1
  C  C108  1  0.09660000  0.68755000  0.13861000  1
  C  C109  1  0.09660000  0.68755000  0.36139000  1
  C  C110  1  0.09660000  0.81245000  0.63861000  1
  C  C111  1  0.09660000  0.81245000  0.86139000  1
  C  C112  1  0.11710000  0.62097000  0.07591000  1
  C  C113  1  0.11710000  0.62097000  0.42409000  1
  C  C114  1  0.11710000  0.87903000  0.57591000  1
  C  C115  1  0.11710000  0.87903000  0.92409000  1
  C  C116  1  0.12280000  0.06280000  0.54360000  1
  C  C117  1  0.12280000  0.06280000  0.95640000  1
  C  C118  1  0.12280000  0.43720000  0.04360000  1
  C  C119  1  0.12280000  0.43720000  0.45640000  1
  C  C120  1  0.15490000  0.12661000  0.61275000  1
  C  C121  1  0.15490000  0.12661000  0.88725000  1
  C  C122  1  0.15490000  0.37339000  0.11275000  1
  C  C123  1  0.15490000  0.37339000  0.38725000  1
  C  C124  1  0.16500000  0.19352000  0.67897000  1
  C  C125  1  0.16500000  0.19352000  0.82103000  1
  C  C126  1  0.16500000  0.30648000  0.17897000  1
  C  C127  1  0.16500000  0.30648000  0.32103000  1
  C  C128  1  0.18710000  0.71236000  0.11815000  1
  C  C129  1  0.18710000  0.71236000  0.38185000  1
  C  C130  1  0.18710000  0.78764000  0.61815000  1
  C  C131  1  0.18710000  0.78764000  0.88185000  1
  C  C132  1  0.18830000  0.10591000  0.56626000  1
  C  C133  1  0.18830000  0.10591000  0.93374000  1
  C  C134  1  0.18830000  0.39409000  0.06626000  1
  C  C135  1  0.18830000  0.39409000  0.43374000  1
  C  C136  1  0.20670000  0.16956000  0.63129000  1
  C  C137  1  0.20670000  0.16956000  0.86871000  1
  C  C138  1  0.20670000  0.33044000  0.13129000  1
  C  C139  1  0.20670000  0.33044000  0.36871000  1
  C  C140  1  0.20750000  0.64684000  0.05600000  1
  C  C141  1  0.20750000  0.64684000  0.44400000  1
  C  C142  1  0.20750000  0.85316000  0.55600000  1
  C  C143  1  0.20750000  0.85316000  0.94400000  1
  C  C144  1  0.24160000  0.69302000  0.07668000  1
  C  C145  1  0.24160000  0.69302000  0.42332000  1
  C  C146  1  0.24160000  0.80698000  0.57668000  1
  C  C147  1  0.24160000  0.80698000  0.92332000  1
  C  C148  1  0.27620000  0.12756000  0.54123000  1
  C  C149  1  0.27620000  0.12756000  0.95877000  1
  C  C150  1  0.27620000  0.37244000  0.04123000  1
  C  C151  1  0.27620000  0.37244000  0.45877000  1
  C  C152  1  0.29580000  0.19178000  0.60577000  1
  C  C153  1  0.29580000  0.19178000  0.89423000  1
  C  C154  1  0.29580000  0.30822000  0.10577000  1
  C  C155  1  0.29580000  0.30822000  0.39423000  1
  C  C156  1  0.32960000  0.17038000  0.55944000  1
  C  C157  1  0.32960000  0.17038000  0.94056000  1
  C  C158  1  0.32960000  0.32962000  0.05944000  1
  C  C159  1  0.32960000  0.32962000  0.44056000  1
  C  C160  1  0.38570000  0.70500000  0.01562000  1
  C  C161  1  0.38570000  0.70500000  0.48438000  1
  C  C162  1  0.38570000  0.79500000  0.51562000  1
  C  C163  1  0.38570000  0.79500000  0.98438000  1
  C  C164  1  0.45810000  0.75000000  0.00000000  1
  C  C165  1  0.45810000  0.75000000  0.50000000  1
  C  C166  1  0.46760000  0.23324000  0.54391000  1
  C  C167  1  0.46760000  0.23324000  0.95609000  1
  C  C168  1  0.46760000  0.26676000  0.04391000  1
  C  C169  1  0.46760000  0.26676000  0.45609000  1
  C  C170  1  0.53240000  0.73324000  0.54391000  1
  C  C171  1  0.53240000  0.73324000  0.95609000  1
  C  C172  1  0.53240000  0.76676000  0.04391000  1
  C  C173  1  0.53240000  0.76676000  0.45609000  1
  C  C174  1  0.54190000  0.25000000  0.00000000  1
  C  C175  1  0.54190000  0.25000000  0.50000000  1
  C  C176  1  0.61430000  0.20500000  0.01562000  1
  C  C177  1  0.61430000  0.20500000  0.48438000  1
  C  C178  1  0.61430000  0.29500000  0.51562000  1
  C  C179  1  0.61430000  0.29500000  0.98438000  1
  C  C180  1  0.67040000  0.67038000  0.55944000  1
  C  C181  1  0.67040000  0.67038000  0.94056000  1
  C  C182  1  0.67040000  0.82962000  0.05944000  1
  C  C183  1  0.67040000  0.82962000  0.44056000  1
  C  C184  1  0.70420000  0.69178000  0.60577000  1
  C  C185  1  0.70420000  0.69178000  0.89423000  1
  C  C186  1  0.70420000  0.80822000  0.10577000  1
  C  C187  1  0.70420000  0.80822000  0.39423000  1
  C  C188  1  0.72380000  0.62756000  0.54123000  1
  C  C189  1  0.72380000  0.62756000  0.95877000  1
  C  C190  1  0.72380000  0.87244000  0.04123000  1
  C  C191  1  0.72380000  0.87244000  0.45877000  1
  C  C192  1  0.75840000  0.19302000  0.07668000  1
  C  C193  1  0.75840000  0.19302000  0.42332000  1
  C  C194  1  0.75840000  0.30698000  0.57668000  1
  C  C195  1  0.75840000  0.30698000  0.92332000  1
  C  C196  1  0.79250000  0.14684000  0.05600000  1
  C  C197  1  0.79250000  0.14684000  0.44400000  1
  C  C198  1  0.79250000  0.35316000  0.55600000  1
  C  C199  1  0.79250000  0.35316000  0.94400000  1
  C  C200  1  0.79330000  0.66956000  0.63129000  1
  C  C201  1  0.79330000  0.66956000  0.86871000  1
  C  C202  1  0.79330000  0.83044000  0.13129000  1
  C  C203  1  0.79330000  0.83044000  0.36871000  1
  C  C204  1  0.81170000  0.60591000  0.56626000  1
  C  C205  1  0.81170000  0.60591000  0.93374000  1
  C  C206  1  0.81170000  0.89409000  0.06626000  1
  C  C207  1  0.81170000  0.89409000  0.43374000  1
  C  C208  1  0.81290000  0.21236000  0.11815000  1
  C  C209  1  0.81290000  0.21236000  0.38185000  1
  C  C210  1  0.81290000  0.28764000  0.61815000  1
  C  C211  1  0.81290000  0.28764000  0.88185000  1
  C  C212  1  0.83500000  0.69352000  0.67897000  1
  C  C213  1  0.83500000  0.69352000  0.82103000  1
  C  C214  1  0.83500000  0.80648000  0.17897000  1
  C  C215  1  0.83500000  0.80648000  0.32103000  1
  C  C216  1  0.84510000  0.62661000  0.61275000  1
  C  C217  1  0.84510000  0.62661000  0.88725000  1
  C  C218  1  0.84510000  0.87339000  0.11275000  1
  C  C219  1  0.84510000  0.87339000  0.38725000  1
  C  C220  1  0.87720000  0.56280000  0.54360000  1
  C  C221  1  0.87720000  0.56280000  0.95640000  1
  C  C222  1  0.87720000  0.93720000  0.04360000  1
  C  C223  1  0.87720000  0.93720000  0.45640000  1
  C  C224  1  0.88290000  0.12097000  0.07591000  1
  C  C225  1  0.88290000  0.12097000  0.42409000  1
  C  C226  1  0.88290000  0.37903000  0.57591000  1
  C  C227  1  0.88290000  0.37903000  0.92409000  1
  C  C228  1  0.90340000  0.18755000  0.13861000  1
  C  C229  1  0.90340000  0.18755000  0.36139000  1
  C  C230  1  0.90340000  0.31245000  0.63861000  1
  C  C231  1  0.90340000  0.31245000  0.86139000  1
  C  C232  1  0.92170000  0.07434000  0.05009000  1
  C  C233  1  0.92170000  0.07434000  0.44991000  1
  C  C234  1  0.92170000  0.42566000  0.55009000  1
  C  C235  1  0.92170000  0.42566000  0.94991000  1
  C  C236  1  0.93850000  0.14191000  0.11740000  1
  C  C237  1  0.93850000  0.14191000  0.38260000  1
  C  C238  1  0.93850000  0.35809000  0.61740000  1
  C  C239  1  0.93850000  0.35809000  0.88260000  1
  C  C240  1  0.96360000  0.21115000  0.18116000  1
  C  C241  1  0.96360000  0.21115000  0.31884000  1
  C  C242  1  0.96360000  0.28885000  0.68116000  1
  C  C243  1  0.96360000  0.28885000  0.81884000  1
  O  O244  1  0.00531000  0.05189000  0.06948000  1
  O  O245  1  0.00531000  0.05189000  0.43052000  1
  O  O246  1  0.00531000  0.44811000  0.56948000  1
  O  O247  1  0.00531000  0.44811000  0.93052000  1
  O  O248  1  0.03340000  0.05268000  0.56433000  1
  O  O249  1  0.03340000  0.05268000  0.93567000  1
  O  O250  1  0.03340000  0.44732000  0.06433000  1
  O  O251  1  0.03340000  0.44732000  0.43567000  1
  O  O252  1  0.05168000  0.19130000  0.19733000  1
  O  O253  1  0.05168000  0.19130000  0.30267000  1
  O  O254  1  0.05168000  0.30870000  0.69733000  1
  O  O255  1  0.05168000  0.30870000  0.80267000  1
  O  O256  1  0.07670000  0.74748000  0.69821000  1
  O  O257  1  0.07670000  0.74748000  0.80179000  1
  O  O258  1  0.07670000  0.75252000  0.19821000  1
  O  O259  1  0.07670000  0.75252000  0.30179000  1
  O  O260  1  0.07820000  0.17383000  0.69792000  1
  O  O261  1  0.07820000  0.17383000  0.80208000  1
  O  O262  1  0.07820000  0.32617000  0.19792000  1
  O  O263  1  0.07820000  0.32617000  0.30208000  1
  O  O264  1  0.12511000  0.56110000  0.00994000  1
  O  O265  1  0.12511000  0.56110000  0.49006000  1
  O  O266  1  0.12511000  0.93890000  0.50994000  1
  O  O267  1  0.12511000  0.93890000  0.99006000  1
  O  O268  1  0.16248000  0.04284000  0.50378000  1
  O  O269  1  0.16248000  0.04284000  0.99622000  1
  O  O270  1  0.16248000  0.45716000  0.00378000  1
  O  O271  1  0.16248000  0.45716000  0.49622000  1
  O  O272  1  0.21004000  0.23363000  0.69590000  1
  O  O273  1  0.21004000  0.23363000  0.80410000  1
  O  O274  1  0.21004000  0.26637000  0.19590000  1
  O  O275  1  0.21004000  0.26637000  0.30410000  1
  O  O276  1  0.32535000  0.72128000  0.05925000  1
  O  O277  1  0.32535000  0.72128000  0.44075000  1
  O  O278  1  0.32535000  0.77872000  0.55925000  1
  O  O279  1  0.32535000  0.77872000  0.94075000  1
  O  O280  1  0.41002000  0.18948000  0.52963000  1
  O  O281  1  0.41002000  0.18948000  0.97037000  1
  O  O282  1  0.41002000  0.31052000  0.02963000  1
  O  O283  1  0.41002000  0.31052000  0.47037000  1
  O  O284  1  0.58998000  0.68948000  0.52963000  1
  O  O285  1  0.58998000  0.68948000  0.97037000  1
  O  O286  1  0.58998000  0.81052000  0.02963000  1
  O  O287  1  0.58998000  0.81052000  0.47037000  1
  O  O288  1  0.67465000  0.22128000  0.05925000  1
  O  O289  1  0.67465000  0.22128000  0.44075000  1
  O  O290  1  0.67465000  0.27872000  0.55925000  1
  O  O291  1  0.67465000  0.27872000  0.94075000  1
  O  O292  1  0.78996000  0.73363000  0.69590000  1
  O  O293  1  0.78996000  0.73363000  0.80410000  1
  O  O294  1  0.78996000  0.76637000  0.19590000  1
  O  O295  1  0.78996000  0.76637000  0.30410000  1
  O  O296  1  0.83752000  0.54284000  0.50378000  1
  O  O297  1  0.83752000  0.54284000  0.99622000  1
  O  O298  1  0.83752000  0.95716000  0.00378000  1
  O  O299  1  0.83752000  0.95716000  0.49622000  1
  O  O300  1  0.87489000  0.06110000  0.00994000  1
  O  O301  1  0.87489000  0.06110000  0.49006000  1
  O  O302  1  0.87489000  0.43890000  0.50994000  1
  O  O303  1  0.87489000  0.43890000  0.99006000  1
  O  O304  1  0.92180000  0.67383000  0.69792000  1
  O  O305  1  0.92180000  0.67383000  0.80208000  1
  O  O306  1  0.92180000  0.82617000  0.19792000  1
  O  O307  1  0.92180000  0.82617000  0.30208000  1
  O  O308  1  0.92330000  0.24748000  0.69821000  1
  O  O309  1  0.92330000  0.24748000  0.80179000  1
  O  O310  1  0.92330000  0.25252000  0.19821000  1
  O  O311  1  0.92330000  0.25252000  0.30179000  1
  O  O312  1  0.94832000  0.69130000  0.19733000  1
  O  O313  1  0.94832000  0.69130000  0.30267000  1
  O  O314  1  0.94832000  0.80870000  0.69733000  1
  O  O315  1  0.94832000  0.80870000  0.80267000  1
  O  O316  1  0.96660000  0.55268000  0.56433000  1
  O  O317  1  0.96660000  0.55268000  0.93567000  1
  O  O318  1  0.96660000  0.94732000  0.06433000  1
  O  O319  1  0.96660000  0.94732000  0.43567000  1
  O  O320  1  0.99469000  0.55189000  0.06948000  1
  O  O321  1  0.99469000  0.55189000  0.43052000  1
  O  O322  1  0.99469000  0.94811000  0.56948000  1
  O  O323  1  0.99469000  0.94811000  0.93052000  1
