# generated using pymatgen
data_MgH8C13NO5
_symmetry_space_group_name_H-M   'P 1'
_cell_length_a   12.47796126
_cell_length_b   12.47796126
_cell_length_c   12.95600000
_cell_angle_alpha   64.53927109
_cell_angle_beta   64.53927109
_cell_angle_gamma   89.94480332
_symmetry_Int_Tables_number   1
_chemical_formula_structural   MgH8C13NO5
_chemical_formula_sum   'Mg4 H32 C52 N4 O20'
_cell_volume   1602.07736974
_cell_formula_units_Z   4
loop_
 _symmetry_equiv_pos_site_id
 _symmetry_equiv_pos_as_xyz
  1  'x, y, z'
loop_
 _atom_site_type_symbol
 _atom_site_label
 _atom_site_symmetry_multiplicity
 _atom_site_fract_x
 _atom_site_fract_y
 _atom_site_fract_z
 _atom_site_occupancy
  C  C0  1  0.10780000  0.89400000  0.49150000  1
  C  C1  1  0.89400000  0.10780000  0.99150000  1
  C  C2  1  0.04820000  0.98120000  0.51770000  1
  C  C3  1  0.98120000  0.04820000  0.01770000  1
  C  C4  1  0.19760000  0.86040000  0.52320000  1
  C  C5  1  0.86040000  0.19760000  0.02320000  1
  C  C6  1  0.08840000  0.03280000  0.57330000  1
  C  C7  1  0.03280000  0.08840000  0.07330000  1
  C  C8  1  0.50180000  0.67520000  0.95550000  1
  C  C9  1  0.67520000  0.50180000  0.45550000  1
  C  C10  1  0.18050000  0.99850000  0.60280000  1
  C  C11  1  0.99850000  0.18050000  0.10280000  1
  C  C12  1  0.56930000  0.61010000  0.01340000  1
  C  C13  1  0.61010000  0.56930000  0.51340000  1
  C  C14  1  0.48850000  0.82690000  0.75960000  1
  C  C15  1  0.82690000  0.48850000  0.25960000  1
  C  C16  1  0.55540000  0.76500000  0.50590000  1
  C  C17  1  0.76500000  0.55540000  0.00590000  1
  C  C18  1  0.56100000  0.76700000  0.82630000  1
  C  C19  1  0.76700000  0.56100000  0.32630000  1
  C  C20  1  0.63420000  0.69520000  0.44340000  1
  C  C21  1  0.69520000  0.63420000  0.94340000  1
  C  C22  1  0.68680000  0.79220000  0.75900000  1
  C  C23  1  0.79220000  0.68680000  0.25900000  1
  C  C24  1  0.72650000  0.75330000  0.31630000  1
  C  C25  1  0.75330000  0.72650000  0.81630000  1
  C  C26  1  0.27350000  0.24670000  0.68370000  1
  C  C27  1  0.24670000  0.27350000  0.18370000  1
  C  C28  1  0.31320000  0.20780000  0.24100000  1
  C  C29  1  0.20780000  0.31320000  0.74100000  1
  C  C30  1  0.36580000  0.30480000  0.55660000  1
  C  C31  1  0.30480000  0.36580000  0.05660000  1
  C  C32  1  0.43900000  0.23300000  0.17370000  1
  C  C33  1  0.23300000  0.43900000  0.67370000  1
  C  C34  1  0.44460000  0.23500000  0.49410000  1
  C  C35  1  0.23500000  0.44460000  0.99410000  1
  C  C36  1  0.51150000  0.17310000  0.24040000  1
  C  C37  1  0.17310000  0.51150000  0.74040000  1
  C  C38  1  0.43070000  0.38990000  0.98660000  1
  C  C39  1  0.38990000  0.43070000  0.48660000  1
  C  C40  1  0.81950000  0.00150000  0.39720000  1
  C  C41  1  0.00150000  0.81950000  0.89720000  1
  C  C42  1  0.49820000  0.32480000  0.04450000  1
  C  C43  1  0.32480000  0.49820000  0.54450000  1
  C  C44  1  0.91160000  0.96720000  0.42670000  1
  C  C45  1  0.96720000  0.91160000  0.92670000  1
  C  C46  1  0.80240000  0.13960000  0.47680000  1
  C  C47  1  0.13960000  0.80240000  0.97680000  1
  C  C48  1  0.95180000  0.01880000  0.48230000  1
  C  C49  1  0.01880000  0.95180000  0.98230000  1
  C  C50  1  0.89220000  0.10600000  0.50850000  1
  C  C51  1  0.10600000  0.89220000  0.00850000  1
  H  H52  1  0.23200000  0.79400000  0.51100000  1
  H  H53  1  0.79400000  0.23200000  0.01100000  1
  H  H54  1  0.52200000  0.52600000  0.11100000  1
  H  H55  1  0.52600000  0.52200000  0.61100000  1
  H  H56  1  0.40100000  0.65500000  0.00100000  1
  H  H57  1  0.65500000  0.40100000  0.50100000  1
  H  H58  1  0.14900000  0.91700000  0.04400000  1
  H  H59  1  0.91700000  0.14900000  0.54400000  1
  H  H60  1  0.06800000  0.04400000  0.10600000  1
  H  H61  1  0.04400000  0.06800000  0.60600000  1
  H  H62  1  0.19900000  0.02900000  0.63900000  1
  H  H63  1  0.02900000  0.19900000  0.13900000  1
  H  H64  1  0.25400000  0.15600000  0.73800000  1
  H  H65  1  0.15600000  0.25400000  0.23800000  1
  H  H66  1  0.26700000  0.15300000  0.32600000  1
  H  H67  1  0.15300000  0.26700000  0.82600000  1
  H  H68  1  0.73300000  0.84700000  0.67400000  1
  H  H69  1  0.84700000  0.73300000  0.17400000  1
  H  H70  1  0.74600000  0.84400000  0.26200000  1
  H  H71  1  0.84400000  0.74600000  0.76200000  1
  H  H72  1  0.80100000  0.97100000  0.36100000  1
  H  H73  1  0.97100000  0.80100000  0.86100000  1
  H  H74  1  0.93200000  0.95600000  0.89400000  1
  H  H75  1  0.95600000  0.93200000  0.39400000  1
  H  H76  1  0.85100000  0.08300000  0.95600000  1
  H  H77  1  0.08300000  0.85100000  0.45600000  1
  H  H78  1  0.59900000  0.34500000  0.99900000  1
  H  H79  1  0.34500000  0.59900000  0.49900000  1
  H  H80  1  0.47800000  0.47400000  0.88900000  1
  H  H81  1  0.47400000  0.47800000  0.38900000  1
  H  H82  1  0.76800000  0.20600000  0.48900000  1
  H  H83  1  0.20600000  0.76800000  0.98900000  1
  Mg  Mg84  1  0.30427000  0.69573000  0.75000000  1
  Mg  Mg85  1  0.69573000  0.30427000  0.25000000  1
  Mg  Mg86  1  0.50000000  1.00000000  0.50000000  1
  Mg  Mg87  1  1.00000000  0.50000000  0.00000000  1
  N  N88  1  0.23304000  0.91196000  0.57840000  1
  N  N89  1  0.91196000  0.23304000  0.07840000  1
  N  N90  1  0.76696000  0.08804000  0.42160000  1
  N  N91  1  0.08804000  0.76696000  0.92160000  1
  O  O92  1  0.37631000  0.77849000  0.81790000  1
  O  O93  1  0.77849000  0.37631000  0.31790000  1
  O  O94  1  0.47190000  0.70230000  0.62080000  1
  O  O95  1  0.70230000  0.47190000  0.12080000  1
  O  O96  1  0.31975000  0.87765000  0.61100000  1
  O  O97  1  0.87765000  0.31975000  0.11100000  1
  O  O98  1  0.57695000  0.87865000  0.43660000  1
  O  O99  1  0.87865000  0.57695000  0.93660000  1
  O  O100  1  0.54413000  0.91987000  0.64930000  1
  O  O101  1  0.91987000  0.54413000  0.14930000  1
  O  O102  1  0.45587000  0.08013000  0.35070000  1
  O  O103  1  0.08013000  0.45587000  0.85070000  1
  O  O104  1  0.42305000  0.12135000  0.56340000  1
  O  O105  1  0.12135000  0.42305000  0.06340000  1
  O  O106  1  0.68025000  0.12235000  0.38900000  1
  O  O107  1  0.12235000  0.68025000  0.88900000  1
  O  O108  1  0.52810000  0.29770000  0.37920000  1
  O  O109  1  0.29770000  0.52810000  0.87920000  1
  O  O110  1  0.62369000  0.22151000  0.18210000  1
  O  O111  1  0.22151000  0.62369000  0.68210000  1
