# generated using pymatgen
data_GdH2C7(NO3)2
_symmetry_space_group_name_H-M   'P 1'
_cell_length_a   7.95500000
_cell_length_b   9.69300000
_cell_length_c   15.86900000
_cell_angle_alpha   90.00000000
_cell_angle_beta   90.00000000
_cell_angle_gamma   96.35600000
_symmetry_Int_Tables_number   1
_chemical_formula_structural   GdH2C7(NO3)2
_chemical_formula_sum   'Gd4 H8 C28 N8 O24'
_cell_volume   1216.10257915
_cell_formula_units_Z   4
loop_
 _symmetry_equiv_pos_site_id
 _symmetry_equiv_pos_as_xyz
  1  'x, y, z'
loop_
 _atom_site_type_symbol
 _atom_site_label
 _atom_site_symmetry_multiplicity
 _atom_site_fract_x
 _atom_site_fract_y
 _atom_site_fract_z
 _atom_site_occupancy
  Gd  Gd0  1  0.07855000  0.86611000  0.67308000  1
  Gd  Gd1  1  0.42145000  0.63389000  0.17308000  1
  Gd  Gd2  1  0.57855000  0.36611000  0.82692000  1
  Gd  Gd3  1  0.92145000  0.13389000  0.32692000  1
  H  H4  1  0.03140000  0.31504000  0.61209000  1
  H  H5  1  0.11737000  0.84707000  0.24853000  1
  H  H6  1  0.38263000  0.65293000  0.74853000  1
  H  H7  1  0.46860000  0.18496000  0.11209000  1
  H  H8  1  0.53140000  0.81504000  0.88791000  1
  H  H9  1  0.61737000  0.34707000  0.25147000  1
  H  H10  1  0.88263000  0.15293000  0.75147000  1
  H  H11  1  0.96860000  0.68496000  0.38791000  1
  C  C12  1  0.05700000  0.42360000  0.41852000  1
  C  C13  1  0.08610000  0.52550000  0.63183000  1
  C  C14  1  0.09010000  0.99070000  0.48451000  1
  C  C15  1  0.10390000  0.38480000  0.64113000  1
  C  C16  1  0.19020000  0.91870000  0.22010000  1
  C  C17  1  0.23040000  0.35220000  0.69396000  1
  C  C18  1  0.24380000  0.29580000  0.21600000  1
  C  C19  1  0.25620000  0.20420000  0.71600000  1
  C  C20  1  0.26960000  0.14780000  0.19396000  1
  C  C21  1  0.30980000  0.58130000  0.72010000  1
  C  C22  1  0.39610000  0.11520000  0.14113000  1
  C  C23  1  0.40990000  0.50930000  0.98451000  1
  C  C24  1  0.41390000  0.97450000  0.13183000  1
  C  C25  1  0.44300000  0.07640000  0.91852000  1
  C  C26  1  0.55700000  0.92360000  0.08148000  1
  C  C27  1  0.58610000  0.02550000  0.86817000  1
  C  C28  1  0.59010000  0.49070000  0.01549000  1
  C  C29  1  0.60390000  0.88480000  0.85887000  1
  C  C30  1  0.69020000  0.41870000  0.27990000  1
  C  C31  1  0.73040000  0.85220000  0.80604000  1
  C  C32  1  0.74380000  0.79580000  0.28400000  1
  C  C33  1  0.75620000  0.70420000  0.78400000  1
  C  C34  1  0.76960000  0.64780000  0.30604000  1
  C  C35  1  0.80980000  0.08130000  0.77990000  1
  C  C36  1  0.89610000  0.61520000  0.35887000  1
  C  C37  1  0.90990000  0.00930000  0.51549000  1
  C  C38  1  0.91390000  0.47450000  0.36817000  1
  C  C39  1  0.94300000  0.57640000  0.58148000  1
  N  N40  1  0.16390000  0.05000000  0.23310000  1
  N  N41  1  0.18840000  0.62300000  0.67150000  1
  N  N42  1  0.31160000  0.87700000  0.17150000  1
  N  N43  1  0.33610000  0.45000000  0.73310000  1
  N  N44  1  0.66390000  0.55000000  0.26690000  1
  N  N45  1  0.68840000  0.12300000  0.82850000  1
  N  N46  1  0.81160000  0.37700000  0.32850000  1
  N  N47  1  0.83610000  0.95000000  0.76690000  1
  O  O48  1  0.04830000  0.29420000  0.42928000  1
  O  O49  1  0.11920000  0.31300000  0.26100000  1
  O  O50  1  0.12510000  0.02360000  0.40982000  1
  O  O51  1  0.14910000  0.11050000  0.68917000  1
  O  O52  1  0.17190000  0.51160000  0.44286000  1
  O  O53  1  0.18800000  0.94350000  0.53583000  1
  O  O54  1  0.31200000  0.55650000  0.03583000  1
  O  O55  1  0.32810000  0.98840000  0.94286000  1
  O  O56  1  0.35090000  0.38950000  0.18917000  1
  O  O57  1  0.37490000  0.47640000  0.90982000  1
  O  O58  1  0.38080000  0.18700000  0.76100000  1
  O  O59  1  0.45170000  0.20580000  0.92928000  1
  O  O60  1  0.54830000  0.79420000  0.07072000  1
  O  O61  1  0.61920000  0.81300000  0.23900000  1
  O  O62  1  0.62510000  0.52360000  0.09018000  1
  O  O63  1  0.64910000  0.61050000  0.81083000  1
  O  O64  1  0.67190000  0.01160000  0.05714000  1
  O  O65  1  0.68800000  0.44350000  0.96417000  1
  O  O66  1  0.81200000  0.05650000  0.46417000  1
  O  O67  1  0.82810000  0.48840000  0.55714000  1
  O  O68  1  0.85090000  0.88950000  0.31083000  1
  O  O69  1  0.87490000  0.97640000  0.59018000  1
  O  O70  1  0.88080000  0.68700000  0.73900000  1
  O  O71  1  0.95170000  0.70580000  0.57072000  1
