# generated using pymatgen
data_Cd3H32C56(SO2)8
_symmetry_space_group_name_H-M   'P 1'
_cell_length_a   12.23600000
_cell_length_b   12.46700000
_cell_length_c   27.17900000
_cell_angle_alpha   90.00000000
_cell_angle_beta   90.00000000
_cell_angle_gamma   109.75400000
_symmetry_Int_Tables_number   1
_chemical_formula_structural   Cd3H32C56(SO2)8
_chemical_formula_sum   'Cd6 H64 C112 S16 O32'
_cell_volume   3902.06828914
_cell_formula_units_Z   2
loop_
 _symmetry_equiv_pos_site_id
 _symmetry_equiv_pos_as_xyz
  1  'x, y, z'
loop_
 _atom_site_type_symbol
 _atom_site_label
 _atom_site_symmetry_multiplicity
 _atom_site_fract_x
 _atom_site_fract_y
 _atom_site_fract_z
 _atom_site_occupancy
  Cd  Cd0  1  0.00000000  0.00000000  0.00000000  1
  Cd  Cd1  1  0.90407000  0.09917000  0.10873000  1
  Cd  Cd2  1  0.59593000  0.40083000  0.60873000  1
  Cd  Cd3  1  0.50000000  0.50000000  0.50000000  1
  Cd  Cd4  1  0.40407000  0.59917000  0.39127000  1
  Cd  Cd5  1  0.09593000  0.90083000  0.89127000  1
  H  H6  1  0.99340000  0.51640000  0.90950000  1
  H  H7  1  0.98480000  0.42490000  0.60000000  1
  H  H8  1  0.96270000  0.80250000  0.30830000  1
  H  H9  1  0.96250000  0.93990000  0.45380000  1
  H  H10  1  0.96150000  0.85830000  0.60850000  1
  H  H11  1  0.96140000  0.60010000  0.03570000  1
  H  H12  1  0.95800000  0.72110000  0.74120000  1
  H  H13  1  0.93780000  0.17130000  0.51700000  1
  H  H14  1  0.91750000  0.28930000  0.66180000  1
  H  H15  1  0.91720000  0.97140000  0.36170000  1
  H  H16  1  0.90130000  0.70020000  0.65870000  1
  H  H17  1  0.84280000  0.15520000  0.42690000  1
  H  H18  1  0.83090000  0.53580000  0.43000000  1
  H  H19  1  0.82210000  0.75530000  0.02100000  1
  H  H20  1  0.80320000  0.48940000  0.89020000  1
  H  H21  1  0.76810000  0.89910000  0.47280000  1
  H  H22  1  0.73190000  0.60090000  0.97280000  1
  H  H23  1  0.69680000  0.01060000  0.39020000  1
  H  H24  1  0.67790000  0.74470000  0.52100000  1
  H  H25  1  0.66910000  0.96420000  0.93000000  1
  H  H26  1  0.65720000  0.34480000  0.92690000  1
  H  H27  1  0.59870000  0.79980000  0.15870000  1
  H  H28  1  0.58280000  0.52860000  0.86170000  1
  H  H29  1  0.58250000  0.21070000  0.16180000  1
  H  H30  1  0.56220000  0.32870000  0.01700000  1
  H  H31  1  0.54200000  0.77890000  0.24120000  1
  H  H32  1  0.53860000  0.89990000  0.53570000  1
  H  H33  1  0.53850000  0.64170000  0.10850000  1
  H  H34  1  0.53750000  0.56010000  0.95380000  1
  H  H35  1  0.53730000  0.69750000  0.80830000  1
  H  H36  1  0.51520000  0.07510000  0.10000000  1
  H  H37  1  0.50660000  0.98360000  0.40950000  1
  H  H38  1  0.49340000  0.01640000  0.59050000  1
  H  H39  1  0.48480000  0.92490000  0.90000000  1
  H  H40  1  0.46270000  0.30250000  0.19170000  1
  H  H41  1  0.46250000  0.43990000  0.04620000  1
  H  H42  1  0.46150000  0.35830000  0.89150000  1
  H  H43  1  0.46140000  0.10010000  0.46430000  1
  H  H44  1  0.45800000  0.22110000  0.75880000  1
  H  H45  1  0.43780000  0.67130000  0.98300000  1
  H  H46  1  0.41750000  0.78930000  0.83820000  1
  H  H47  1  0.41720000  0.47140000  0.13830000  1
  H  H48  1  0.40130000  0.20020000  0.84130000  1
  H  H49  1  0.34280000  0.65520000  0.07310000  1
  H  H50  1  0.33090000  0.03580000  0.07000000  1
  H  H51  1  0.32210000  0.25530000  0.47900000  1
  H  H52  1  0.30320000  0.98940000  0.60980000  1
  H  H53  1  0.26810000  0.39910000  0.02720000  1
  H  H54  1  0.23190000  0.10090000  0.52720000  1
  H  H55  1  0.19680000  0.51060000  0.10980000  1
  H  H56  1  0.17790000  0.24470000  0.97900000  1
  H  H57  1  0.16910000  0.46420000  0.57000000  1
  H  H58  1  0.15720000  0.84480000  0.57310000  1
  H  H59  1  0.09870000  0.29980000  0.34130000  1
  H  H60  1  0.08280000  0.02860000  0.63830000  1
  H  H61  1  0.08250000  0.71070000  0.33820000  1
  H  H62  1  0.06220000  0.82870000  0.48300000  1
  H  H63  1  0.04200000  0.27890000  0.25880000  1
  H  H64  1  0.03860000  0.39990000  0.96430000  1
  H  H65  1  0.03850000  0.14170000  0.39150000  1
  H  H66  1  0.03750000  0.06010000  0.54620000  1
  H  H67  1  0.03730000  0.19750000  0.69170000  1
  H  H68  1  0.01520000  0.57510000  0.40000000  1
  H  H69  1  0.00660000  0.48360000  0.09050000  1
  C  C70  1  0.99220000  0.30620000  0.64930000  1
  C  C71  1  0.98510000  0.86380000  0.64120000  1
  C  C72  1  0.98420000  0.81130000  0.49110000  1
  C  C73  1  0.98360000  0.78390000  0.72040000  1
  C  C74  1  0.96770000  0.61310000  0.38740000  1
  C  C75  1  0.96120000  0.38840000  0.95700000  1
  C  C76  1  0.94820000  0.77050000  0.67080000  1
  C  C77  1  0.94560000  0.11390000  0.26050000  1
  C  C78  1  0.94300000  0.03370000  0.34060000  1
  C  C79  1  0.93590000  0.74850000  0.33300000  1
  C  C80  1  0.93420000  0.45760000  0.92430000  1
  C  C81  1  0.92910000  0.71690000  0.52110000  1
  C  C82  1  0.92470000  0.87750000  0.47360000  1
  C  C83  1  0.91750000  0.10380000  0.20640000  1
  C  C84  1  0.90740000  0.02020000  0.29150000  1
  C  C85  1  0.90650000  0.22490000  0.01620000  1
  C  C86  1  0.87410000  0.30030000  0.97980000  1
  C  C87  1  0.85630000  0.58970000  0.40510000  1
  C  C88  1  0.83760000  0.88880000  0.90960000  1
  C  C89  1  0.82170000  0.72530000  0.35140000  1
  C  C90  1  0.82110000  0.44180000  0.91280000  1
  C  C91  1  0.81350000  0.69430000  0.53310000  1
  C  C92  1  0.80890000  0.85380000  0.48480000  1
  C  C93  1  0.78060000  0.64170000  0.38790000  1
  C  C94  1  0.76590000  0.14470000  0.43490000  1
  C  C95  1  0.75790000  0.28250000  0.96910000  1
  C  C96  1  0.75640000  0.76220000  0.51380000  1
  C  C97  1  0.75480000  0.90760000  0.06320000  1
  C  C98  1  0.74520000  0.59240000  0.56320000  1
  C  C99  1  0.74360000  0.73780000  0.01380000  1
  C  C100  1  0.74210000  0.21750000  0.46910000  1
  C  C101  1  0.73410000  0.35530000  0.93490000  1
  C  C102  1  0.71940000  0.85830000  0.88790000  1
  C  C103  1  0.69110000  0.64620000  0.98480000  1
  C  C104  1  0.68650000  0.80570000  0.03310000  1
  C  C105  1  0.67890000  0.05820000  0.41280000  1
  C  C106  1  0.67830000  0.77470000  0.85140000  1
  C  C107  1  0.66240000  0.61120000  0.40960000  1
  C  C108  1  0.64370000  0.91030000  0.90510000  1
  C  C109  1  0.62590000  0.19970000  0.47980000  1
  C  C110  1  0.59350000  0.27510000  0.51620000  1
  C  C111  1  0.59260000  0.47980000  0.79150000  1
  C  C112  1  0.58250000  0.39620000  0.70640000  1
  C  C113  1  0.57530000  0.62250000  0.97360000  1
  C  C114  1  0.57090000  0.78310000  0.02110000  1
  C  C115  1  0.56580000  0.04240000  0.42430000  1
  C  C116  1  0.56410000  0.75150000  0.83300000  1
  C  C117  1  0.55700000  0.46630000  0.84060000  1
  C  C118  1  0.55440000  0.38610000  0.76050000  1
  C  C119  1  0.55180000  0.72950000  0.17080000  1
  C  C120  1  0.53880000  0.11160000  0.45700000  1
  C  C121  1  0.53230000  0.88690000  0.88740000  1
  C  C122  1  0.51640000  0.71610000  0.22040000  1
  C  C123  1  0.51580000  0.68870000  0.99110000  1
  C  C124  1  0.51490000  0.63620000  0.14120000  1
  C  C125  1  0.50780000  0.19380000  0.14930000  1
  C  C126  1  0.49220000  0.80620000  0.85070000  1
  C  C127  1  0.48510000  0.36380000  0.85880000  1
  C  C128  1  0.48420000  0.31130000  0.00890000  1
  C  C129  1  0.48360000  0.28390000  0.77960000  1
  C  C130  1  0.46770000  0.11310000  0.11260000  1
  C  C131  1  0.46120000  0.88840000  0.54300000  1
  C  C132  1  0.44820000  0.27050000  0.82920000  1
  C  C133  1  0.44560000  0.61390000  0.23950000  1
  C  C134  1  0.44300000  0.53370000  0.15940000  1
  C  C135  1  0.43590000  0.24850000  0.16700000  1
  C  C136  1  0.43420000  0.95760000  0.57570000  1
  C  C137  1  0.42910000  0.21690000  0.97890000  1
  C  C138  1  0.42470000  0.37750000  0.02640000  1
  C  C139  1  0.41750000  0.60380000  0.29360000  1
  C  C140  1  0.40740000  0.52020000  0.20850000  1
  C  C141  1  0.40650000  0.72490000  0.48380000  1
  C  C142  1  0.37410000  0.80030000  0.52020000  1
  C  C143  1  0.35630000  0.08970000  0.09490000  1
  C  C144  1  0.33760000  0.38880000  0.59040000  1
  C  C145  1  0.32170000  0.22530000  0.14860000  1
  C  C146  1  0.32110000  0.94180000  0.58720000  1
  C  C147  1  0.31350000  0.19430000  0.96690000  1
  C  C148  1  0.30890000  0.35380000  0.01520000  1
  C  C149  1  0.28060000  0.14170000  0.11210000  1
  C  C150  1  0.26590000  0.64470000  0.06510000  1
  C  C151  1  0.25790000  0.78250000  0.53090000  1
  C  C152  1  0.25640000  0.26220000  0.98620000  1
  C  C153  1  0.25480000  0.40760000  0.43680000  1
  C  C154  1  0.24520000  0.09240000  0.93680000  1
  C  C155  1  0.24360000  0.23780000  0.48620000  1
  C  C156  1  0.24210000  0.71750000  0.03090000  1
  C  C157  1  0.23410000  0.85530000  0.56510000  1
  C  C158  1  0.21940000  0.35830000  0.61210000  1
  C  C159  1  0.19110000  0.14620000  0.51520000  1
  C  C160  1  0.18650000  0.30570000  0.46690000  1
  C  C161  1  0.17890000  0.55820000  0.08720000  1
  C  C162  1  0.17830000  0.27470000  0.64860000  1
  C  C163  1  0.16240000  0.11120000  0.09040000  1
  C  C164  1  0.14370000  0.41030000  0.59490000  1
  C  C165  1  0.12590000  0.69970000  0.02020000  1
  C  C166  1  0.09350000  0.77510000  0.98380000  1
  C  C167  1  0.09260000  0.97980000  0.70850000  1
  C  C168  1  0.08250000  0.89620000  0.79360000  1
  C  C169  1  0.07530000  0.12250000  0.52640000  1
  C  C170  1  0.07090000  0.28310000  0.47890000  1
  C  C171  1  0.06580000  0.54240000  0.07570000  1
  C  C172  1  0.06410000  0.25150000  0.66700000  1
  C  C173  1  0.05700000  0.96630000  0.65940000  1
  C  C174  1  0.05440000  0.88610000  0.73950000  1
  C  C175  1  0.05180000  0.22950000  0.32920000  1
  C  C176  1  0.03880000  0.61160000  0.04300000  1
  C  C177  1  0.03230000  0.38690000  0.61260000  1
  C  C178  1  0.01640000  0.21610000  0.27960000  1
  C  C179  1  0.01580000  0.18870000  0.50890000  1
  C  C180  1  0.01490000  0.13620000  0.35880000  1
  C  C181  1  0.00780000  0.69380000  0.35070000  1
  S  S182  1  0.99330000  0.37010000  0.45564000  1
  S  S183  1  0.84860000  0.33300000  0.49845000  1
  S  S184  1  0.81500000  0.88650000  0.26829000  1
  S  S185  1  0.77160000  0.70300000  0.82799000  1
  S  S186  1  0.72840000  0.79700000  0.32799000  1
  S  S187  1  0.68500000  0.61350000  0.76829000  1
  S  S188  1  0.65140000  0.16700000  0.99845000  1
  S  S189  1  0.50670000  0.12990000  0.95564000  1
  S  S190  1  0.49330000  0.87010000  0.04436000  1
  S  S191  1  0.34860000  0.83300000  0.00155000  1
  S  S192  1  0.31500000  0.38650000  0.23171000  1
  S  S193  1  0.27160000  0.20300000  0.67201000  1
  S  S194  1  0.22840000  0.29700000  0.17201000  1
  S  S195  1  0.18500000  0.11350000  0.73171000  1
  S  S196  1  0.15140000  0.66700000  0.50155000  1
  S  S197  1  0.00670000  0.62990000  0.54436000  1
  O  O198  1  0.97470000  0.17650000  0.00290000  1
  O  O199  1  0.91110000  0.01430000  0.18560000  1
  O  O200  1  0.91050000  0.18950000  0.18440000  1
  O  O201  1  0.90230000  0.83900000  0.89220000  1
  O  O202  1  0.86530000  0.94080000  0.06090000  1
  O  O203  1  0.86390000  0.96380000  0.94310000  1
  O  O204  1  0.86320000  0.21760000  0.05840000  1
  O  O205  1  0.79680000  0.54400000  0.58960000  1
  O  O206  1  0.70320000  0.95600000  0.08960000  1
  O  O207  1  0.63680000  0.28240000  0.55840000  1
  O  O208  1  0.63610000  0.53620000  0.44310000  1
  O  O209  1  0.63470000  0.55920000  0.56090000  1
  O  O210  1  0.59770000  0.66100000  0.39220000  1
  O  O211  1  0.58950000  0.31050000  0.68440000  1
  O  O212  1  0.58890000  0.48570000  0.68560000  1
  O  O213  1  0.52530000  0.32350000  0.50290000  1
  O  O214  1  0.47470000  0.67650000  0.49710000  1
  O  O215  1  0.41110000  0.51430000  0.31440000  1
  O  O216  1  0.41050000  0.68950000  0.31560000  1
  O  O217  1  0.40230000  0.33900000  0.60780000  1
  O  O218  1  0.36530000  0.44080000  0.43910000  1
  O  O219  1  0.36390000  0.46380000  0.55690000  1
  O  O220  1  0.36320000  0.71760000  0.44160000  1
  O  O221  1  0.29680000  0.04400000  0.91040000  1
  O  O222  1  0.20320000  0.45600000  0.41040000  1
  O  O223  1  0.13680000  0.78240000  0.94160000  1
  O  O224  1  0.13610000  0.03620000  0.05690000  1
  O  O225  1  0.13470000  0.05920000  0.93910000  1
  O  O226  1  0.09770000  0.16100000  0.10780000  1
  O  O227  1  0.08950000  0.81050000  0.81560000  1
  O  O228  1  0.08890000  0.98570000  0.81440000  1
  O  O229  1  0.02530000  0.82350000  0.99710000  1
