# generated using pymatgen
data_Dy2H6(C6O5)3
_symmetry_space_group_name_H-M   'P 1'
_cell_length_a   9.07880000
_cell_length_b   10.21794722
_cell_length_c   19.64640000
_cell_angle_alpha   96.32903023
_cell_angle_beta   90.00000000
_cell_angle_gamma   116.37584557
_symmetry_Int_Tables_number   1
_chemical_formula_structural   Dy2H6(C6O5)3
_chemical_formula_sum   'Dy4 H12 C36 O30'
_cell_volume   1620.39655825
_cell_formula_units_Z   2
loop_
 _symmetry_equiv_pos_site_id
 _symmetry_equiv_pos_as_xyz
  1  'x, y, z'
loop_
 _atom_site_type_symbol
 _atom_site_label
 _atom_site_symmetry_multiplicity
 _atom_site_fract_x
 _atom_site_fract_y
 _atom_site_fract_z
 _atom_site_occupancy
  C  C0  1  0.83021000  0.99462000  0.21319000  1
  C  C1  1  0.16441000  0.99462000  0.71319000  1
  C  C2  1  0.97029000  0.99078000  0.19277000  1
  C  C3  1  0.02049000  0.99078000  0.69277000  1
  C  C4  1  0.94523000  0.97346000  0.62590000  1
  C  C5  1  0.02823000  0.97346000  0.12590000  1
  C  C6  1  0.44734000  0.81888000  0.05314000  1
  C  C7  1  0.37154000  0.81888000  0.55314000  1
  C  C8  1  0.78481000  0.71542000  0.96656000  1
  C  C9  1  0.93061000  0.71542000  0.46656000  1
  C  C10  1  0.44534000  0.67868000  0.06824000  1
  C  C11  1  0.23334000  0.67868000  0.56824000  1
  C  C12  1  0.55827000  0.64534000  0.09733000  1
  C  C13  1  0.08707000  0.64534000  0.59733000  1
  C  C14  1  0.66056000  0.56212000  0.94110000  1
  C  C15  1  0.90156000  0.56212000  0.44110000  1
  C  C16  1  0.51023000  0.50886000  0.90730000  1
  C  C17  1  0.99863000  0.50886000  0.40730000  1
  C  C18  1  0.48977000  0.49114000  0.09270000  1
  C  C19  1  0.00137000  0.49114000  0.59270000  1
  C  C20  1  0.33944000  0.43788000  0.05890000  1
  C  C21  1  0.09844000  0.43788000  0.55890000  1
  C  C22  1  0.44173000  0.35466000  0.90267000  1
  C  C23  1  0.91293000  0.35466000  0.40267000  1
  C  C24  1  0.55466000  0.32132000  0.93176000  1
  C  C25  1  0.76666000  0.32132000  0.43176000  1
  C  C26  1  0.21519000  0.28458000  0.03344000  1
  C  C27  1  0.06939000  0.28458000  0.53344000  1
  C  C28  1  0.55266000  0.18112000  0.94686000  1
  C  C29  1  0.62846000  0.18112000  0.44686000  1
  C  C30  1  0.05477000  0.02654000  0.37410000  1
  C  C31  1  0.97177000  0.02654000  0.87410000  1
  C  C32  1  0.02971000  0.00922000  0.80723000  1
  C  C33  1  0.97951000  0.00922000  0.30723000  1
  C  C34  1  0.16979000  0.00538000  0.78681000  1
  C  C35  1  0.83559000  0.00538000  0.28681000  1
  Dy  Dy36  1  0.75930000  0.94308000  0.49780000  1
  Dy  Dy37  1  0.18378000  0.94308000  0.99780000  1
  Dy  Dy38  1  0.24070000  0.05692000  0.50220000  1
  Dy  Dy39  1  0.81622000  0.05692000  0.00220000  1
  H  H40  1  0.74600000  0.99100000  0.18490000  1
  H  H41  1  0.24500000  0.99100000  0.68490000  1
  H  H42  1  0.66170000  0.71220000  0.11670000  1
  H  H43  1  0.05050000  0.71220000  0.61670000  1
  H  H44  1  0.46260000  0.56380000  0.89060000  1
  H  H45  1  0.10120000  0.56380000  0.39060000  1
  H  H46  1  0.53740000  0.43620000  0.10940000  1
  H  H47  1  0.89880000  0.43620000  0.60940000  1
  H  H48  1  0.33830000  0.28780000  0.88330000  1
  H  H49  1  0.94950000  0.28780000  0.38330000  1
  H  H50  1  0.25400000  0.00900000  0.81510000  1
  H  H51  1  0.75500000  0.00900000  0.31510000  1
  O  O52  1  0.93440000  0.00000000  0.75000000  1
  O  O53  1  0.06560000  0.00000000  0.25000000  1
  O  O54  1  0.95211000  0.98642000  0.07480000  1
  O  O55  1  0.03431000  0.98642000  0.57480000  1
  O  O56  1  0.79607000  0.94494000  0.61941000  1
  O  O57  1  0.14887000  0.94494000  0.11941000  1
  O  O58  1  0.58475000  0.93150000  0.06116000  1
  O  O59  1  0.34675000  0.93150000  0.56116000  1
  O  O60  1  0.50049000  0.81318000  0.53386000  1
  O  O61  1  0.31269000  0.81318000  0.03386000  1
  O  O62  1  0.73647000  0.81314000  0.95942000  1
  O  O63  1  0.07667000  0.81314000  0.45942000  1
  O  O64  1  0.81378000  0.73496000  0.49047000  1
  O  O65  1  0.92118000  0.73496000  0.99047000  1
  O  O66  1  0.30530000  0.55000000  0.04454000  1
  O  O67  1  0.24470000  0.55000000  0.54454000  1
  O  O68  1  0.69470000  0.45000000  0.95546000  1
  O  O69  1  0.75530000  0.45000000  0.45546000  1
  O  O70  1  0.18622000  0.26504000  0.50953000  1
  O  O71  1  0.07882000  0.26504000  0.00953000  1
  O  O72  1  0.26353000  0.18686000  0.04058000  1
  O  O73  1  0.92333000  0.18686000  0.54058000  1
  O  O74  1  0.49951000  0.18682000  0.46614000  1
  O  O75  1  0.68731000  0.18682000  0.96614000  1
  O  O76  1  0.41525000  0.06850000  0.93884000  1
  O  O77  1  0.65325000  0.06850000  0.43884000  1
  O  O78  1  0.20393000  0.05506000  0.38059000  1
  O  O79  1  0.85113000  0.05506000  0.88059000  1
  O  O80  1  0.04789000  0.01358000  0.92520000  1
  O  O81  1  0.96569000  0.01358000  0.42520000  1
