# generated using pymatgen
data_ScH6(CO)4
_symmetry_space_group_name_H-M   'P 1'
_cell_length_a   8.15840000
_cell_length_b   8.15840000
_cell_length_c   12.13990000
_cell_angle_alpha   90.00000000
_cell_angle_beta   90.00000000
_cell_angle_gamma   120.00000000
_symmetry_Int_Tables_number   1
_chemical_formula_structural   ScH6(CO)4
_chemical_formula_sum   'Sc3 H18 C12 O12'
_cell_volume   699.77066139
_cell_formula_units_Z   3
loop_
 _symmetry_equiv_pos_site_id
 _symmetry_equiv_pos_as_xyz
  1  'x, y, z'
loop_
 _atom_site_type_symbol
 _atom_site_label
 _atom_site_symmetry_multiplicity
 _atom_site_fract_x
 _atom_site_fract_y
 _atom_site_fract_z
 _atom_site_occupancy
  Sc  Sc0  1  0.00000000  0.41648000  0.66666667  1
  Sc  Sc1  1  0.58352000  0.58352000  0.33333333  1
  Sc  Sc2  1  0.41648000  0.00000000  0.00000000  1
  H  H3  1  0.94380000  0.58980000  0.07357000  1
  H  H4  1  0.86070000  0.38920000  0.01347000  1
  H  H5  1  0.80270000  0.53920000  0.97127000  1
  H  H6  1  0.73650000  0.19730000  0.30460000  1
  H  H7  1  0.64600000  0.05620000  0.40690000  1
  H  H8  1  0.61080000  0.47150000  0.68013000  1
  H  H9  1  0.58980000  0.94380000  0.59310000  1
  H  H10  1  0.53920000  0.80270000  0.69540000  1
  H  H11  1  0.52850000  0.13930000  0.34680000  1
  H  H12  1  0.47150000  0.61080000  0.98653000  1
  H  H13  1  0.46080000  0.26350000  0.63793000  1
  H  H14  1  0.41020000  0.35400000  0.74023000  1
  H  H15  1  0.38920000  0.86070000  0.65320000  1
  H  H16  1  0.35400000  0.41020000  0.92643000  1
  H  H17  1  0.26350000  0.46080000  0.02873000  1
  H  H18  1  0.19730000  0.73650000  0.36207000  1
  H  H19  1  0.13930000  0.52850000  0.31987000  1
  H  H20  1  0.05620000  0.64600000  0.25977000  1
  C  C21  1  0.83290000  0.48800000  0.03627000  1
  C  C22  1  0.73790000  0.33260000  0.44692000  1
  C  C23  1  0.66740000  0.40530000  0.11359000  1
  C  C24  1  0.65510000  0.16710000  0.36960000  1
  C  C25  1  0.59470000  0.26210000  0.78025000  1
  C  C26  1  0.51200000  0.34490000  0.70293000  1
  C  C27  1  0.48800000  0.83290000  0.63040000  1
  C  C28  1  0.40530000  0.66740000  0.55308000  1
  C  C29  1  0.34490000  0.51200000  0.96373000  1
  C  C30  1  0.33260000  0.73790000  0.21975000  1
  C  C31  1  0.26210000  0.59470000  0.88641000  1
  C  C32  1  0.16710000  0.65510000  0.29707000  1
  O  O33  1  0.83790000  0.33210000  0.52536000  1
  O  O34  1  0.76150000  0.29340000  0.76482000  1
  O  O35  1  0.70660000  0.46810000  0.43149000  1
  O  O36  1  0.66790000  0.50580000  0.19203000  1
  O  O37  1  0.53190000  0.23850000  0.09816000  1
  O  O38  1  0.50580000  0.66790000  0.47464000  1
  O  O39  1  0.49420000  0.16210000  0.85869000  1
  O  O40  1  0.46810000  0.70660000  0.23518000  1
  O  O41  1  0.33210000  0.83790000  0.14131000  1
  O  O42  1  0.29340000  0.76150000  0.90184000  1
  O  O43  1  0.23850000  0.53190000  0.56851000  1
  O  O44  1  0.16210000  0.49420000  0.80797000  1
