# generated using pymatgen
data_Zn4H20C37O20
_symmetry_space_group_name_H-M   'P 1'
_cell_length_a   12.38300000
_cell_length_b   26.27100000
_cell_length_c   26.27800000
_cell_angle_alpha   90.00000000
_cell_angle_beta   90.00000000
_cell_angle_gamma   90.00000000
_symmetry_Int_Tables_number   1
_chemical_formula_structural   Zn4H20C37O20
_chemical_formula_sum   'Zn16 H80 C148 O80'
_cell_volume   8548.59585245
_cell_formula_units_Z   4
loop_
 _symmetry_equiv_pos_site_id
 _symmetry_equiv_pos_as_xyz
  1  'x, y, z'
loop_
 _atom_site_type_symbol
 _atom_site_label
 _atom_site_symmetry_multiplicity
 _atom_site_fract_x
 _atom_site_fract_y
 _atom_site_fract_z
 _atom_site_occupancy
  Zn  Zn0  1  0.02119000  0.19919000  0.25000000  1
  Zn  Zn1  1  0.02119000  0.30081000  0.75000000  1
  Zn  Zn2  1  0.08257000  0.00568000  0.04084000  1
  Zn  Zn3  1  0.08257000  0.00568000  0.45916000  1
  Zn  Zn4  1  0.08257000  0.49432000  0.54084000  1
  Zn  Zn5  1  0.08257000  0.49432000  0.95916000  1
  Zn  Zn6  1  0.14665000  0.71893000  0.75000000  1
  Zn  Zn7  1  0.14665000  0.78107000  0.25000000  1
  Zn  Zn8  1  0.85335000  0.21893000  0.75000000  1
  Zn  Zn9  1  0.85335000  0.28107000  0.25000000  1
  Zn  Zn10  1  0.91743000  0.50568000  0.04084000  1
  Zn  Zn11  1  0.91743000  0.50568000  0.45916000  1
  Zn  Zn12  1  0.91743000  0.99432000  0.54084000  1
  Zn  Zn13  1  0.91743000  0.99432000  0.95916000  1
  Zn  Zn14  1  0.97881000  0.69919000  0.25000000  1
  Zn  Zn15  1  0.97881000  0.80081000  0.75000000  1
  H  H16  1  0.01160000  0.12550000  0.63020000  1
  H  H17  1  0.01160000  0.12550000  0.86980000  1
  H  H18  1  0.01160000  0.37450000  0.13020000  1
  H  H19  1  0.01160000  0.37450000  0.36980000  1
  H  H20  1  0.09580000  0.61560000  0.12680000  1
  H  H21  1  0.09580000  0.61560000  0.37320000  1
  H  H22  1  0.09580000  0.88440000  0.62680000  1
  H  H23  1  0.09580000  0.88440000  0.87320000  1
  H  H24  1  0.21500000  0.24290000  0.63260000  1
  H  H25  1  0.21500000  0.24290000  0.86740000  1
  H  H26  1  0.21500000  0.25710000  0.13260000  1
  H  H27  1  0.21500000  0.25710000  0.36740000  1
  H  H28  1  0.25070000  0.13250000  0.52760000  1
  H  H29  1  0.25070000  0.13250000  0.97240000  1
  H  H30  1  0.25070000  0.36750000  0.02760000  1
  H  H31  1  0.25070000  0.36750000  0.47240000  1
  H  H32  1  0.29720000  0.61510000  0.00800000  1
  H  H33  1  0.29720000  0.61510000  0.49200000  1
  H  H34  1  0.29720000  0.88490000  0.50800000  1
  H  H35  1  0.29720000  0.88490000  0.99200000  1
  H  H36  1  0.33090000  0.72050000  0.11830000  1
  H  H37  1  0.33090000  0.72050000  0.38170000  1
  H  H38  1  0.33090000  0.77950000  0.61830000  1
  H  H39  1  0.33090000  0.77950000  0.88170000  1
  H  H40  1  0.34210000  0.19690000  0.01130000  1
  H  H41  1  0.34210000  0.19690000  0.48870000  1
  H  H42  1  0.34210000  0.30310000  0.51130000  1
  H  H43  1  0.34210000  0.30310000  0.98870000  1
  H  H44  1  0.41660000  0.73930000  0.55400000  1
  H  H45  1  0.41660000  0.73930000  0.94600000  1
  H  H46  1  0.41660000  0.76070000  0.05400000  1
  H  H47  1  0.41660000  0.76070000  0.44600000  1
  H  H48  1  0.43450000  0.17660000  0.52440000  1
  H  H49  1  0.43450000  0.17660000  0.97560000  1
  H  H50  1  0.43450000  0.32340000  0.02440000  1
  H  H51  1  0.43450000  0.32340000  0.47560000  1
  H  H52  1  0.48910000  0.22600000  0.07450000  1
  H  H53  1  0.48910000  0.22600000  0.42550000  1
  H  H54  1  0.48910000  0.27400000  0.57450000  1
  H  H55  1  0.48910000  0.27400000  0.92550000  1
  H  H56  1  0.51090000  0.72600000  0.07450000  1
  H  H57  1  0.51090000  0.72600000  0.42550000  1
  H  H58  1  0.51090000  0.77400000  0.57450000  1
  H  H59  1  0.51090000  0.77400000  0.92550000  1
  H  H60  1  0.56550000  0.67660000  0.52440000  1
  H  H61  1  0.56550000  0.67660000  0.97560000  1
  H  H62  1  0.56550000  0.82340000  0.02440000  1
  H  H63  1  0.56550000  0.82340000  0.47560000  1
  H  H64  1  0.58340000  0.23930000  0.55400000  1
  H  H65  1  0.58340000  0.23930000  0.94600000  1
  H  H66  1  0.58340000  0.26070000  0.05400000  1
  H  H67  1  0.58340000  0.26070000  0.44600000  1
  H  H68  1  0.65790000  0.69690000  0.01130000  1
  H  H69  1  0.65790000  0.69690000  0.48870000  1
  H  H70  1  0.65790000  0.80310000  0.51130000  1
  H  H71  1  0.65790000  0.80310000  0.98870000  1
  H  H72  1  0.66910000  0.22050000  0.11830000  1
  H  H73  1  0.66910000  0.22050000  0.38170000  1
  H  H74  1  0.66910000  0.27950000  0.61830000  1
  H  H75  1  0.66910000  0.27950000  0.88170000  1
  H  H76  1  0.70280000  0.11510000  0.00800000  1
  H  H77  1  0.70280000  0.11510000  0.49200000  1
  H  H78  1  0.70280000  0.38490000  0.50800000  1
  H  H79  1  0.70280000  0.38490000  0.99200000  1
  H  H80  1  0.74930000  0.63250000  0.52760000  1
  H  H81  1  0.74930000  0.63250000  0.97240000  1
  H  H82  1  0.74930000  0.86750000  0.02760000  1
  H  H83  1  0.74930000  0.86750000  0.47240000  1
  H  H84  1  0.78500000  0.74290000  0.63260000  1
  H  H85  1  0.78500000  0.74290000  0.86740000  1
  H  H86  1  0.78500000  0.75710000  0.13260000  1
  H  H87  1  0.78500000  0.75710000  0.36740000  1
  H  H88  1  0.90420000  0.11560000  0.12680000  1
  H  H89  1  0.90420000  0.11560000  0.37320000  1
  H  H90  1  0.90420000  0.38440000  0.62680000  1
  H  H91  1  0.90420000  0.38440000  0.87320000  1
  H  H92  1  0.98840000  0.62550000  0.63020000  1
  H  H93  1  0.98840000  0.62550000  0.86980000  1
  H  H94  1  0.98840000  0.87450000  0.13020000  1
  H  H95  1  0.98840000  0.87450000  0.36980000  1
  C  C96  1  0.04380000  0.21340000  0.68019000  1
  C  C97  1  0.04380000  0.21340000  0.81981000  1
  C  C98  1  0.04380000  0.28660000  0.18019000  1
  C  C99  1  0.04380000  0.28660000  0.31981000  1
  C  C100  1  0.07050000  0.14273000  0.61657000  1
  C  C101  1  0.07050000  0.14273000  0.88343000  1
  C  C102  1  0.07050000  0.35727000  0.11657000  1
  C  C103  1  0.07050000  0.35727000  0.38343000  1
  C  C104  1  0.08200000  0.07468000  0.54967000  1
  C  C105  1  0.08200000  0.07468000  0.95033000  1
  C  C106  1  0.08200000  0.42532000  0.04967000  1
  C  C107  1  0.08200000  0.42532000  0.45033000  1
  C  C108  1  0.10360000  0.18801000  0.63775000  1
  C  C109  1  0.10360000  0.18801000  0.86225000  1
  C  C110  1  0.10360000  0.31199000  0.13775000  1
  C  C111  1  0.10360000  0.31199000  0.36225000  1
  C  C112  1  0.12430000  0.56656000  0.04023000  1
  C  C113  1  0.12430000  0.56656000  0.45977000  1
  C  C114  1  0.12430000  0.93344000  0.54023000  1
  C  C115  1  0.12430000  0.93344000  0.95977000  1
  C  C116  1  0.12460000  0.12278000  0.57519000  1
  C  C117  1  0.12460000  0.12278000  0.92481000  1
  C  C118  1  0.12460000  0.37722000  0.07519000  1
  C  C119  1  0.12460000  0.37722000  0.42481000  1
  C  C120  1  0.15410000  0.62984000  0.10964000  1
  C  C121  1  0.15410000  0.62984000  0.39036000  1
  C  C122  1  0.15410000  0.87016000  0.60964000  1
  C  C123  1  0.15410000  0.87016000  0.89036000  1
  C  C124  1  0.16270000  0.69594000  0.17734000  1
  C  C125  1  0.16270000  0.69594000  0.32266000  1
  C  C126  1  0.16270000  0.80406000  0.67734000  1
  C  C127  1  0.16270000  0.80406000  0.82266000  1
  C  C128  1  0.18670000  0.60911000  0.06461000  1
  C  C129  1  0.18670000  0.60911000  0.43539000  1
  C  C130  1  0.18670000  0.89089000  0.56461000  1
  C  C131  1  0.18670000  0.89089000  0.93539000  1
  C  C132  1  0.19170000  0.21254000  0.61810000  1
  C  C133  1  0.19170000  0.21254000  0.88190000  1
  C  C134  1  0.19170000  0.28746000  0.11810000  1
  C  C135  1  0.19170000  0.28746000  0.38190000  1
  C  C136  1  0.20570000  0.67125000  0.12998000  1
  C  C137  1  0.20570000  0.67125000  0.37002000  1
  C  C138  1  0.20570000  0.82875000  0.62998000  1
  C  C139  1  0.20570000  0.82875000  0.87002000  1
  C  C140  1  0.21380000  0.14668000  0.55498000  1
  C  C141  1  0.21380000  0.14668000  0.94502000  1
  C  C142  1  0.21380000  0.35332000  0.05498000  1
  C  C143  1  0.21380000  0.35332000  0.44502000  1
  C  C144  1  0.24710000  0.19209000  0.57622000  1
  C  C145  1  0.24710000  0.19209000  0.92378000  1
  C  C146  1  0.24710000  0.30791000  0.07622000  1
  C  C147  1  0.24710000  0.30791000  0.42378000  1
  C  C148  1  0.27440000  0.62944000  0.03855000  1
  C  C149  1  0.27440000  0.62944000  0.46145000  1
  C  C150  1  0.27440000  0.87056000  0.53855000  1
  C  C151  1  0.27440000  0.87056000  0.96145000  1
  C  C152  1  0.29470000  0.69271000  0.10466000  1
  C  C153  1  0.29470000  0.69271000  0.39534000  1
  C  C154  1  0.29470000  0.80729000  0.60466000  1
  C  C155  1  0.29470000  0.80729000  0.89534000  1
  C  C156  1  0.32750000  0.67140000  0.05853000  1
  C  C157  1  0.32750000  0.67140000  0.44147000  1
  C  C158  1  0.32750000  0.82860000  0.55853000  1
  C  C159  1  0.32750000  0.82860000  0.94147000  1
  C  C160  1  0.39070000  0.20602000  0.51611000  1
  C  C161  1  0.39070000  0.20602000  0.98389000  1
  C  C162  1  0.39070000  0.29398000  0.01611000  1
  C  C163  1  0.39070000  0.29398000  0.48389000  1
  C  C164  1  0.46220000  0.25000000  0.00000000  1
  C  C165  1  0.46220000  0.25000000  0.50000000  1
  C  C166  1  0.46670000  0.73372000  0.04504000  1
  C  C167  1  0.46670000  0.73372000  0.45496000  1
  C  C168  1  0.46670000  0.76628000  0.54504000  1
  C  C169  1  0.46670000  0.76628000  0.95496000  1
  C  C170  1  0.53330000  0.23372000  0.04504000  1
  C  C171  1  0.53330000  0.23372000  0.45496000  1
  C  C172  1  0.53330000  0.26628000  0.54504000  1
  C  C173  1  0.53330000  0.26628000  0.95496000  1
  C  C174  1  0.53780000  0.75000000  0.00000000  1
  C  C175  1  0.53780000  0.75000000  0.50000000  1
  C  C176  1  0.60930000  0.70602000  0.51611000  1
  C  C177  1  0.60930000  0.70602000  0.98389000  1
  C  C178  1  0.60930000  0.79398000  0.01611000  1
  C  C179  1  0.60930000  0.79398000  0.48389000  1
  C  C180  1  0.67250000  0.17140000  0.05853000  1
  C  C181  1  0.67250000  0.17140000  0.44147000  1
  C  C182  1  0.67250000  0.32860000  0.55853000  1
  C  C183  1  0.67250000  0.32860000  0.94147000  1
  C  C184  1  0.70530000  0.19271000  0.10466000  1
  C  C185  1  0.70530000  0.19271000  0.39534000  1
  C  C186  1  0.70530000  0.30729000  0.60466000  1
  C  C187  1  0.70530000  0.30729000  0.89534000  1
  C  C188  1  0.72560000  0.12944000  0.03855000  1
  C  C189  1  0.72560000  0.12944000  0.46145000  1
  C  C190  1  0.72560000  0.37056000  0.53855000  1
  C  C191  1  0.72560000  0.37056000  0.96145000  1
  C  C192  1  0.75290000  0.69209000  0.57622000  1
  C  C193  1  0.75290000  0.69209000  0.92378000  1
  C  C194  1  0.75290000  0.80791000  0.07622000  1
  C  C195  1  0.75290000  0.80791000  0.42378000  1
  C  C196  1  0.78620000  0.64668000  0.55498000  1
  C  C197  1  0.78620000  0.64668000  0.94502000  1
  C  C198  1  0.78620000  0.85332000  0.05498000  1
  C  C199  1  0.78620000  0.85332000  0.44502000  1
  C  C200  1  0.79430000  0.17125000  0.12998000  1
  C  C201  1  0.79430000  0.17125000  0.37002000  1
  C  C202  1  0.79430000  0.32875000  0.62998000  1
  C  C203  1  0.79430000  0.32875000  0.87002000  1
  C  C204  1  0.80830000  0.71254000  0.61810000  1
  C  C205  1  0.80830000  0.71254000  0.88190000  1
  C  C206  1  0.80830000  0.78746000  0.11810000  1
  C  C207  1  0.80830000  0.78746000  0.38190000  1
  C  C208  1  0.81330000  0.10911000  0.06461000  1
  C  C209  1  0.81330000  0.10911000  0.43539000  1
  C  C210  1  0.81330000  0.39089000  0.56461000  1
  C  C211  1  0.81330000  0.39089000  0.93539000  1
  C  C212  1  0.83730000  0.19594000  0.17734000  1
  C  C213  1  0.83730000  0.19594000  0.32266000  1
  C  C214  1  0.83730000  0.30406000  0.67734000  1
  C  C215  1  0.83730000  0.30406000  0.82266000  1
  C  C216  1  0.84590000  0.12984000  0.10964000  1
  C  C217  1  0.84590000  0.12984000  0.39036000  1
  C  C218  1  0.84590000  0.37016000  0.60964000  1
  C  C219  1  0.84590000  0.37016000  0.89036000  1
  C  C220  1  0.87540000  0.62278000  0.57519000  1
  C  C221  1  0.87540000  0.62278000  0.92481000  1
  C  C222  1  0.87540000  0.87722000  0.07519000  1
  C  C223  1  0.87540000  0.87722000  0.42481000  1
  C  C224  1  0.87570000  0.06656000  0.04023000  1
  C  C225  1  0.87570000  0.06656000  0.45977000  1
  C  C226  1  0.87570000  0.43344000  0.54023000  1
  C  C227  1  0.87570000  0.43344000  0.95977000  1
  C  C228  1  0.89640000  0.68801000  0.63775000  1
  C  C229  1  0.89640000  0.68801000  0.86225000  1
  C  C230  1  0.89640000  0.81199000  0.13775000  1
  C  C231  1  0.89640000  0.81199000  0.36225000  1
  C  C232  1  0.91800000  0.57468000  0.54967000  1
  C  C233  1  0.91800000  0.57468000  0.95033000  1
  C  C234  1  0.91800000  0.92532000  0.04967000  1
  C  C235  1  0.91800000  0.92532000  0.45033000  1
  C  C236  1  0.92950000  0.64273000  0.61657000  1
  C  C237  1  0.92950000  0.64273000  0.88343000  1
  C  C238  1  0.92950000  0.85727000  0.11657000  1
  C  C239  1  0.92950000  0.85727000  0.38343000  1
  C  C240  1  0.95620000  0.71340000  0.68019000  1
  C  C241  1  0.95620000  0.71340000  0.81981000  1
  C  C242  1  0.95620000  0.78660000  0.18019000  1
  C  C243  1  0.95620000  0.78660000  0.31981000  1
  O  O244  1  0.00310000  0.05280000  0.57060000  1
  O  O245  1  0.00310000  0.05280000  0.92940000  1
  O  O246  1  0.00310000  0.44720000  0.07060000  1
  O  O247  1  0.00310000  0.44720000  0.42940000  1
  O  O248  1  0.03890000  0.55358000  0.06172000  1
  O  O249  1  0.03890000  0.55358000  0.43828000  1
  O  O250  1  0.03890000  0.94642000  0.56172000  1
  O  O251  1  0.03890000  0.94642000  0.93828000  1
  O  O252  1  0.04180000  0.69187000  0.69578000  1
  O  O253  1  0.04180000  0.69187000  0.80422000  1
  O  O254  1  0.04180000  0.80813000  0.19578000  1
  O  O255  1  0.04180000  0.80813000  0.30422000  1
  O  O256  1  0.08280000  0.24639000  0.19786000  1
  O  O257  1  0.08280000  0.24639000  0.30214000  1
  O  O258  1  0.08280000  0.25361000  0.69786000  1
  O  O259  1  0.08280000  0.25361000  0.80214000  1
  O  O260  1  0.08290000  0.67499000  0.19697000  1
  O  O261  1  0.08290000  0.67499000  0.30303000  1
  O  O262  1  0.08290000  0.82501000  0.69697000  1
  O  O263  1  0.08290000  0.82501000  0.80303000  1
  O  O264  1  0.12840000  0.06121000  0.50970000  1
  O  O265  1  0.12840000  0.06121000  0.99030000  1
  O  O266  1  0.12840000  0.43879000  0.00970000  1
  O  O267  1  0.12840000  0.43879000  0.49030000  1
  O  O268  1  0.16220000  0.54630000  0.00079000  1
  O  O269  1  0.16220000  0.54630000  0.49921000  1
  O  O270  1  0.16220000  0.95370000  0.50079000  1
  O  O271  1  0.16220000  0.95370000  0.99921000  1
  O  O272  1  0.21050000  0.73554000  0.19398000  1
  O  O273  1  0.21050000  0.73554000  0.30602000  1
  O  O274  1  0.21050000  0.76446000  0.69398000  1
  O  O275  1  0.21050000  0.76446000  0.80602000  1
  O  O276  1  0.33090000  0.22161000  0.55930000  1
  O  O277  1  0.33090000  0.22161000  0.94070000  1
  O  O278  1  0.33090000  0.27839000  0.05930000  1
  O  O279  1  0.33090000  0.27839000  0.44070000  1
  O  O280  1  0.40970000  0.68958000  0.02875000  1
  O  O281  1  0.40970000  0.68958000  0.47125000  1
  O  O282  1  0.40970000  0.81042000  0.52875000  1
  O  O283  1  0.40970000  0.81042000  0.97125000  1
  O  O284  1  0.59030000  0.18958000  0.02875000  1
  O  O285  1  0.59030000  0.18958000  0.47125000  1
  O  O286  1  0.59030000  0.31042000  0.52875000  1
  O  O287  1  0.59030000  0.31042000  0.97125000  1
  O  O288  1  0.66910000  0.72161000  0.55930000  1
  O  O289  1  0.66910000  0.72161000  0.94070000  1
  O  O290  1  0.66910000  0.77839000  0.05930000  1
  O  O291  1  0.66910000  0.77839000  0.44070000  1
  O  O292  1  0.78950000  0.23554000  0.19398000  1
  O  O293  1  0.78950000  0.23554000  0.30602000  1
  O  O294  1  0.78950000  0.26446000  0.69398000  1
  O  O295  1  0.78950000  0.26446000  0.80602000  1
  O  O296  1  0.83780000  0.04630000  0.00079000  1
  O  O297  1  0.83780000  0.04630000  0.49921000  1
  O  O298  1  0.83780000  0.45370000  0.50079000  1
  O  O299  1  0.83780000  0.45370000  0.99921000  1
  O  O300  1  0.87160000  0.56121000  0.50970000  1
  O  O301  1  0.87160000  0.56121000  0.99030000  1
  O  O302  1  0.87160000  0.93879000  0.00970000  1
  O  O303  1  0.87160000  0.93879000  0.49030000  1
  O  O304  1  0.91710000  0.17499000  0.19697000  1
  O  O305  1  0.91710000  0.17499000  0.30303000  1
  O  O306  1  0.91710000  0.32501000  0.69697000  1
  O  O307  1  0.91710000  0.32501000  0.80303000  1
  O  O308  1  0.91720000  0.74639000  0.19786000  1
  O  O309  1  0.91720000  0.74639000  0.30214000  1
  O  O310  1  0.91720000  0.75361000  0.69786000  1
  O  O311  1  0.91720000  0.75361000  0.80214000  1
  O  O312  1  0.95820000  0.19187000  0.69578000  1
  O  O313  1  0.95820000  0.19187000  0.80422000  1
  O  O314  1  0.95820000  0.30813000  0.19578000  1
  O  O315  1  0.95820000  0.30813000  0.30422000  1
  O  O316  1  0.96110000  0.05358000  0.06172000  1
  O  O317  1  0.96110000  0.05358000  0.43828000  1
  O  O318  1  0.96110000  0.44642000  0.56172000  1
  O  O319  1  0.96110000  0.44642000  0.93828000  1
  O  O320  1  0.99690000  0.55280000  0.57060000  1
  O  O321  1  0.99690000  0.55280000  0.92940000  1
  O  O322  1  0.99690000  0.94720000  0.07060000  1
  O  O323  1  0.99690000  0.94720000  0.42940000  1
