# generated using pymatgen
data_NiH14C26N6(O2F)2
_symmetry_space_group_name_H-M   'P 1'
_cell_length_a   15.54000000
_cell_length_b   15.54000000
_cell_length_c   18.67900000
_cell_angle_alpha   90.00000000
_cell_angle_beta   90.00000000
_cell_angle_gamma   120.00000000
_symmetry_Int_Tables_number   1
_chemical_formula_structural   NiH14C26N6(O2F)2
_chemical_formula_sum   'Ni3 H42 C78 N18 O12 F6'
_cell_volume   3906.48609442
_cell_formula_units_Z   3
loop_
 _symmetry_equiv_pos_site_id
 _symmetry_equiv_pos_as_xyz
  1  'x, y, z'
loop_
 _atom_site_type_symbol
 _atom_site_label
 _atom_site_symmetry_multiplicity
 _atom_site_fract_x
 _atom_site_fract_y
 _atom_site_fract_z
 _atom_site_occupancy
  Ni  Ni0  1  1.00000000  0.82532000  0.16667000  1
  Ni  Ni1  1  0.82532000  1.00000000  0.83333000  1
  Ni  Ni2  1  0.17468000  0.17468000  0.50000000  1
  H  H3  1  0.99370000  0.90100000  0.31640000  1
  H  H4  1  0.96820000  0.10830000  0.08067000  1
  H  H5  1  0.95450000  0.45910000  0.72000000  1
  H  H6  1  0.93550000  0.49460000  0.07187000  1
  H  H7  1  0.92730000  0.63780000  0.07677000  1
  H  H8  1  0.90730000  0.00630000  0.98307000  1
  H  H9  1  0.90100000  0.99370000  0.68360000  1
  H  H10  1  0.89170000  0.85990000  0.41400000  1
  H  H11  1  0.89080000  0.29220000  0.98957000  1
  H  H12  1  0.85990000  0.89170000  0.58600000  1
  H  H13  1  0.84020000  0.18870000  0.89067000  1
  H  H14  1  0.81130000  0.65150000  0.22400000  1
  H  H15  1  0.71050000  0.07270000  0.74343000  1
  H  H16  1  0.70780000  0.59860000  0.32290000  1
  H  H17  1  0.65150000  0.81130000  0.77600000  1
  H  H18  1  0.63780000  0.92730000  0.92323000  1
  H  H19  1  0.59860000  0.70780000  0.67710000  1
  H  H20  1  0.55910000  0.06450000  0.73853000  1
  H  H21  1  0.54090000  0.49540000  0.05333000  1
  H  H22  1  0.50540000  0.44090000  0.40520000  1
  H  H23  1  0.50460000  0.04550000  0.38667000  1
  H  H24  1  0.49540000  0.54090000  0.94667000  1
  H  H25  1  0.49460000  0.93550000  0.92813000  1
  H  H26  1  0.45910000  0.95450000  0.28000000  1
  H  H27  1  0.44090000  0.50540000  0.59480000  1
  H  H28  1  0.40140000  0.10920000  0.65623000  1
  H  H29  1  0.36220000  0.28950000  0.41010000  1
  H  H30  1  0.34850000  0.15980000  0.55733000  1
  H  H31  1  0.29220000  0.89080000  0.01043000  1
  H  H32  1  0.28950000  0.36220000  0.58990000  1
  H  H33  1  0.18870000  0.84020000  0.10933000  1
  H  H34  1  0.15980000  0.34850000  0.44267000  1
  H  H35  1  0.14010000  0.03180000  0.74733000  1
  H  H36  1  0.10920000  0.40140000  0.34377000  1
  H  H37  1  0.10830000  0.96820000  0.91933000  1
  H  H38  1  0.09900000  0.09270000  0.64973000  1
  H  H39  1  0.09270000  0.09900000  0.35027000  1
  H  H40  1  0.07270000  0.71050000  0.25657000  1
  H  H41  1  0.06450000  0.55910000  0.26147000  1
  H  H42  1  0.04550000  0.50460000  0.61333000  1
  H  H43  1  0.03180000  0.14010000  0.25267000  1
  H  H44  1  0.00630000  0.90730000  0.01693000  1
  C  C45  1  1.00000000  0.41550000  0.16667000  1
  C  C46  1  1.00000000  0.51110000  0.16667000  1
  C  C47  1  0.98490000  0.26930000  0.70150000  1
  C  C48  1  0.97910000  0.41990000  0.70180000  1
  C  C49  1  0.97310000  0.34110000  0.74560000  1
  C  C50  1  0.96900000  0.17910000  0.74310000  1
  C  C51  1  0.96730000  0.27410000  0.11207000  1
  C  C52  1  0.96100000  0.53630000  0.11147000  1
  C  C53  1  0.95890000  0.62440000  0.11387000  1
  C  C54  1  0.94070000  0.12520000  0.04287000  1
  C  C55  1  0.93480000  0.84030000  0.31695000  1
  C  C56  1  0.93460000  0.20920000  0.04577000  1
  C  C57  1  0.90550000  0.06520000  0.98362000  1
  C  C58  1  0.89600000  0.23510000  0.98876000  1
  C  C59  1  0.87480000  0.81550000  0.37620000  1
  C  C60  1  0.86520000  0.17170000  0.93007000  1
  C  C61  1  0.84030000  0.93480000  0.68305000  1
  C  C62  1  0.82830000  0.69350000  0.26340000  1
  C  C63  1  0.82090000  0.78990000  0.07643000  1
  C  C64  1  0.81550000  0.87480000  0.62380000  1
  C  C65  1  0.79080000  0.72540000  0.37910000  1
  C  C66  1  0.78990000  0.82090000  0.92357000  1
  C  C67  1  0.76490000  0.66090000  0.32209000  1
  C  C68  1  0.73070000  0.71560000  0.03483000  1
  C  C69  1  0.72590000  0.69320000  0.44540000  1
  C  C70  1  0.72540000  0.79080000  0.62090000  1
  C  C71  1  0.71560000  0.73070000  0.96517000  1
  C  C72  1  0.69350000  0.82830000  0.73660000  1
  C  C73  1  0.69320000  0.72590000  0.55460000  1
  C  C74  1  0.66550000  0.04110000  0.78053000  1
  C  C75  1  0.66090000  0.76490000  0.67791000  1
  C  C76  1  0.65890000  0.63200000  0.07893000  1
  C  C77  1  0.63200000  0.65890000  0.92107000  1
  C  C78  1  0.62440000  0.95890000  0.88613000  1
  C  C79  1  0.58450000  0.58450000  0.50000000  1
  C  C80  1  0.58010000  0.55920000  0.03513000  1
  C  C81  1  0.57530000  0.03900000  0.77813000  1
  C  C82  1  0.55920000  0.58010000  0.96487000  1
  C  C83  1  0.53630000  0.96100000  0.88853000  1
  C  C84  1  0.51110000  0.00000000  0.83333000  1
  C  C85  1  0.48890000  0.48890000  0.50000000  1
  C  C86  1  0.46370000  0.42470000  0.44480000  1
  C  C87  1  0.44080000  0.02090000  0.36847000  1
  C  C88  1  0.42470000  0.46370000  0.55520000  1
  C  C89  1  0.41990000  0.97910000  0.29820000  1
  C  C90  1  0.41550000  1.00000000  0.83333000  1
  C  C91  1  0.37560000  0.33450000  0.44720000  1
  C  C92  1  0.36800000  0.02690000  0.41227000  1
  C  C93  1  0.34110000  0.97310000  0.25440000  1
  C  C94  1  0.33910000  0.10400000  0.65542000  1
  C  C95  1  0.33450000  0.37560000  0.55280000  1
  C  C96  1  0.30680000  0.03270000  0.77873000  1
  C  C97  1  0.30650000  0.13480000  0.59673000  1
  C  C98  1  0.28440000  0.01510000  0.36817000  1
  C  C99  1  0.27460000  0.06540000  0.71243000  1
  C  C100  1  0.27410000  0.96730000  0.88793000  1
  C  C101  1  0.26930000  0.98490000  0.29850000  1
  C  C102  1  0.23510000  0.89600000  0.01124000  1
  C  C103  1  0.21010000  0.03100000  0.40977000  1
  C  C104  1  0.20920000  0.93460000  0.95423000  1
  C  C105  1  0.18450000  0.05930000  0.70953000  1
  C  C106  1  0.17910000  0.96900000  0.25690000  1
  C  C107  1  0.17170000  0.86520000  0.06993000  1
  C  C108  1  0.15970000  0.09450000  0.65028000  1
  C  C109  1  0.13480000  0.30650000  0.40327000  1
  C  C110  1  0.12520000  0.94070000  0.95713000  1
  C  C111  1  0.10400000  0.33910000  0.34458000  1
  C  C112  1  0.09450000  0.15970000  0.34972000  1
  C  C113  1  0.06540000  0.27460000  0.28757000  1
  C  C114  1  0.06520000  0.90550000  0.01638000  1
  C  C115  1  0.05930000  0.18450000  0.29047000  1
  C  C116  1  0.04110000  0.66550000  0.21947000  1
  C  C117  1  0.03900000  0.57530000  0.22187000  1
  C  C118  1  0.03270000  0.30680000  0.22127000  1
  C  C119  1  0.03100000  0.21010000  0.59023000  1
  C  C120  1  0.02690000  0.36800000  0.58773000  1
  C  C121  1  0.02090000  0.44080000  0.63153000  1
  C  C122  1  0.01510000  0.28440000  0.63183000  1
  N  N123  1  1.00000000  0.24390000  0.16667000  1
  N  N124  1  1.00000000  0.69130000  0.16667000  1
  N  N125  1  0.96550000  0.35940000  0.10804000  1
  N  N126  1  0.91180000  0.78090000  0.25992000  1
  N  N127  1  0.86910000  0.08820000  0.92659000  1
  N  N128  1  0.78090000  0.91180000  0.74008000  1
  N  N129  1  0.75610000  0.75610000  0.50000000  1
  N  N130  1  0.69130000  0.00000000  0.83333000  1
  N  N131  1  0.64060000  0.60610000  0.44137000  1
  N  N132  1  0.60610000  0.64060000  0.55863000  1
  N  N133  1  0.39390000  0.03450000  0.77470000  1
  N  N134  1  0.35940000  0.96550000  0.89196000  1
  N  N135  1  0.30870000  0.30870000  0.50000000  1
  N  N136  1  0.24390000  1.00000000  0.83333000  1
  N  N137  1  0.21910000  0.13090000  0.59325000  1
  N  N138  1  0.13090000  0.21910000  0.40675000  1
  N  N139  1  0.08820000  0.86910000  0.07341000  1
  N  N140  1  0.03450000  0.39390000  0.22530000  1
  O  O141  1  0.96210000  0.12220000  0.58703000  1
  O  O142  1  0.88492000  0.12851000  0.77169000  1
  O  O143  1  0.87780000  0.83990000  0.92037000  1
  O  O144  1  0.87149000  0.75641000  0.10502000  1
  O  O145  1  0.83990000  0.87780000  0.07963000  1
  O  O146  1  0.75641000  0.87149000  0.89498000  1
  O  O147  1  0.24359000  0.11508000  0.43836000  1
  O  O148  1  0.16010000  0.03790000  0.25370000  1
  O  O149  1  0.12851000  0.88492000  0.22831000  1
  O  O150  1  0.12220000  0.96210000  0.41297000  1
  O  O151  1  0.11508000  0.24359000  0.56164000  1
  O  O152  1  0.03790000  0.16010000  0.74630000  1
  F  F153  1  0.94530000  0.33980000  0.81570000  1
  F  F154  1  0.66020000  0.60550000  0.14903000  1
  F  F155  1  0.60550000  0.66020000  0.85097000  1
  F  F156  1  0.39450000  0.05470000  0.48237000  1
  F  F157  1  0.33980000  0.94530000  0.18430000  1
  F  F158  1  0.05470000  0.39450000  0.51763000  1
