# generated using pymatgen
data_Fe2HC4Cl2O9
_symmetry_space_group_name_H-M   'P 1'
_cell_length_a   8.70484234
_cell_length_b   8.70484234
_cell_length_c   12.40800000
_cell_angle_alpha   99.39808472
_cell_angle_beta   99.39808472
_cell_angle_gamma   118.16617848
_symmetry_Int_Tables_number   1
_chemical_formula_structural   Fe2HC4Cl2O9
_chemical_formula_sum   'Fe4 H2 C8 Cl4 O18'
_cell_volume   785.89464633
_cell_formula_units_Z   2
loop_
 _symmetry_equiv_pos_site_id
 _symmetry_equiv_pos_as_xyz
  1  'x, y, z'
loop_
 _atom_site_type_symbol
 _atom_site_label
 _atom_site_symmetry_multiplicity
 _atom_site_fract_x
 _atom_site_fract_y
 _atom_site_fract_z
 _atom_site_occupancy
  C  C0  1  0.83100000  0.99380000  0.99210000  1
  C  C1  1  0.99380000  0.83100000  0.49210000  1
  C  C2  1  0.66850000  0.79890000  0.93760000  1
  C  C3  1  0.79890000  0.66850000  0.43760000  1
  C  C4  1  0.29950000  0.96010000  0.92150000  1
  C  C5  1  0.96010000  0.29950000  0.42150000  1
  C  C6  1  0.19390000  0.82810000  0.98710000  1
  C  C7  1  0.82810000  0.19390000  0.48710000  1
  Cl  Cl8  1  0.60660000  0.23160000  0.20957000  1
  Cl  Cl9  1  0.23160000  0.60660000  0.70957000  1
  Cl  Cl10  1  0.86425000  0.96535000  0.69576000  1
  Cl  Cl11  1  0.96535000  0.86425000  0.19576000  1
  Fe  Fe12  1  0.82915000  0.92821000  0.32076000  1
  Fe  Fe13  1  0.92821000  0.82915000  0.82076000  1
  Fe  Fe14  1  0.55946000  0.97054000  0.09573000  1
  Fe  Fe15  1  0.97054000  0.55946000  0.59573000  1
  H  H16  1  0.52200000  0.84940000  0.25060000  1
  H  H17  1  0.84940000  0.52200000  0.75060000  1
  O  O18  1  0.80670000  0.09030000  0.06750000  1
  O  O19  1  0.09030000  0.80670000  0.56750000  1
  O  O20  1  0.74700000  0.02520000  0.45480000  1
  O  O21  1  0.02520000  0.74700000  0.95480000  1
  O  O22  1  0.46690000  0.03670000  0.95130000  1
  O  O23  1  0.03670000  0.46690000  0.45130000  1
  O  O24  1  0.60730000  0.87510000  0.21890000  1
  O  O25  1  0.87510000  0.60730000  0.71890000  1
  O  O26  1  0.68670000  0.70210000  0.85850000  1
  O  O27  1  0.70210000  0.68670000  0.35850000  1
  O  O28  1  0.53180000  0.75240000  0.97510000  1
  O  O29  1  0.75240000  0.53180000  0.47510000  1
  O  O30  1  0.20270000  0.97910000  0.84230000  1
  O  O31  1  0.97910000  0.20270000  0.34230000  1
  O  O32  1  0.28670000  0.81190000  0.06930000  1
  O  O33  1  0.81190000  0.28670000  0.56930000  1
  O  O34  1  0.03890000  0.96730000  0.45670000  1
  O  O35  1  0.96730000  0.03890000  0.95670000  1
