# generated using pymatgen
data_CuH9(C10O3)2
_symmetry_space_group_name_H-M   'P 1'
_cell_length_a   15.95680000
_cell_length_b   16.69438309
_cell_length_c   28.65700000
_cell_angle_alpha   90.00000000
_cell_angle_beta   90.00000000
_cell_angle_gamma   118.54894024
_symmetry_Int_Tables_number   1
_chemical_formula_structural   CuH9(C10O3)2
_chemical_formula_sum   'Cu4 H36 C80 O24'
_cell_volume   6705.69483110
_cell_formula_units_Z   4
loop_
 _symmetry_equiv_pos_site_id
 _symmetry_equiv_pos_as_xyz
  1  'x, y, z'
loop_
 _atom_site_type_symbol
 _atom_site_label
 _atom_site_symmetry_multiplicity
 _atom_site_fract_x
 _atom_site_fract_y
 _atom_site_fract_z
 _atom_site_occupancy
  C  C0  1  0.38008000  0.76016000  0.25000000  1
  C  C1  1  0.38008000  0.76016000  0.75000000  1
  C  C2  1  0.47427000  0.94854000  0.25000000  1
  C  C3  1  0.47427000  0.94854000  0.75000000  1
  C  C4  1  0.52573000  0.05146000  0.25000000  1
  C  C5  1  0.52573000  0.05146000  0.75000000  1
  C  C6  1  0.61992000  0.23984000  0.25000000  1
  C  C7  1  0.61992000  0.23984000  0.75000000  1
  C  C8  1  0.37083000  0.67626000  0.15620000  1
  C  C9  1  0.37083000  0.67626000  0.84380000  1
  C  C10  1  0.69457000  0.32374000  0.34380000  1
  C  C11  1  0.69457000  0.32374000  0.65620000  1
  C  C12  1  0.48406000  0.90012000  0.21432000  1
  C  C13  1  0.48406000  0.90012000  0.78568000  1
  C  C14  1  0.58394000  0.09988000  0.28568000  1
  C  C15  1  0.58394000  0.09988000  0.71432000  1
  C  C16  1  0.43876000  0.80472000  0.21307000  1
  C  C17  1  0.43876000  0.80472000  0.78693000  1
  C  C18  1  0.63404000  0.19528000  0.28693000  1
  C  C19  1  0.63404000  0.19528000  0.71307000  1
  C  C20  1  0.38313000  0.62606000  0.11967000  1
  C  C21  1  0.38313000  0.62606000  0.88033000  1
  C  C22  1  0.75707000  0.37394000  0.38033000  1
  C  C23  1  0.75707000  0.37394000  0.61967000  1
  C  C24  1  0.44979000  0.75398000  0.17363000  1
  C  C25  1  0.44979000  0.75398000  0.82637000  1
  C  C26  1  0.69581000  0.24602000  0.32637000  1
  C  C27  1  0.69581000  0.24602000  0.67363000  1
  C  C28  1  0.47119000  0.64978000  0.10120000  1
  C  C29  1  0.47119000  0.64978000  0.89880000  1
  C  C30  1  0.82141000  0.35022000  0.39880000  1
  C  C31  1  0.82141000  0.35022000  0.60120000  1
  C  C32  1  0.53839000  0.77818000  0.15466000  1
  C  C33  1  0.53839000  0.77818000  0.84534000  1
  C  C34  1  0.76021000  0.22182000  0.34534000  1
  C  C35  1  0.76021000  0.22182000  0.65466000  1
  C  C36  1  0.48363000  0.59706000  0.06211000  1
  C  C37  1  0.48363000  0.59706000  0.93789000  1
  C  C38  1  0.88657000  0.40294000  0.43789000  1
  C  C39  1  0.88657000  0.40294000  0.56211000  1
  C  C40  1  0.54926000  0.72772000  0.11829000  1
  C  C41  1  0.54926000  0.72772000  0.88171000  1
  C  C42  1  0.82154000  0.27228000  0.38171000  1
  C  C43  1  0.82154000  0.27228000  0.61829000  1
  C  C44  1  0.45074000  0.27228000  0.11829000  1
  C  C45  1  0.45074000  0.27228000  0.88171000  1
  C  C46  1  0.17846000  0.72772000  0.38171000  1
  C  C47  1  0.17846000  0.72772000  0.61829000  1
  C  C48  1  0.51637000  0.40294000  0.06211000  1
  C  C49  1  0.51637000  0.40294000  0.93789000  1
  C  C50  1  0.11343000  0.59706000  0.43789000  1
  C  C51  1  0.11343000  0.59706000  0.56211000  1
  C  C52  1  0.46161000  0.22182000  0.15466000  1
  C  C53  1  0.46161000  0.22182000  0.84534000  1
  C  C54  1  0.23979000  0.77818000  0.34534000  1
  C  C55  1  0.23979000  0.77818000  0.65466000  1
  C  C56  1  0.52881000  0.35022000  0.10120000  1
  C  C57  1  0.52881000  0.35022000  0.89880000  1
  C  C58  1  0.17859000  0.64978000  0.39880000  1
  C  C59  1  0.17859000  0.64978000  0.60120000  1
  C  C60  1  0.55021000  0.24602000  0.17363000  1
  C  C61  1  0.55021000  0.24602000  0.82637000  1
  C  C62  1  0.30419000  0.75398000  0.32637000  1
  C  C63  1  0.30419000  0.75398000  0.67363000  1
  C  C64  1  0.61687000  0.37394000  0.11967000  1
  C  C65  1  0.61687000  0.37394000  0.88033000  1
  C  C66  1  0.24293000  0.62606000  0.38033000  1
  C  C67  1  0.24293000  0.62606000  0.61967000  1
  C  C68  1  0.56124000  0.19528000  0.21307000  1
  C  C69  1  0.56124000  0.19528000  0.78693000  1
  C  C70  1  0.36596000  0.80472000  0.28693000  1
  C  C71  1  0.36596000  0.80472000  0.71307000  1
  C  C72  1  0.51594000  0.09988000  0.21432000  1
  C  C73  1  0.51594000  0.09988000  0.78568000  1
  C  C74  1  0.41606000  0.90012000  0.28568000  1
  C  C75  1  0.41606000  0.90012000  0.71432000  1
  C  C76  1  0.62917000  0.32374000  0.15620000  1
  C  C77  1  0.62917000  0.32374000  0.84380000  1
  C  C78  1  0.30543000  0.67626000  0.34380000  1
  C  C79  1  0.30543000  0.67626000  0.65620000  1
  Cu  Cu80  1  0.40773000  0.44540000  0.00000000  1
  Cu  Cu81  1  0.96233000  0.55460000  0.50000000  1
  Cu  Cu82  1  0.59227000  0.55460000  0.00000000  1
  Cu  Cu83  1  0.03767000  0.44540000  0.50000000  1
  H  H84  1  0.34840000  0.69680000  0.25000000  1
  H  H85  1  0.34840000  0.69680000  0.75000000  1
  H  H86  1  0.65160000  0.30320000  0.25000000  1
  H  H87  1  0.65160000  0.30320000  0.75000000  1
  H  H88  1  0.34720000  0.65780000  0.33140000  1
  H  H89  1  0.34720000  0.65780000  0.66860000  1
  H  H90  1  0.68940000  0.34220000  0.16860000  1
  H  H91  1  0.68940000  0.34220000  0.83140000  1
  H  H92  1  0.32990000  0.57540000  0.10780000  1
  H  H93  1  0.32990000  0.57540000  0.89220000  1
  H  H94  1  0.75450000  0.42460000  0.39220000  1
  H  H95  1  0.75450000  0.42460000  0.60780000  1
  H  H96  1  0.59190000  0.82900000  0.16630000  1
  H  H97  1  0.59190000  0.82900000  0.83370000  1
  H  H98  1  0.76290000  0.17100000  0.33370000  1
  H  H99  1  0.76290000  0.17100000  0.66630000  1
  H  H100  1  0.60930000  0.74660000  0.10540000  1
  H  H101  1  0.60930000  0.74660000  0.89460000  1
  H  H102  1  0.86270000  0.25340000  0.39460000  1
  H  H103  1  0.86270000  0.25340000  0.60540000  1
  H  H104  1  0.39070000  0.25340000  0.10540000  1
  H  H105  1  0.39070000  0.25340000  0.89460000  1
  H  H106  1  0.13730000  0.74660000  0.39460000  1
  H  H107  1  0.13730000  0.74660000  0.60540000  1
  H  H108  1  0.40810000  0.17100000  0.16630000  1
  H  H109  1  0.40810000  0.17100000  0.83370000  1
  H  H110  1  0.23710000  0.82900000  0.33370000  1
  H  H111  1  0.23710000  0.82900000  0.66630000  1
  H  H112  1  0.67010000  0.42460000  0.10780000  1
  H  H113  1  0.67010000  0.42460000  0.89220000  1
  H  H114  1  0.24550000  0.57540000  0.39220000  1
  H  H115  1  0.24550000  0.57540000  0.60780000  1
  H  H116  1  0.65280000  0.34220000  0.33140000  1
  H  H117  1  0.65280000  0.34220000  0.66860000  1
  H  H118  1  0.31060000  0.65780000  0.16860000  1
  H  H119  1  0.31060000  0.65780000  0.83140000  1
  O  O120  1  0.54423000  0.94366000  0.17709000  1
  O  O121  1  0.54423000  0.94366000  0.82291000  1
  O  O122  1  0.60057000  0.05634000  0.32291000  1
  O  O123  1  0.60057000  0.05634000  0.67709000  1
  O  O124  1  0.40555000  0.52710000  0.04804000  1
  O  O125  1  0.40555000  0.52710000  0.95196000  1
  O  O126  1  0.87845000  0.47290000  0.45196000  1
  O  O127  1  0.87845000  0.47290000  0.54804000  1
  O  O128  1  0.43551000  0.37962000  0.04801000  1
  O  O129  1  0.43551000  0.37962000  0.95199000  1
  O  O130  1  0.05589000  0.62038000  0.45199000  1
  O  O131  1  0.05589000  0.62038000  0.54801000  1
  O  O132  1  0.56449000  0.62038000  0.04801000  1
  O  O133  1  0.56449000  0.62038000  0.95199000  1
  O  O134  1  0.94411000  0.37962000  0.45199000  1
  O  O135  1  0.94411000  0.37962000  0.54801000  1
  O  O136  1  0.59445000  0.47290000  0.04804000  1
  O  O137  1  0.59445000  0.47290000  0.95196000  1
  O  O138  1  0.12155000  0.52710000  0.45196000  1
  O  O139  1  0.12155000  0.52710000  0.54804000  1
  O  O140  1  0.45577000  0.05634000  0.17709000  1
  O  O141  1  0.45577000  0.05634000  0.82291000  1
  O  O142  1  0.39943000  0.94366000  0.32291000  1
  O  O143  1  0.39943000  0.94366000  0.67709000  1
