# generated using pymatgen
data_ZnH3(CO2)3
_symmetry_space_group_name_H-M   'P 1'
_cell_length_a   7.68920000
_cell_length_b   7.73850000
_cell_length_c   13.02050000
_cell_angle_alpha   90.00000000
_cell_angle_beta   90.00000000
_cell_angle_gamma   90.00000000
_symmetry_Int_Tables_number   1
_chemical_formula_structural   ZnH3(CO2)3
_chemical_formula_sum   'Zn4 H12 C12 O24'
_cell_volume   774.75717352
_cell_formula_units_Z   4
loop_
 _symmetry_equiv_pos_site_id
 _symmetry_equiv_pos_as_xyz
  1  'x, y, z'
loop_
 _atom_site_type_symbol
 _atom_site_label
 _atom_site_symmetry_multiplicity
 _atom_site_fract_x
 _atom_site_fract_y
 _atom_site_fract_z
 _atom_site_occupancy
  Zn  Zn0  1  0.05141000  0.00608000  0.91599000  1
  Zn  Zn1  1  0.44859000  0.99392000  0.41599000  1
  Zn  Zn2  1  0.55141000  0.49392000  0.08401000  1
  Zn  Zn3  1  0.94859000  0.50608000  0.58401000  1
  H  H4  1  0.03290000  0.32450000  0.77490000  1
  H  H5  1  0.14270000  0.22340000  0.46640000  1
  H  H6  1  0.24610000  0.27730000  0.02300000  1
  H  H7  1  0.25390000  0.72270000  0.52300000  1
  H  H8  1  0.35730000  0.77660000  0.96640000  1
  H  H9  1  0.46710000  0.67550000  0.27490000  1
  H  H10  1  0.53290000  0.17550000  0.22510000  1
  H  H11  1  0.64270000  0.27660000  0.53360000  1
  H  H12  1  0.74610000  0.22270000  0.97700000  1
  H  H13  1  0.75390000  0.77730000  0.47700000  1
  H  H14  1  0.85730000  0.72340000  0.03360000  1
  H  H15  1  0.96710000  0.82450000  0.72510000  1
  C  C16  1  0.07490000  0.77390000  0.73711000  1
  C  C17  1  0.18700000  0.73150000  0.46370000  1
  C  C18  1  0.20600000  0.22910000  0.52716000  1
  C  C19  1  0.29400000  0.77090000  0.02716000  1
  C  C20  1  0.31300000  0.26850000  0.96370000  1
  C  C21  1  0.42510000  0.22610000  0.23711000  1
  C  C22  1  0.57490000  0.72610000  0.26289000  1
  C  C23  1  0.68700000  0.76850000  0.53630000  1
  C  C24  1  0.70600000  0.27090000  0.47284000  1
  C  C25  1  0.79400000  0.72910000  0.97284000  1
  C  C26  1  0.81300000  0.23150000  0.03630000  1
  C  C27  1  0.92510000  0.27390000  0.76289000  1
  O  O28  1  0.04955000  0.64920000  0.46080000  1
  O  O29  1  0.10987000  0.63742000  0.69000000  1
  O  O30  1  0.15670000  0.33380000  0.59153000  1
  O  O31  1  0.16726000  0.87029000  0.03528000  1
  O  O32  1  0.17455000  0.84715000  0.79924000  1
  O  O33  1  0.24377000  0.82670000  0.39259000  1
  O  O34  1  0.25623000  0.17330000  0.89259000  1
  O  O35  1  0.32545000  0.15285000  0.29924000  1
  O  O36  1  0.33274000  0.12971000  0.53528000  1
  O  O37  1  0.34330000  0.66620000  0.09153000  1
  O  O38  1  0.39013000  0.36258000  0.19000000  1
  O  O39  1  0.45045000  0.35080000  0.96080000  1
  O  O40  1  0.54955000  0.85080000  0.53920000  1
  O  O41  1  0.60987000  0.86258000  0.31000000  1
  O  O42  1  0.65670000  0.16620000  0.40847000  1
  O  O43  1  0.66726000  0.62971000  0.96472000  1
  O  O44  1  0.67455000  0.65285000  0.20076000  1
  O  O45  1  0.74377000  0.67330000  0.60741000  1
  O  O46  1  0.75623000  0.32670000  0.10741000  1
  O  O47  1  0.82545000  0.34715000  0.70076000  1
  O  O48  1  0.83274000  0.37029000  0.46472000  1
  O  O49  1  0.84330000  0.83380000  0.90847000  1
  O  O50  1  0.89013000  0.13742000  0.81000000  1
  O  O51  1  0.95045000  0.14920000  0.03920000  1
