# generated using pymatgen
data_MnH16C24(NO2)2
_symmetry_space_group_name_H-M   'P 1'
_cell_length_a   9.84570000
_cell_length_b   16.74550000
_cell_length_c   19.49370000
_cell_angle_alpha   90.00000000
_cell_angle_beta   90.00000000
_cell_angle_gamma   94.34800000
_symmetry_Int_Tables_number   1
_chemical_formula_structural   MnH16C24(NO2)2
_chemical_formula_sum   'Mn4 H64 C96 N8 O16'
_cell_volume   3204.69927061
_cell_formula_units_Z   4
loop_
 _symmetry_equiv_pos_site_id
 _symmetry_equiv_pos_as_xyz
  1  'x, y, z'
loop_
 _atom_site_type_symbol
 _atom_site_label
 _atom_site_symmetry_multiplicity
 _atom_site_fract_x
 _atom_site_fract_y
 _atom_site_fract_z
 _atom_site_occupancy
  Mn  Mn0  1  0.00000000  0.50000000  0.00000000  1
  Mn  Mn1  1  1.00000000  0.00000000  0.50000000  1
  Mn  Mn2  1  0.50000000  0.50000000  0.00000000  1
  Mn  Mn3  1  0.50000000  1.00000000  0.50000000  1
  H  H4  1  0.99220000  0.16340000  0.38280000  1
  H  H5  1  0.99220000  0.66340000  0.11720000  1
  H  H6  1  0.95780000  0.25180000  0.79150000  1
  H  H7  1  0.95780000  0.75180000  0.70850000  1
  H  H8  1  0.91060000  0.69980000  0.80650000  1
  H  H9  1  0.91060000  0.19980000  0.69350000  1
  H  H10  1  0.86730000  0.61090000  0.89400000  1
  H  H11  1  0.86730000  0.11090000  0.60600000  1
  H  H12  1  0.79440000  0.42210000  0.79320000  1
  H  H13  1  0.79440000  0.92210000  0.70680000  1
  H  H14  1  0.74850000  0.91810000  0.41450000  1
  H  H15  1  0.74850000  0.41810000  0.08550000  1
  H  H16  1  0.73910000  0.83890000  0.79770000  1
  H  H17  1  0.73910000  0.33890000  0.70230000  1
  H  H18  1  0.69570000  0.83370000  0.32530000  1
  H  H19  1  0.69570000  0.33370000  0.17470000  1
  H  H20  1  0.65490000  0.72530000  0.26750000  1
  H  H21  1  0.65490000  0.22530000  0.23250000  1
  H  H22  1  0.61260000  0.77310000  0.87810000  1
  H  H23  1  0.61260000  0.27310000  0.62190000  1
  H  H24  1  0.60460000  0.08890000  0.75210000  1
  H  H25  1  0.60460000  0.58890000  0.74790000  1
  H  H26  1  0.60350000  0.14170000  0.32420000  1
  H  H27  1  0.60350000  0.64170000  0.17580000  1
  H  H28  1  0.59780000  0.26690000  0.92030000  1
  H  H29  1  0.59780000  0.76690000  0.57970000  1
  H  H30  1  0.56670000  0.68410000  0.96510000  1
  H  H31  1  0.56670000  0.18410000  0.53490000  1
  H  H32  1  0.55810000  0.17860000  0.83150000  1
  H  H33  1  0.55810000  0.67860000  0.66850000  1
  H  H34  1  0.55300000  0.50550000  0.83860000  1
  H  H35  1  0.55300000  0.00550000  0.66140000  1
  H  H36  1  0.44700000  0.99450000  0.33860000  1
  H  H37  1  0.44700000  0.49450000  0.16140000  1
  H  H38  1  0.44190000  0.32140000  0.33150000  1
  H  H39  1  0.44190000  0.82140000  0.16850000  1
  H  H40  1  0.43330000  0.81590000  0.46510000  1
  H  H41  1  0.43330000  0.31590000  0.03490000  1
  H  H42  1  0.40220000  0.23310000  0.42030000  1
  H  H43  1  0.40220000  0.73310000  0.07970000  1
  H  H44  1  0.39650000  0.35830000  0.82420000  1
  H  H45  1  0.39650000  0.85830000  0.67580000  1
  H  H46  1  0.39540000  0.41110000  0.25210000  1
  H  H47  1  0.39540000  0.91110000  0.24790000  1
  H  H48  1  0.38740000  0.72690000  0.37810000  1
  H  H49  1  0.38740000  0.22690000  0.12190000  1
  H  H50  1  0.34510000  0.77470000  0.76750000  1
  H  H51  1  0.34510000  0.27470000  0.73250000  1
  H  H52  1  0.30430000  0.66630000  0.82530000  1
  H  H53  1  0.30430000  0.16630000  0.67470000  1
  H  H54  1  0.26090000  0.66110000  0.29770000  1
  H  H55  1  0.26090000  0.16110000  0.20230000  1
  H  H56  1  0.25150000  0.58190000  0.91450000  1
  H  H57  1  0.25150000  0.08190000  0.58550000  1
  H  H58  1  0.20560000  0.07790000  0.29320000  1
  H  H59  1  0.20560000  0.57790000  0.20680000  1
  H  H60  1  0.13270000  0.88910000  0.39400000  1
  H  H61  1  0.13270000  0.38910000  0.10600000  1
  H  H62  1  0.08940000  0.80020000  0.30650000  1
  H  H63  1  0.08940000  0.30020000  0.19350000  1
  H  H64  1  0.04220000  0.24820000  0.29150000  1
  H  H65  1  0.04220000  0.74820000  0.20850000  1
  H  H66  1  0.00780000  0.33660000  0.88280000  1
  H  H67  1  0.00780000  0.83660000  0.61720000  1
  C  C68  1  0.98260000  0.67640000  0.82740000  1
  C  C69  1  0.98260000  0.17640000  0.67260000  1
  C  C70  1  0.95720000  0.62290000  0.88060000  1
  C  C71  1  0.95720000  0.12290000  0.61940000  1
  C  C72  1  0.95290000  0.22760000  0.29830000  1
  C  C73  1  0.95290000  0.72760000  0.20170000  1
  C  C74  1  0.92310000  0.17670000  0.35340000  1
  C  C75  1  0.92310000  0.67670000  0.14660000  1
  C  C76  1  0.88590000  0.80460000  0.30490000  1
  C  C77  1  0.88590000  0.30460000  0.19510000  1
  C  C78  1  0.85350000  0.24830000  0.25340000  1
  C  C79  1  0.85350000  0.74830000  0.24660000  1
  C  C80  1  0.81870000  0.89450000  0.39220000  1
  C  C81  1  0.81870000  0.39450000  0.10780000  1
  C  C82  1  0.79100000  0.14590000  0.36440000  1
  C  C83  1  0.79100000  0.64590000  0.13560000  1
  C  C84  1  0.78610000  0.84290000  0.33880000  1
  C  C85  1  0.78610000  0.34290000  0.16120000  1
  C  C86  1  0.75620000  0.09210000  0.42540000  1
  C  C87  1  0.75620000  0.59210000  0.07460000  1
  C  C88  1  0.74440000  0.37360000  0.80100000  1
  C  C89  1  0.74440000  0.87360000  0.69900000  1
  C  C90  1  0.73790000  0.40870000  0.92670000  1
  C  C91  1  0.73790000  0.90870000  0.57330000  1
  C  C92  1  0.72320000  0.21420000  0.26330000  1
  C  C93  1  0.72320000  0.71420000  0.23670000  1
  C  C94  1  0.71310000  0.82300000  0.75360000  1
  C  C95  1  0.71310000  0.32300000  0.74640000  1
  C  C96  1  0.70320000  0.35380000  0.86670000  1
  C  C97  1  0.70320000  0.85380000  0.63330000  1
  C  C98  1  0.69230000  0.16370000  0.31830000  1
  C  C99  1  0.69230000  0.66370000  0.18170000  1
  C  C100  1  0.64370000  0.24890000  0.75620000  1
  C  C101  1  0.64370000  0.74890000  0.74380000  1
  C  C102  1  0.62980000  0.28070000  0.87660000  1
  C  C103  1  0.62980000  0.78070000  0.62340000  1
  C  C104  1  0.61380000  0.69240000  0.80160000  1
  C  C105  1  0.61380000  0.19240000  0.69840000  1
  C  C106  1  0.60340000  0.22840000  0.82310000  1
  C  C107  1  0.60340000  0.72840000  0.67690000  1
  C  C108  1  0.60160000  0.71870000  0.86840000  1
  C  C109  1  0.60160000  0.21870000  0.63160000  1
  C  C110  1  0.59620000  0.61020000  0.79160000  1
  C  C111  1  0.59620000  0.11020000  0.70840000  1
  C  C112  1  0.57330000  0.66460000  0.92060000  1
  C  C113  1  0.57330000  0.16460000  0.57940000  1
  C  C114  1  0.56620000  0.56020000  0.84680000  1
  C  C115  1  0.56620000  0.06020000  0.65320000  1
  C  C116  1  0.43380000  0.93980000  0.34680000  1
  C  C117  1  0.43380000  0.43980000  0.15320000  1
  C  C118  1  0.42670000  0.83540000  0.42060000  1
  C  C119  1  0.42670000  0.33540000  0.07940000  1
  C  C120  1  0.40380000  0.88980000  0.29160000  1
  C  C121  1  0.40380000  0.38980000  0.20840000  1
  C  C122  1  0.39840000  0.78130000  0.36840000  1
  C  C123  1  0.39840000  0.28130000  0.13160000  1
  C  C124  1  0.39660000  0.27160000  0.32310000  1
  C  C125  1  0.39660000  0.77160000  0.17690000  1
  C  C126  1  0.38620000  0.80760000  0.30160000  1
  C  C127  1  0.38620000  0.30760000  0.19840000  1
  C  C128  1  0.37020000  0.21930000  0.37660000  1
  C  C129  1  0.37020000  0.71930000  0.12340000  1
  C  C130  1  0.35630000  0.25110000  0.25620000  1
  C  C131  1  0.35630000  0.75110000  0.24380000  1
  C  C132  1  0.30770000  0.33630000  0.81830000  1
  C  C133  1  0.30770000  0.83630000  0.68170000  1
  C  C134  1  0.29680000  0.14620000  0.36670000  1
  C  C135  1  0.29680000  0.64620000  0.13330000  1
  C  C136  1  0.28690000  0.67700000  0.25360000  1
  C  C137  1  0.28690000  0.17700000  0.24640000  1
  C  C138  1  0.27680000  0.28580000  0.76330000  1
  C  C139  1  0.27680000  0.78580000  0.73670000  1
  C  C140  1  0.26210000  0.09130000  0.42670000  1
  C  C141  1  0.26210000  0.59130000  0.07330000  1
  C  C142  1  0.25560000  0.12640000  0.30100000  1
  C  C143  1  0.25560000  0.62640000  0.19900000  1
  C  C144  1  0.24380000  0.40790000  0.92540000  1
  C  C145  1  0.24380000  0.90790000  0.57460000  1
  C  C146  1  0.21390000  0.65710000  0.83880000  1
  C  C147  1  0.21390000  0.15710000  0.66120000  1
  C  C148  1  0.20900000  0.35410000  0.86440000  1
  C  C149  1  0.20900000  0.85410000  0.63560000  1
  C  C150  1  0.18130000  0.60550000  0.89220000  1
  C  C151  1  0.18130000  0.10550000  0.60780000  1
  C  C152  1  0.14650000  0.25170000  0.75340000  1
  C  C153  1  0.14650000  0.75170000  0.74660000  1
  C  C154  1  0.11410000  0.69540000  0.80490000  1
  C  C155  1  0.11410000  0.19540000  0.69510000  1
  C  C156  1  0.07690000  0.32330000  0.85340000  1
  C  C157  1  0.07690000  0.82330000  0.64660000  1
  C  C158  1  0.04710000  0.27240000  0.79830000  1
  C  C159  1  0.04710000  0.77240000  0.70170000  1
  C  C160  1  0.04280000  0.87710000  0.38060000  1
  C  C161  1  0.04280000  0.37710000  0.11940000  1
  C  C162  1  0.01740000  0.82360000  0.32740000  1
  C  C163  1  0.01740000  0.32360000  0.17260000  1
  N  N164  1  0.94540000  0.91220000  0.41340000  1
  N  N165  1  0.94540000  0.41220000  0.08660000  1
  N  N166  1  0.55500000  0.58580000  0.91095000  1
  N  N167  1  0.55500000  0.08580000  0.58905000  1
  N  N168  1  0.44500000  0.91420000  0.41095000  1
  N  N169  1  0.44500000  0.41420000  0.08905000  1
  N  N170  1  0.05460000  0.58780000  0.91340000  1
  N  N171  1  0.05460000  0.08780000  0.58660000  1
  O  O172  1  0.85590000  0.44180000  0.92745000  1
  O  O173  1  0.85590000  0.94180000  0.57255000  1
  O  O174  1  0.84980000  0.08026000  0.46659000  1
  O  O175  1  0.84980000  0.58026000  0.03341000  1
  O  O176  1  0.64770000  0.41547000  0.97094000  1
  O  O177  1  0.64770000  0.91547000  0.52906000  1
  O  O178  1  0.63540000  0.06497000  0.42963000  1
  O  O179  1  0.63540000  0.56497000  0.07037000  1
  O  O180  1  0.36460000  0.43503000  0.92963000  1
  O  O181  1  0.36460000  0.93503000  0.57037000  1
  O  O182  1  0.35230000  0.08453000  0.47094000  1
  O  O183  1  0.35230000  0.58453000  0.02906000  1
  O  O184  1  0.15020000  0.41974000  0.96659000  1
  O  O185  1  0.15020000  0.91974000  0.53341000  1
  O  O186  1  0.14410000  0.05820000  0.42745000  1
  O  O187  1  0.14410000  0.55820000  0.07255000  1
