# generated using pymatgen
data_CuH8C12N3O2
_symmetry_space_group_name_H-M   'P 1'
_cell_length_a   17.32450000
_cell_length_b   17.32450000
_cell_length_c   20.92948308
_cell_angle_alpha   114.44867083
_cell_angle_beta   114.44867083
_cell_angle_gamma   90.00000000
_symmetry_Int_Tables_number   1
_chemical_formula_structural   CuH8C12N3O2
_chemical_formula_sum   'Cu12 H96 C144 N36 O24'
_cell_volume   5093.28692758
_cell_formula_units_Z   12
loop_
 _symmetry_equiv_pos_site_id
 _symmetry_equiv_pos_as_xyz
  1  'x, y, z'
loop_
 _atom_site_type_symbol
 _atom_site_label
 _atom_site_symmetry_multiplicity
 _atom_site_fract_x
 _atom_site_fract_y
 _atom_site_fract_z
 _atom_site_occupancy
  C  C0  1  0.57650000  0.53120000  0.14400000  1
  C  C1  1  0.09070000  0.68540000  0.14880000  1
  C  C2  1  0.45210000  0.56940000  0.85440000  1
  C  C3  1  0.52390000  0.19020000  0.99260000  1
  C  C4  1  0.60340000  0.28800000  0.14260000  1
  C  C5  1  0.82510000  0.39350000  0.57900000  1
  C  C6  1  0.57420000  0.20920000  0.07560000  1
  C  C7  1  0.46880000  0.43250000  0.85600000  1
  C  C8  1  0.64850000  0.27300000  0.20780000  1
  C  C9  1  0.69290000  0.33440000  0.29380000  1
  C  C10  1  0.62340000  0.74320000  0.14000000  1
  C  C11  1  0.48390000  0.29380000  0.85640000  1
  C  C12  1  0.63400000  0.65870000  0.14300000  1
  C  C13  1  0.49780000  0.50670000  0.85260000  1
  C  C14  1  0.11850000  0.68700000  0.09040000  1
  C  C15  1  0.65410000  0.50220000  0.14740000  1
  C  C16  1  0.51570000  0.36600000  0.85700000  1
  C  C17  1  0.90750000  0.45490000  0.63880000  1
  C  C18  1  0.66580000  0.41940000  0.15320000  1
  C  C19  1  0.91220000  0.04660000  0.62480000  1
  C  C20  1  0.81450000  0.17490000  0.42100000  1
  C  C21  1  0.53660000  0.90930000  0.85120000  1
  C  C22  1  0.43480000  0.56760000  0.64700000  1
  C  C23  1  0.96990000  0.05860000  0.70100000  1
  C  C24  1  0.41530000  0.50250000  0.57060000  1
  C  C25  1  0.70620000  0.62750000  0.14360000  1
  C  C26  1  0.81610000  0.09250000  0.36120000  1
  C  C27  1  0.88230000  0.03040000  0.49320000  1
  C  C28  1  0.19220000  0.73410000  0.10200000  1
  C  C29  1  0.59660000  0.88150000  0.90960000  1
  C  C30  1  0.71500000  0.54790000  0.14560000  1
  C  C31  1  0.53210000  0.69200000  0.77300000  1
  C  C32  1  0.97020000  0.48990000  0.62920000  1
  C  C33  1  0.94310000  0.04540000  0.57380000  1
  C  C34  1  0.58060000  0.51260000  0.84680000  1
  C  C35  1  0.51450000  0.61780000  0.69520000  1
  C  C36  1  0.06520000  0.35150000  0.79220000  1
  C  C37  1  0.13360000  0.42580000  0.92440000  1
  C  C38  1  0.60320000  0.37660000  0.86000000  1
  C  C39  1  0.18860000  0.70930000  0.03000000  1
  C  C40  1  0.27330000  0.88030000  0.19620000  1
  C  C41  1  0.86070000  0.02980000  0.37080000  1
  C  C42  1  0.94910000  0.54030000  0.53240000  1
  C  C43  1  0.63210000  0.80780000  0.89800000  1
  C  C44  1  0.03530000  0.54340000  0.70260000  1
  C  C45  1  0.04060000  0.30710000  0.70620000  1
  C  C46  1  0.84080000  0.96470000  0.29740000  1
  C  C47  1  0.19760000  0.47610000  0.00740000  1
  C  C48  1  0.67930000  0.81140000  0.97000000  1
  C  C49  1  0.30800000  0.75910000  0.22700000  1
  C  C50  1  0.05870000  0.06630000  0.72380000  1
  C  C51  1  0.34250000  0.94130000  0.27620000  1
  C  C52  1  0.48040000  0.48850000  0.54800000  1
  C  C53  1  0.35760000  0.03010000  0.29900000  1
  C  C54  1  0.94050000  0.51960000  0.45200000  1
  C  C55  1  0.96960000  0.38910000  0.50680000  1
  C  C56  1  0.14540000  0.39660000  0.85740000  1
  C  C57  1  0.93190000  0.58470000  0.42940000  1
  C  C58  1  0.11970000  0.07710000  0.80380000  1
  C  C59  1  0.45970000  0.41670000  0.46760000  1
  C  C60  1  0.38220000  0.81930000  0.30480000  1
  C  C61  1  0.39400000  0.90870000  0.32760000  1
  C  C62  1  0.42180000  0.08780000  0.37520000  1
  C  C63  1  0.03280000  0.05530000  0.59600000  1
  C  C64  1  0.87360000  0.88220000  0.27440000  1
  C  C65  1  0.73500000  0.75180000  0.99320000  1
  C  C66  1  0.95460000  0.36930000  0.42620000  1
  C  C67  1  0.94470000  0.43680000  0.40400000  1
  C  C68  1  0.92060000  0.56520000  0.35300000  1
  C  C69  1  0.24820000  0.74180000  0.00680000  1
  C  C70  1  0.58110000  0.60600000  0.67240000  1
  C  C71  1  0.60780000  0.12640000  0.72560000  1
  C  C72  1  0.11780000  0.59920000  0.72560000  1
  C  C73  1  0.09130000  0.06640000  0.67240000  1
  C  C74  1  0.75860000  0.26500000  0.00680000  1
  C  C75  1  0.43240000  0.78780000  0.35300000  1
  C  C76  1  0.45930000  0.96720000  0.40400000  1
  C  C77  1  0.47160000  0.05690000  0.42620000  1
  C  C78  1  0.25820000  0.24140000  0.99320000  1
  C  C79  1  0.40080000  0.39220000  0.27440000  1
  C  C80  1  0.56320000  0.54070000  0.59600000  1
  C  C81  1  0.95340000  0.28740000  0.37520000  1
  C  C82  1  0.93360000  0.41890000  0.32760000  1
  C  C83  1  0.92260000  0.48550000  0.30480000  1
  C  C84  1  0.00790000  0.05090000  0.46760000  1
  C  C85  1  0.68410000  0.72670000  0.80380000  1
  C  C86  1  0.49750000  0.84470000  0.42940000  1
  C  C87  1  0.71200000  0.46080000  0.85740000  1
  C  C88  1  0.53720000  0.11770000  0.50680000  1
  C  C89  1  0.51150000  0.93240000  0.45200000  1
  C  C90  1  0.94140000  0.26890000  0.29900000  1
  C  C91  1  0.06760000  0.05950000  0.54800000  1
  C  C92  1  0.93370000  0.33490000  0.27620000  1
  C  C93  1  0.66510000  0.65750000  0.72380000  1
  C  C94  1  0.91900000  0.46790000  0.22700000  1
  C  C95  1  0.29070000  0.15860000  0.97000000  1
  C  C96  1  0.80980000  0.53130000  0.00740000  1
  C  C97  1  0.45660000  0.33270000  0.29740000  1
  C  C98  1  0.66560000  0.39910000  0.70620000  1
  C  C99  1  0.66730000  0.15920000  0.70260000  1
  C  C100  1  0.26590000  0.09020000  0.89800000  1
  C  C101  1  0.58330000  0.99210000  0.53240000  1
  C  C102  1  0.51010000  0.34100000  0.37080000  1
  C  C103  1  0.92290000  0.31590000  0.19620000  1
  C  C104  1  0.84140000  0.32070000  0.03000000  1
  C  C105  1  0.25680000  0.48340000  0.86000000  1
  C  C106  1  0.79080000  0.49860000  0.92440000  1
  C  C107  1  0.72700000  0.44070000  0.79220000  1
  C  C108  1  0.18070000  0.07740000  0.69520000  1
  C  C109  1  0.26620000  0.33420000  0.84680000  1
  C  C110  1  0.63070000  0.52840000  0.57380000  1
  C  C111  1  0.65900000  0.13930000  0.62920000  1
  C  C112  1  0.24090000  0.08100000  0.77300000  1
  C  C113  1  0.43060000  0.59770000  0.14560000  1
  C  C114  1  0.31300000  0.02810000  0.90960000  1
  C  C115  1  0.90980000  0.36790000  0.10200000  1
  C  C116  1  0.61090000  0.46280000  0.49320000  1
  C  C117  1  0.54510000  0.26870000  0.36120000  1
  C  C118  1  0.43740000  0.51610000  0.14360000  1
  C  C119  1  0.15530000  0.06810000  0.57060000  1
  C  C120  1  0.73110000  0.64240000  0.70100000  1
  C  C121  1  0.21220000  0.07940000  0.64700000  1
  C  C122  1  0.31460000  0.94190000  0.85120000  1
  C  C123  1  0.60650000  0.24610000  0.42100000  1
  C  C124  1  0.71260000  0.57820000  0.62480000  1
  C  C125  1  0.48740000  0.73380000  0.15320000  1
  C  C126  1  0.73130000  0.18390000  0.63880000  1
  C  C127  1  0.34130000  0.49100000  0.85700000  1
  C  C128  1  0.49330000  0.64520000  0.14740000  1
  C  C129  1  0.97190000  0.40340000  0.09040000  1
  C  C130  1  0.35480000  0.34590000  0.85260000  1
  C  C131  1  0.50900000  0.48430000  0.14300000  1
  C  C132  1  0.37250000  0.56260000  0.85640000  1
  C  C133  1  0.51660000  0.39680000  0.14000000  1
  C  C134  1  0.60090000  0.95940000  0.29380000  1
  C  C135  1  0.55930000  0.93480000  0.20780000  1
  C  C136  1  0.38720000  0.42350000  0.85600000  1
  C  C137  1  0.50140000  0.86640000  0.07560000  1
  C  C138  1  0.75390000  0.18550000  0.57900000  1
  C  C139  1  0.53920000  0.85460000  0.14260000  1
  C  C140  1  0.46870000  0.80240000  0.99260000  1
  C  C141  1  0.40230000  0.28500000  0.85440000  1
  C  C142  1  0.05810000  0.46340000  0.14880000  1
  C  C143  1  0.56750000  0.61280000  0.14400000  1
  Cu  Cu144  1  0.89236000  0.29966000  0.76958000  1
  Cu  Cu145  1  0.99018000  0.39503000  0.95600000  1
  Cu  Cu146  1  0.60497000  0.03418000  0.04400000  1
  Cu  Cu147  1  0.70034000  0.12278000  0.23042000  1
  Cu  Cu148  1  0.06871000  0.59128000  0.86578000  1
  Cu  Cu149  1  0.72550000  0.93129000  0.13422000  1
  Cu  Cu150  1  0.40872000  0.20293000  0.13422000  1
  Cu  Cu151  1  0.79707000  0.27450000  0.86578000  1
  Cu  Cu152  1  0.53008000  0.10764000  0.23042000  1
  Cu  Cu153  1  0.43903000  0.00982000  0.04400000  1
  Cu  Cu154  1  0.96582000  0.56097000  0.95600000  1
  Cu  Cu155  1  0.87722000  0.46992000  0.76958000  1
  H  H156  1  0.09270000  0.43840000  0.18140000  1
  H  H157  1  0.66160000  0.95930000  0.31200000  1
  H  H158  1  0.81500000  0.20690000  0.60220000  1
  H  H159  1  0.51580000  0.79470000  0.97920000  1
  H  H160  1  0.08700000  0.47250000  0.12120000  1
  H  H161  1  0.79840000  0.40890000  0.53680000  1
  H  H162  1  0.13130000  0.66310000  0.18100000  1
  H  H163  1  0.47360000  0.61860000  0.85440000  1
  H  H164  1  0.85300000  0.03960000  0.60920000  1
  H  H165  1  0.54180000  0.23670000  0.98480000  1
  H  H166  1  0.53360000  0.13710000  0.95960000  1
  H  H167  1  0.83570000  0.33590000  0.55860000  1
  H  H168  1  0.77730000  0.16430000  0.44140000  1
  H  H169  1  0.39210000  0.57570000  0.66380000  1
  H  H170  1  0.72890000  0.30600000  0.32220000  1
  H  H171  1  0.48210000  0.86870000  0.81900000  1
  H  H172  1  0.72810000  0.38410000  0.30260000  1
  H  H173  1  0.94890000  0.06130000  0.73600000  1
  H  H174  1  0.51590000  0.25080000  0.85740000  1
  H  H175  1  0.52750000  0.96580000  0.87880000  1
  H  H176  1  0.35940000  0.46950000  0.53620000  1
  H  H177  1  0.79310000  0.21280000  0.39780000  1
  H  H178  1  0.87210000  0.20160000  0.46320000  1
  H  H179  1  0.98380000  0.27110000  0.67780000  1
  H  H180  1  0.56160000  0.91130000  0.81860000  1
  H  H181  1  0.17750000  0.46640000  0.04040000  1
  H  H182  1  0.74920000  0.65850000  0.14260000  1
  H  H183  1  0.76420000  0.52640000  0.14560000  1
  H  H184  1  0.32530000  0.05110000  0.26400000  1
  H  H185  1  0.20530000  0.53660000  0.02080000  1
  H  H186  1  0.04070000  0.34960000  0.68800000  1
  H  H187  1  0.93330000  0.64060000  0.46380000  1
  H  H188  1  0.54890000  0.11490000  0.68680000  1
  H  H189  1  0.20120000  0.22920000  0.98800000  1
  H  H190  1  0.34520000  0.37850000  0.27120000  1
  H  H191  1  0.73350000  0.29640000  0.04060000  1
  H  H192  1  0.83070000  0.83910000  0.22420000  1
  H  H193  1  0.70360000  0.69290000  0.95940000  1
  H  H194  1  0.75020000  0.76560000  0.04680000  1
  H  H195  1  0.61490000  0.16930000  0.77580000  1
  H  H196  1  0.88510000  0.86210000  0.31320000  1
  H  H197  1  0.08150000  0.27190000  0.69740000  1
  H  H198  1  0.43040000  0.14700000  0.39080000  1
  H  H199  1  0.24120000  0.79880000  0.01200000  1
  H  H200  1  0.71880000  0.24980000  0.95320000  1
  H  H201  1  0.10730000  0.65480000  0.72880000  1
  H  H202  1  0.91190000  0.60790000  0.33620000  1
  H  H203  1  0.25190000  0.45820000  0.01520000  1
  H  H204  1  0.76330000  0.55700000  0.01520000  1
  H  H205  1  0.42430000  0.72830000  0.33620000  1
  H  H206  1  0.62150000  0.07400000  0.72880000  1
  H  H207  1  0.23440000  0.70340000  0.95320000  1
  H  H208  1  0.77080000  0.21320000  0.01200000  1
  H  H209  1  0.96040000  0.24380000  0.39080000  1
  H  H210  1  0.61590000  0.42550000  0.69740000  1
  H  H211  1  0.42810000  0.45110000  0.31320000  1
  H  H212  1  0.16090000  0.60650000  0.77580000  1
  H  H213  1  0.29660000  0.28120000  0.04680000  1
  H  H214  1  0.25580000  0.26650000  0.95940000  1
  H  H215  1  0.39350000  0.38510000  0.22420000  1
  H  H216  1  0.30710000  0.74420000  0.04060000  1
  H  H217  1  0.92600000  0.89270000  0.27120000  1
  H  H218  1  0.78680000  0.75880000  0.98800000  1
  H  H219  1  0.13790000  0.57190000  0.68680000  1
  H  H220  1  0.53050000  0.82320000  0.46380000  1
  H  H221  1  0.64730000  0.33840000  0.68800000  1
  H  H222  1  0.81550000  0.48420000  0.02080000  1
  H  H223  1  0.93870000  0.21290000  0.26400000  1
  H  H224  1  0.38140000  0.61920000  0.14560000  1
  H  H225  1  0.39340000  0.48410000  0.14260000  1
  H  H226  1  0.86290000  0.57400000  0.04040000  1
  H  H227  1  0.25700000  0.90730000  0.81860000  1
  H  H228  1  0.69400000  0.40670000  0.67780000  1
  H  H229  1  0.59110000  0.26160000  0.46320000  1
  H  H230  1  0.60470000  0.18500000  0.39780000  1
  H  H231  1  0.17680000  0.06670000  0.53620000  1
  H  H232  1  0.35130000  0.91300000  0.87880000  1
  H  H233  1  0.34150000  0.60660000  0.85740000  1
  H  H234  1  0.78710000  0.67470000  0.73600000  1
  H  H235  1  0.57450000  0.91850000  0.30260000  1
  H  H236  1  0.33690000  0.95030000  0.81900000  1
  H  H237  1  0.59330000  0.01620000  0.32220000  1
  H  H238  1  0.27170000  0.08810000  0.66380000  1
  H  H239  1  0.66410000  0.27710000  0.44140000  1
  H  H240  1  0.72290000  0.22270000  0.55860000  1
  H  H241  1  0.42600000  0.82250000  0.95960000  1
  H  H242  1  0.44300000  0.74810000  0.98480000  1
  H  H243  1  0.75620000  0.56960000  0.60920000  1
  H  H244  1  0.38080000  0.23580000  0.85440000  1
  H  H245  1  0.04970000  0.51790000  0.18100000  1
  H  H246  1  0.73840000  0.12790000  0.53680000  1
  H  H247  1  0.03420000  0.64870000  0.12120000  1
  H  H248  1  0.46340000  0.18450000  0.97920000  1
  H  H249  1  0.78720000  0.39530000  0.60220000  1
  H  H250  1  0.65040000  0.35270000  0.31200000  1
  H  H251  1  0.08870000  0.74300000  0.18140000  1
  N  N252  1  0.59450000  0.37090000  0.14460000  1
  N  N253  1  0.60015000  0.14795000  0.09890000  1
  N  N254  1  0.64512000  0.18762000  0.18084000  1
  N  N255  1  0.07330000  0.63570000  0.01320000  1
  N  N256  1  0.93383000  0.48523000  0.71666000  1
  N  N257  1  0.00678000  0.35488000  0.81916000  1
  N  N258  1  0.04905000  0.39985000  0.90110000  1
  N  N259  1  0.76857000  0.06617000  0.28334000  1
  N  N260  1  0.11540000  0.64990000  0.97520000  1
  N  N261  1  0.62250000  0.92670000  0.98680000  1
  N  N262  1  0.01320000  0.53810000  0.75540000  1
  N  N263  1  0.78270000  0.98680000  0.24460000  1
  N  N264  1  0.67470000  0.88460000  0.02480000  1
  N  N265  1  0.26020000  0.79360000  0.17860000  1
  N  N266  1  0.96600000  0.47280000  0.55440000  1
  N  N267  1  0.91840000  0.03400000  0.44560000  1
  N  N268  1  0.62910000  0.44990000  0.85540000  1
  N  N269  1  0.61500000  0.73980000  0.82140000  1
  N  N270  1  0.20640000  0.08160000  0.82140000  1
  N  N271  1  0.22630000  0.40550000  0.85540000  1
  N  N272  1  0.52720000  0.41160000  0.44560000  1
  N  N273  1  0.58840000  0.08160000  0.55440000  1
  N  N274  1  0.91840000  0.38500000  0.17860000  1
  N  N275  1  0.35010000  0.14020000  0.02480000  1
  N  N276  1  0.46190000  0.25780000  0.24460000  1
  N  N277  1  0.74220000  0.21730000  0.75540000  1
  N  N278  1  0.36430000  0.06010000  0.98680000  1
  N  N279  1  0.85980000  0.32530000  0.97520000  1
  N  N280  1  0.51477000  0.21717000  0.28334000  1
  N  N281  1  0.85205000  0.50125000  0.90110000  1
  N  N282  1  0.81238000  0.46428000  0.81916000  1
  N  N283  1  0.78283000  0.23143000  0.71666000  1
  N  N284  1  0.93990000  0.37750000  0.01320000  1
  N  N285  1  0.53572000  0.99322000  0.18084000  1
  N  N286  1  0.49875000  0.95095000  0.09890000  1
  N  N287  1  0.55010000  0.77370000  0.14460000  1
  O  O288  1  0.80501000  0.01541000  0.46842000  1
  O  O289  1  0.47490000  0.70740000  0.79260000  1
  O  O290  1  0.67450000  0.78130000  0.13240000  1
  O  O291  1  0.73290000  0.39520000  0.16480000  1
  O  O292  1  0.22990000  0.90620000  0.14980000  1
  O  O293  1  0.94410000  0.61020000  0.57580000  1
  O  O294  1  0.09380000  0.08010000  0.85020000  1
  O  O295  1  0.38980000  0.36830000  0.42420000  1
  O  O296  1  0.60480000  0.56810000  0.83520000  1
  O  O297  1  0.29260000  0.68230000  0.20740000  1
  O  O298  1  0.64890000  0.32550000  0.86760000  1
  O  O299  1  0.98459000  0.33659000  0.53158000  1
  O  O300  1  0.54699000  0.19499000  0.53158000  1
  O  O301  1  0.21870000  0.54210000  0.86760000  1
  O  O302  1  0.91480000  0.52510000  0.20740000  1
  O  O303  1  0.23040000  0.26710000  0.83520000  1
  O  O304  1  0.03440000  0.05590000  0.42420000  1
  O  O305  1  0.75640000  0.77010000  0.85020000  1
  O  O306  1  0.63170000  0.96560000  0.57580000  1
  O  O307  1  0.91990000  0.24360000  0.14980000  1
  O  O308  1  0.43190000  0.76960000  0.16480000  1
  O  O309  1  0.45790000  0.35110000  0.13240000  1
  O  O310  1  0.31770000  0.08520000  0.79260000  1
  O  O311  1  0.66341000  0.45301000  0.46842000  1
