# generated using pymatgen
data_CuH10C14NO4
_symmetry_space_group_name_H-M   'P 1'
_cell_length_a   14.30980324
_cell_length_b   14.30980324
_cell_length_c   14.30980324
_cell_angle_alpha   108.94485831
_cell_angle_beta   108.94485831
_cell_angle_gamma   110.52915329
_symmetry_Int_Tables_number   1
_chemical_formula_structural   CuH10C14NO4
_chemical_formula_sum   'Cu4 H40 C56 N4 O16'
_cell_volume   2255.11034694
_cell_formula_units_Z   4
loop_
 _symmetry_equiv_pos_site_id
 _symmetry_equiv_pos_as_xyz
  1  'x, y, z'
loop_
 _atom_site_type_symbol
 _atom_site_label
 _atom_site_symmetry_multiplicity
 _atom_site_fract_x
 _atom_site_fract_y
 _atom_site_fract_z
 _atom_site_occupancy
  C  C0  1  0.03920000  0.28280000  0.38560000  1
  C  C1  1  0.35280000  0.46720000  0.25640000  1
  C  C2  1  0.93411000  0.28571000  0.49520000  1
  C  C3  1  0.45949000  0.46429000  0.14840000  1
  C  C4  1  0.71429000  0.06589000  0.50480000  1
  C  C5  1  0.68891000  0.68411000  0.14840000  1
  C  C6  1  0.63590000  0.85300000  0.41510000  1
  C  C7  1  0.81210000  0.89700000  0.28290000  1
  C  C8  1  0.13500000  0.30560000  0.37780000  1
  C  C9  1  0.32220000  0.44440000  0.32940000  1
  C  C10  1  0.04241000  0.31191000  0.48910000  1
  C  C11  1  0.42719000  0.43809000  0.23050000  1
  C  C12  1  0.68809000  0.95759000  0.51090000  1
  C  C13  1  0.80331000  0.79241000  0.23050000  1
  C  C14  1  0.61240000  0.75340000  0.42120000  1
  C  C15  1  0.91780000  0.99660000  0.35900000  1
  C  C16  1  0.24000000  0.35820000  0.47260000  1
  C  C17  1  0.36440000  0.39180000  0.38180000  1
  C  C18  1  0.14700000  0.36410000  0.58490000  1
  C  C19  1  0.47080000  0.38590000  0.28290000  1
  C  C20  1  0.71720000  0.96080000  0.61440000  1
  C  C21  1  0.90360000  0.78920000  0.25640000  1
  C  C22  1  0.64180000  0.76000000  0.52740000  1
  C  C23  1  0.01740000  0.99000000  0.38180000  1
  C  C24  1  0.24660000  0.38760000  0.57880000  1
  C  C25  1  0.44120000  0.36240000  0.35900000  1
  C  C26  1  0.69440000  0.86500000  0.62220000  1
  C  C27  1  0.00720000  0.88500000  0.32940000  1
  C  C28  1  0.55560000  0.67780000  0.67060000  1
  C  C29  1  0.24280000  0.07220000  0.37780000  1
  C  C30  1  0.00340000  0.08220000  0.64100000  1
  C  C31  1  0.80880000  0.66780000  0.42120000  1
  C  C32  1  0.60820000  0.63560000  0.61820000  1
  C  C33  1  0.23260000  0.11440000  0.47260000  1
  C  C34  1  0.53280000  0.64720000  0.74360000  1
  C  C35  1  0.34640000  0.10280000  0.38560000  1
  C  C36  1  0.10300000  0.18790000  0.71710000  1
  C  C37  1  0.77920000  0.56210000  0.41510000  1
  C  C38  1  0.01000000  0.98260000  0.61820000  1
  C  C39  1  0.88560000  0.76740000  0.52740000  1
  C  C40  1  0.63760000  0.55880000  0.64100000  1
  C  C41  1  0.33220000  0.19120000  0.57880000  1
  C  C42  1  0.56191000  0.57281000  0.76950000  1
  C  C43  1  0.44669000  0.17719000  0.48910000  1
  C  C44  1  0.20759000  0.19669000  0.76950000  1
  C  C45  1  0.82281000  0.55331000  0.51090000  1
  C  C46  1  0.11500000  0.99280000  0.67060000  1
  C  C47  1  0.92780000  0.75720000  0.62220000  1
  C  C48  1  0.61410000  0.52920000  0.71710000  1
  C  C49  1  0.43790000  0.22080000  0.58490000  1
  C  C50  1  0.53571000  0.54051000  0.85160000  1
  C  C51  1  0.56109000  0.20949000  0.49520000  1
  C  C52  1  0.31589000  0.31109000  0.85160000  1
  C  C53  1  0.79051000  0.43891000  0.50480000  1
  C  C54  1  0.21080000  0.09640000  0.74360000  1
  C  C55  1  0.89720000  0.65360000  0.61440000  1
  Cu  Cu56  1  0.55587000  0.44413000  1.00000000  1
  Cu  Cu57  1  0.80587000  0.30587000  0.61174000  1
  Cu  Cu58  1  0.69413000  0.19413000  0.38826000  1
  Cu  Cu59  1  0.44413000  0.55587000  1.00000000  1
  H  H60  1  0.96920000  0.24650000  0.31990000  1
  H  H61  1  0.32340000  0.50350000  0.22270000  1
  H  H62  1  0.61610000  0.84930000  0.34480000  1
  H  H63  1  0.74550000  0.90070000  0.26680000  1
  H  H64  1  0.27160000  0.46460000  0.34480000  1
  H  H65  1  0.13020000  0.28540000  0.30700000  1
  H  H66  1  0.92260000  0.06660000  0.39420000  1
  H  H67  1  0.57760000  0.68340000  0.35600000  1
  H  H68  1  0.75350000  0.03080000  0.68010000  1
  H  H69  1  0.89930000  0.71920000  0.22270000  1
  H  H70  1  0.15070000  0.38390000  0.65520000  1
  H  H71  1  0.52130000  0.36610000  0.26680000  1
  H  H72  1  0.11660000  0.15150000  0.46530000  1
  H  H73  1  0.56380000  0.59850000  0.46510000  1
  H  H74  1  0.93340000  0.07740000  0.60580000  1
  H  H75  1  0.77840000  0.67260000  0.35600000  1
  H  H76  1  0.53540000  0.72840000  0.65520000  1
  H  H77  1  0.17680000  0.02160000  0.30700000  1
  H  H78  1  0.84850000  0.88340000  0.53470000  1
  H  H79  1  0.90130000  0.86660000  0.46510000  1
  H  H80  1  0.40150000  0.43620000  0.53490000  1
  H  H81  1  0.34870000  0.31380000  0.46530000  1
  H  H82  1  0.71460000  0.86980000  0.69300000  1
  H  H83  1  0.07320000  0.88020000  0.34480000  1
  H  H84  1  0.31660000  0.42240000  0.64400000  1
  H  H85  1  0.47160000  0.32760000  0.39420000  1
  H  H86  1  0.13340000  0.09870000  0.53490000  1
  H  H87  1  0.68620000  0.65130000  0.53470000  1
  H  H88  1  0.09930000  0.25450000  0.73320000  1
  H  H89  1  0.72870000  0.49550000  0.34480000  1
  H  H90  1  0.49650000  0.67660000  0.77730000  1
  H  H91  1  0.35070000  0.07340000  0.31990000  1
  H  H92  1  0.32740000  0.22160000  0.64400000  1
  H  H93  1  0.67240000  0.52840000  0.60580000  1
  H  H94  1  0.97840000  0.82320000  0.69300000  1
  H  H95  1  0.11980000  0.92680000  0.65520000  1
  H  H96  1  0.63390000  0.47870000  0.73320000  1
  H  H97  1  0.50450000  0.27130000  0.65520000  1
  H  H98  1  0.28080000  0.10070000  0.77730000  1
  H  H99  1  0.92660000  0.64930000  0.68010000  1
  N  N100  1  0.34260000  0.37500000  0.46760000  1
  N  N101  1  0.62500000  0.65740000  0.53240000  1
  N  N102  1  0.12500000  0.09260000  0.46760000  1
  N  N103  1  0.90740000  0.87500000  0.53240000  1
  O  O104  1  0.84336000  0.23162000  0.40218000  1
  O  O105  1  0.42056000  0.51838000  0.11174000  1
  O  O106  1  0.68174000  0.05981000  0.40949000  1
  O  O107  1  0.59968000  0.69019000  0.12193000  1
  O  O108  1  0.76838000  0.15664000  0.59782000  1
  O  O109  1  0.69118000  0.59336000  0.11174000  1
  O  O110  1  0.94019000  0.31826000  0.59051000  1
  O  O111  1  0.52225000  0.43174000  0.12193000  1
  O  O112  1  0.30981000  0.40032000  0.87807000  1
  O  O113  1  0.72775000  0.34968000  0.40949000  1
  O  O114  1  0.48162000  0.57944000  0.88826000  1
  O  O115  1  0.55882000  0.17056000  0.40218000  1
  O  O116  1  0.56826000  0.47775000  0.87807000  1
  O  O117  1  0.65032000  0.27225000  0.59051000  1
  O  O118  1  0.40664000  0.30882000  0.88826000  1
  O  O119  1  0.82944000  0.44118000  0.59782000  1
