# generated using pymatgen
data_PrPH11C7NO5
_symmetry_space_group_name_H-M   'P 1'
_cell_length_a   5.60680000
_cell_length_b   13.38200000
_cell_length_c   21.19200000
_cell_angle_alpha   90.00000000
_cell_angle_beta   95.89200000
_cell_angle_gamma   90.00000000
_symmetry_Int_Tables_number   1
_chemical_formula_structural   PrPH11C7NO5
_chemical_formula_sum   'Pr4 P4 H44 C28 N4 O20'
_cell_volume   1581.64002085
_cell_formula_units_Z   4
loop_
 _symmetry_equiv_pos_site_id
 _symmetry_equiv_pos_as_xyz
  1  'x, y, z'
loop_
 _atom_site_type_symbol
 _atom_site_label
 _atom_site_symmetry_multiplicity
 _atom_site_fract_x
 _atom_site_fract_y
 _atom_site_fract_z
 _atom_site_occupancy
  Pr  Pr0  1  0.37031000  0.63596000  0.52895000  1
  Pr  Pr1  1  0.37031000  0.86404000  0.02895000  1
  Pr  Pr2  1  0.62969000  0.13596000  0.97105000  1
  Pr  Pr3  1  0.62969000  0.36404000  0.47105000  1
  P  P4  1  0.08960000  0.52303000  0.41339000  1
  P  P5  1  0.08960000  0.97697000  0.91339000  1
  P  P6  1  0.91040000  0.02303000  0.08661000  1
  P  P7  1  0.91040000  0.47697000  0.58661000  1
  H  H8  1  0.00520000  0.74320000  0.67860000  1
  H  H9  1  0.00520000  0.75680000  0.17860000  1
  H  H10  1  0.02630000  0.10060000  0.37060000  1
  H  H11  1  0.02630000  0.39940000  0.87060000  1
  H  H12  1  0.08550000  0.19770000  0.16130000  1
  H  H13  1  0.08550000  0.30230000  0.66130000  1
  H  H14  1  0.11910000  0.72550000  0.29650000  1
  H  H15  1  0.11910000  0.77450000  0.79650000  1
  H  H16  1  0.11970000  0.00100000  0.71420000  1
  H  H17  1  0.11970000  0.49900000  0.21420000  1
  H  H18  1  0.23570000  0.07020000  0.33070000  1
  H  H19  1  0.23570000  0.42980000  0.83070000  1
  H  H20  1  0.24200000  0.60440000  0.22040000  1
  H  H21  1  0.24200000  0.89560000  0.72040000  1
  H  H22  1  0.24250000  0.19780000  0.74570000  1
  H  H23  1  0.24250000  0.30220000  0.24570000  1
  H  H24  1  0.24310000  0.02400000  0.82040000  1
  H  H25  1  0.24310000  0.47600000  0.32040000  1
  H  H26  1  0.32730000  0.58440000  0.33900000  1
  H  H27  1  0.32730000  0.91560000  0.83900000  1
  H  H28  1  0.37040000  0.19790000  0.25140000  1
  H  H29  1  0.37040000  0.30210000  0.75140000  1
  H  H30  1  0.62960000  0.69790000  0.24860000  1
  H  H31  1  0.62960000  0.80210000  0.74860000  1
  H  H32  1  0.67270000  0.08440000  0.16100000  1
  H  H33  1  0.67270000  0.41560000  0.66100000  1
  H  H34  1  0.75690000  0.52400000  0.67960000  1
  H  H35  1  0.75690000  0.97600000  0.17960000  1
  H  H36  1  0.75750000  0.69780000  0.75430000  1
  H  H37  1  0.75750000  0.80220000  0.25430000  1
  H  H38  1  0.75800000  0.10440000  0.27960000  1
  H  H39  1  0.75800000  0.39560000  0.77960000  1
  H  H40  1  0.76430000  0.57020000  0.16930000  1
  H  H41  1  0.76430000  0.92980000  0.66930000  1
  H  H42  1  0.88030000  0.50100000  0.78580000  1
  H  H43  1  0.88030000  0.99900000  0.28580000  1
  H  H44  1  0.88090000  0.22550000  0.20350000  1
  H  H45  1  0.88090000  0.27450000  0.70350000  1
  H  H46  1  0.91450000  0.69770000  0.33870000  1
  H  H47  1  0.91450000  0.80230000  0.83870000  1
  H  H48  1  0.97370000  0.60060000  0.12940000  1
  H  H49  1  0.97370000  0.89940000  0.62940000  1
  H  H50  1  0.99480000  0.24320000  0.82140000  1
  H  H51  1  0.99480000  0.25680000  0.32140000  1
  C  C52  1  0.03000000  0.18920000  0.20280000  1
  C  C53  1  0.03000000  0.31080000  0.70280000  1
  C  C54  1  0.08880000  0.10870000  0.32990000  1
  C  C55  1  0.08880000  0.39130000  0.82990000  1
  C  C56  1  0.09140000  0.56930000  0.22180000  1
  C  C57  1  0.09140000  0.93070000  0.72180000  1
  C  C58  1  0.14450000  0.21950000  0.31970000  1
  C  C59  1  0.14450000  0.28050000  0.81970000  1
  C  C60  1  0.18950000  0.54020000  0.33490000  1
  C  C61  1  0.18950000  0.95980000  0.83490000  1
  C  C62  1  0.21900000  0.23180000  0.25390000  1
  C  C63  1  0.21900000  0.26820000  0.75390000  1
  C  C64  1  0.32570000  0.23830000  0.87040000  1
  C  C65  1  0.32570000  0.26170000  0.37040000  1
  C  C66  1  0.67430000  0.73830000  0.62960000  1
  C  C67  1  0.67430000  0.76170000  0.12960000  1
  C  C68  1  0.78100000  0.73180000  0.24610000  1
  C  C69  1  0.78100000  0.76820000  0.74610000  1
  C  C70  1  0.81050000  0.04020000  0.16510000  1
  C  C71  1  0.81050000  0.45980000  0.66510000  1
  C  C72  1  0.85550000  0.71950000  0.18030000  1
  C  C73  1  0.85550000  0.78050000  0.68030000  1
  C  C74  1  0.90860000  0.06930000  0.27820000  1
  C  C75  1  0.90860000  0.43070000  0.77820000  1
  C  C76  1  0.91120000  0.60870000  0.17010000  1
  C  C77  1  0.91120000  0.89130000  0.67010000  1
  C  C78  1  0.97000000  0.68920000  0.29720000  1
  C  C79  1  0.97000000  0.81080000  0.79720000  1
  N  N80  1  0.01030000  0.58130000  0.28530000  1
  N  N81  1  0.01030000  0.91870000  0.78530000  1
  N  N82  1  0.98970000  0.08130000  0.21470000  1
  N  N83  1  0.98970000  0.41870000  0.71470000  1
  O  O84  1  0.03840000  0.62310000  0.44260000  1
  O  O85  1  0.03840000  0.87690000  0.94260000  1
  O  O86  1  0.12010000  0.54750000  0.59260000  1
  O  O87  1  0.12010000  0.95250000  0.09260000  1
  O  O88  1  0.30190000  0.24300000  0.42820000  1
  O  O89  1  0.30190000  0.25700000  0.92820000  1
  O  O90  1  0.31430000  0.01740000  0.95300000  1
  O  O91  1  0.31430000  0.48260000  0.45300000  1
  O  O92  1  0.49490000  0.18520000  0.85680000  1
  O  O93  1  0.49490000  0.31480000  0.35680000  1
  O  O94  1  0.50510000  0.68520000  0.64320000  1
  O  O95  1  0.50510000  0.81480000  0.14320000  1
  O  O96  1  0.68570000  0.51740000  0.54700000  1
  O  O97  1  0.68570000  0.98260000  0.04700000  1
  O  O98  1  0.69810000  0.74300000  0.07180000  1
  O  O99  1  0.69810000  0.75700000  0.57180000  1
  O  O100  1  0.87990000  0.04750000  0.90740000  1
  O  O101  1  0.87990000  0.45250000  0.40740000  1
  O  O102  1  0.96160000  0.12310000  0.05740000  1
  O  O103  1  0.96160000  0.37690000  0.55740000  1
