# generated using pymatgen
data_NdH12C9(SO2)3
_symmetry_space_group_name_H-M   'P 1'
_cell_length_a   9.14000000
_cell_length_b   11.15380000
_cell_length_c   11.27160000
_cell_angle_alpha   77.26100000
_cell_angle_beta   68.45300000
_cell_angle_gamma   78.84300000
_symmetry_Int_Tables_number   1
_chemical_formula_structural   NdH12C9(SO2)3
_chemical_formula_sum   'Nd2 H24 C18 S6 O12'
_cell_volume   1034.43241759
_cell_formula_units_Z   2
loop_
 _symmetry_equiv_pos_site_id
 _symmetry_equiv_pos_as_xyz
  1  'x, y, z'
loop_
 _atom_site_type_symbol
 _atom_site_label
 _atom_site_symmetry_multiplicity
 _atom_site_fract_x
 _atom_site_fract_y
 _atom_site_fract_z
 _atom_site_occupancy
  Nd  Nd0  1  0.26937000  0.98209000  0.98065000  1
  Nd  Nd1  1  0.73063000  0.01791000  0.01935000  1
  H  H2  1  0.03080000  0.68800000  0.78070000  1
  H  H3  1  0.05370000  0.05670000  0.63030000  1
  H  H4  1  0.07920000  0.09200000  0.48250000  1
  H  H5  1  0.08400000  0.34130000  0.73590000  1
  H  H6  1  0.10550000  0.27540000  0.27760000  1
  H  H7  1  0.12450000  0.41820000  0.93360000  1
  H  H8  1  0.13540000  0.55830000  0.92660000  1
  H  H9  1  0.20980000  0.96500000  0.33960000  1
  H  H10  1  0.21490000  0.22750000  0.70930000  1
  H  H11  1  0.26290000  0.82330000  0.33850000  1
  H  H12  1  0.32710000  0.04700000  0.58620000  1
  H  H13  1  0.35390000  0.08520000  0.43780000  1
  H  H14  1  0.64610000  0.91480000  0.56220000  1
  H  H15  1  0.67290000  0.95300000  0.41380000  1
  H  H16  1  0.73710000  0.17670000  0.66150000  1
  H  H17  1  0.78510000  0.77250000  0.29070000  1
  H  H18  1  0.79020000  0.03500000  0.66040000  1
  H  H19  1  0.86460000  0.44170000  0.07340000  1
  H  H20  1  0.87550000  0.58180000  0.06640000  1
  H  H21  1  0.89450000  0.72460000  0.72240000  1
  H  H22  1  0.91600000  0.65870000  0.26410000  1
  H  H23  1  0.92080000  0.90800000  0.51750000  1
  H  H24  1  0.94630000  0.94330000  0.36970000  1
  H  H25  1  0.96920000  0.31200000  0.21930000  1
  C  C26  1  0.00090000  0.82300000  0.17180000  1
  C  C27  1  0.08340000  0.30080000  0.19720000  1
  C  C28  1  0.08730000  0.48640000  0.98210000  1
  C  C29  1  0.10560000  0.25780000  0.71660000  1
  C  C30  1  0.11720000  0.10150000  0.54940000  1
  C  C31  1  0.15120000  0.19460000  0.11950000  1
  C  C32  1  0.28860000  0.04120000  0.51840000  1
  C  C33  1  0.29380000  0.89880000  0.34660000  1
  C  C34  1  0.44250000  0.92710000  0.23350000  1
  C  C35  1  0.55750000  0.07290000  0.76650000  1
  C  C36  1  0.70620000  0.10120000  0.65340000  1
  C  C37  1  0.71140000  0.95880000  0.48160000  1
  C  C38  1  0.84880000  0.80540000  0.88050000  1
  C  C39  1  0.88280000  0.89850000  0.45060000  1
  C  C40  1  0.89440000  0.74220000  0.28340000  1
  C  C41  1  0.91270000  0.51360000  0.01790000  1
  C  C42  1  0.91660000  0.69920000  0.80280000  1
  C  C43  1  0.99910000  0.17700000  0.82820000  1
  S  S44  1  0.08355000  0.26390000  0.56258000  1
  S  S45  1  0.15140000  0.44608000  0.12460000  1
  S  S46  1  0.30501000  0.88019000  0.50477000  1
  S  S47  1  0.69499000  0.11981000  0.49523000  1
  S  S48  1  0.84860000  0.55392000  0.87540000  1
  S  S49  1  0.91645000  0.73610000  0.43742000  1
  O  O50  1  0.05840000  0.10400000  0.90600000  1
  O  O51  1  0.08510000  0.09640000  0.16550000  1
  O  O52  1  0.14430000  0.81700000  0.15780000  1
  O  O53  1  0.26650000  0.20420000  0.01550000  1
  O  O54  1  0.42870000  0.07200000  0.75280000  1
  O  O55  1  0.42970000  0.95360000  0.12190000  1
  O  O56  1  0.57030000  0.04640000  0.87810000  1
  O  O57  1  0.57130000  0.92800000  0.24720000  1
  O  O58  1  0.73350000  0.79580000  0.98450000  1
  O  O59  1  0.85570000  0.18300000  0.84220000  1
  O  O60  1  0.91490000  0.90360000  0.83450000  1
  O  O61  1  0.94160000  0.89600000  0.09400000  1
