# generated using pymatgen
data_DyH32C40(NO)8
_symmetry_space_group_name_H-M   'P 1'
_cell_length_a   24.02400000
_cell_length_b   24.18760000
_cell_length_c   24.39900000
_cell_angle_alpha   84.06700000
_cell_angle_beta   61.94300000
_cell_angle_gamma   61.65100000
_symmetry_Int_Tables_number   1
_chemical_formula_structural   DyH32C40(NO)8
_chemical_formula_sum   'Dy6 H192 C240 N48 O48'
_cell_volume   10878.98116045
_cell_formula_units_Z   6
loop_
 _symmetry_equiv_pos_site_id
 _symmetry_equiv_pos_as_xyz
  1  'x, y, z'
loop_
 _atom_site_type_symbol
 _atom_site_label
 _atom_site_symmetry_multiplicity
 _atom_site_fract_x
 _atom_site_fract_y
 _atom_site_fract_z
 _atom_site_occupancy
  Dy  Dy0  1  0.15484000  0.28278000  0.63957000  1
  Dy  Dy1  1  0.25722000  0.72024000  0.76847000  1
  Dy  Dy2  1  0.35131000  0.85629000  0.20968000  1
  Dy  Dy3  1  0.64869000  0.14371000  0.79032000  1
  Dy  Dy4  1  0.74278000  0.27976000  0.23153000  1
  Dy  Dy5  1  0.84516000  0.71722000  0.36043000  1
  H  H6  1  0.00180000  0.46020000  0.66020000  1
  H  H7  1  0.00340000  0.17180000  0.61290000  1
  H  H8  1  0.01750000  0.81660000  0.02780000  1
  H  H9  1  0.03320000  0.62760000  0.19000000  1
  H  H10  1  0.03500000  0.82870000  0.69000000  1
  H  H11  1  0.03820000  0.45940000  0.74720000  1
  H  H12  1  0.04860000  0.07300000  0.32370000  1
  H  H13  1  0.05060000  0.06280000  0.15090000  1
  H  H14  1  0.05720000  0.55030000  0.75120000  1
  H  H15  1  0.06020000  0.63480000  0.30130000  1
  H  H16  1  0.06330000  0.18950000  0.88520000  1
  H  H17  1  0.06530000  0.48720000  0.39780000  1
  H  H18  1  0.06530000  0.89870000  0.83520000  1
  H  H19  1  0.06860000  0.86170000  0.36270000  1
  H  H20  1  0.06970000  0.82700000  0.92190000  1
  H  H21  1  0.08130000  0.61570000  0.77610000  1
  H  H22  1  0.08190000  0.21030000  0.56870000  1
  H  H23  1  0.08220000  0.63400000  0.98740000  1
  H  H24  1  0.08600000  0.62780000  0.08050000  1
  H  H25  1  0.08790000  0.15940000  0.69530000  1
  H  H26  1  0.10520000  0.19050000  0.77950000  1
  H  H27  1  0.11080000  0.06430000  0.73740000  1
  H  H28  1  0.11340000  0.43880000  0.44360000  1
  H  H29  1  0.11380000  0.69650000  0.76110000  1
  H  H30  1  0.12720000  0.91690000  0.31460000  1
  H  H31  1  0.14290000  0.67800000  0.25040000  1
  H  H32  1  0.14400000  0.63780000  0.86980000  1
  H  H33  1  0.14570000  0.26270000  0.48280000  1
  H  H34  1  0.14860000  0.78970000  0.68270000  1
  H  H35  1  0.15070000  0.00130000  0.80290000  1
  H  H36  1  0.15770000  0.07020000  0.13810000  1
  H  H37  1  0.16420000  0.01240000  0.31950000  1
  H  H38  1  0.16580000  0.17740000  0.43270000  1
  H  H39  1  0.17380000  0.82410000  0.93360000  1
  H  H40  1  0.17650000  0.90140000  0.83870000  1
  H  H41  1  0.17760000  0.38020000  0.49730000  1
  H  H42  1  0.17930000  0.25970000  0.79190000  1
  H  H43  1  0.18740000  0.05920000  0.44620000  1
  H  H44  1  0.19710000  0.73050000  0.20870000  1
  H  H45  1  0.20770000  0.84470000  0.48510000  1
  H  H46  1  0.20860000  0.86560000  0.98580000  1
  H  H47  1  0.20940000  0.85820000  0.39090000  1
  H  H48  1  0.21760000  0.96700000  0.39060000  1
  H  H49  1  0.22290000  0.88430000  0.05270000  1
  H  H50  1  0.23570000  0.84800000  0.55380000  1
  H  H51  1  0.24420000  0.33950000  0.71330000  1
  H  H52  1  0.24680000  0.38540000  0.57260000  1
  H  H53  1  0.25170000  0.92150000  0.11400000  1
  H  H54  1  0.25370000  0.82780000  0.64650000  1
  H  H55  1  0.25680000  0.26200000  0.82100000  1
  H  H56  1  0.26120000  0.59090000  0.89560000  1
  H  H57  1  0.26460000  0.01090000  0.14010000  1
  H  H58  1  0.26480000  0.77960000  0.16560000  1
  H  H59  1  0.26550000  0.42570000  0.69190000  1
  H  H60  1  0.28790000  0.49490000  0.65220000  1
  H  H61  1  0.29680000  0.09350000  0.57580000  1
  H  H62  1  0.31270000  0.57990000  0.64430000  1
  H  H63  1  0.32220000  0.00300000  0.61750000  1
  H  H64  1  0.32750000  0.16600000  0.48800000  1
  H  H65  1  0.32820000  0.40220000  0.48190000  1
  H  H66  1  0.33700000  0.90780000  0.64260000  1
  H  H67  1  0.33730000  0.13920000  0.63670000  1
  H  H68  1  0.34100000  0.23940000  0.84770000  1
  H  H69  1  0.34510000  0.50150000  0.91320000  1
  H  H70  1  0.35820000  0.69060000  0.21900000  1
  H  H71  1  0.36060000  0.81480000  0.68100000  1
  H  H72  1  0.36290000  0.08460000  0.41880000  1
  H  H73  1  0.36570000  0.66120000  0.86720000  1
  H  H74  1  0.38090000  0.03770000  0.32380000  1
  H  H75  1  0.38140000  0.00200000  0.18200000  1
  H  H76  1  0.38240000  0.19450000  0.52530000  1
  H  H77  1  0.38490000  0.65980000  0.48280000  1
  H  H78  1  0.38860000  0.53430000  0.70990000  1
  H  H79  1  0.39190000  0.70950000  0.92650000  1
  H  H80  1  0.39620000  0.39530000  0.91460000  1
  H  H81  1  0.39740000  0.71120000  0.29940000  1
  H  H82  1  0.40420000  0.06030000  0.09320000  1
  H  H83  1  0.40730000  0.65060000  0.56850000  1
  H  H84  1  0.40880000  0.69400000  0.39160000  1
  H  H85  1  0.41510000  0.93640000  0.27120000  1
  H  H86  1  0.41900000  0.73660000  0.75580000  1
  H  H87  1  0.42630000  0.24580000  0.86200000  1
  H  H88  1  0.42910000  0.14580000  0.65460000  1
  H  H89  1  0.43000000  0.81090000  0.31550000  1
  H  H90  1  0.43030000  0.10630000  0.02200000  1
  H  H91  1  0.43490000  0.76030000  0.94540000  1
  H  H92  1  0.43850000  0.58790000  0.22950000  1
  H  H93  1  0.44360000  0.39830000  0.43510000  1
  H  H94  1  0.45790000  0.79770000  0.01600000  1
  H  H95  1  0.46300000  0.15850000  0.92970000  1
  H  H96  1  0.46550000  0.20930000  0.43490000  1
  H  H97  1  0.47450000  0.29600000  0.92050000  1
  H  H98  1  0.47470000  0.58350000  0.64580000  1
  H  H99  1  0.48140000  0.18230000  0.66180000  1
  H  H100  1  0.48180000  0.45130000  0.72750000  1
  H  H101  1  0.48780000  0.24780000  0.33400000  1
  H  H102  1  0.51220000  0.75220000  0.66600000  1
  H  H103  1  0.51820000  0.54870000  0.27250000  1
  H  H104  1  0.51860000  0.81770000  0.33820000  1
  H  H105  1  0.52530000  0.41650000  0.35420000  1
  H  H106  1  0.52550000  0.70400000  0.07950000  1
  H  H107  1  0.53450000  0.79070000  0.56510000  1
  H  H108  1  0.53700000  0.84150000  0.07030000  1
  H  H109  1  0.54210000  0.20230000  0.98400000  1
  H  H110  1  0.55640000  0.60170000  0.56490000  1
  H  H111  1  0.56150000  0.41210000  0.77050000  1
  H  H112  1  0.56510000  0.23970000  0.05460000  1
  H  H113  1  0.56970000  0.89370000  0.97800000  1
  H  H114  1  0.57000000  0.18910000  0.68450000  1
  H  H115  1  0.57090000  0.85420000  0.34540000  1
  H  H116  1  0.57370000  0.75420000  0.13800000  1
  H  H117  1  0.58100000  0.26340000  0.24420000  1
  H  H118  1  0.58490000  0.06360000  0.72880000  1
  H  H119  1  0.59120000  0.30600000  0.60840000  1
  H  H120  1  0.59270000  0.34940000  0.43150000  1
  H  H121  1  0.59580000  0.93970000  0.90680000  1
  H  H122  1  0.60260000  0.28880000  0.70060000  1
  H  H123  1  0.60380000  0.60470000  0.08540000  1
  H  H124  1  0.60810000  0.29050000  0.07350000  1
  H  H125  1  0.61140000  0.46570000  0.29010000  1
  H  H126  1  0.61510000  0.34020000  0.51720000  1
  H  H127  1  0.61760000  0.80550000  0.47470000  1
  H  H128  1  0.61860000  0.99800000  0.81800000  1
  H  H129  1  0.61910000  0.96230000  0.67620000  1
  H  H130  1  0.63430000  0.33880000  0.13280000  1
  H  H131  1  0.63710000  0.91540000  0.58120000  1
  H  H132  1  0.63940000  0.18520000  0.31900000  1
  H  H133  1  0.64180000  0.30940000  0.78100000  1
  H  H134  1  0.65490000  0.49850000  0.08680000  1
  H  H135  1  0.65900000  0.76060000  0.15230000  1
  H  H136  1  0.66270000  0.86080000  0.36330000  1
  H  H137  1  0.66300000  0.09220000  0.35740000  1
  H  H138  1  0.67180000  0.59780000  0.51810000  1
  H  H139  1  0.67250000  0.83400000  0.51200000  1
  H  H140  1  0.67780000  0.99700000  0.38250000  1
  H  H141  1  0.68730000  0.42010000  0.35570000  1
  H  H142  1  0.70320000  0.90650000  0.42420000  1
  H  H143  1  0.71210000  0.50510000  0.34780000  1
  H  H144  1  0.73450000  0.57430000  0.30810000  1
  H  H145  1  0.73520000  0.22040000  0.83440000  1
  H  H146  1  0.73540000  0.98910000  0.85990000  1
  H  H147  1  0.73880000  0.40910000  0.10440000  1
  H  H148  1  0.74320000  0.73800000  0.17900000  1
  H  H149  1  0.74630000  0.17220000  0.35350000  1
  H  H150  1  0.74830000  0.07850000  0.88600000  1
  H  H151  1  0.75320000  0.61460000  0.42740000  1
  H  H152  1  0.75580000  0.66050000  0.28670000  1
  H  H153  1  0.76430000  0.15200000  0.44620000  1
  H  H154  1  0.77710000  0.11570000  0.94730000  1
  H  H155  1  0.78240000  0.03300000  0.60940000  1
  H  H156  1  0.79060000  0.14180000  0.60910000  1
  H  H157  1  0.79140000  0.13440000  0.01420000  1
  H  H158  1  0.79230000  0.15530000  0.51490000  1
  H  H159  1  0.80290000  0.26950000  0.79130000  1
  H  H160  1  0.81260000  0.94080000  0.55380000  1
  H  H161  1  0.82070000  0.74030000  0.20810000  1
  H  H162  1  0.82240000  0.61980000  0.50270000  1
  H  H163  1  0.82350000  0.09860000  0.16130000  1
  H  H164  1  0.82620000  0.17590000  0.06640000  1
  H  H165  1  0.83420000  0.82260000  0.56730000  1
  H  H166  1  0.83580000  0.98760000  0.68050000  1
  H  H167  1  0.84230000  0.92980000  0.86190000  1
  H  H168  1  0.84930000  0.99870000  0.19710000  1
  H  H169  1  0.85140000  0.21030000  0.31730000  1
  H  H170  1  0.85430000  0.73730000  0.51720000  1
  H  H171  1  0.85600000  0.36220000  0.13020000  1
  H  H172  1  0.85710000  0.32200000  0.74960000  1
  H  H173  1  0.87280000  0.08310000  0.68540000  1
  H  H174  1  0.88620000  0.30350000  0.23890000  1
  H  H175  1  0.88660000  0.56120000  0.55640000  1
  H  H176  1  0.88920000  0.93570000  0.26260000  1
  H  H177  1  0.89480000  0.80950000  0.22050000  1
  H  H178  1  0.91210000  0.84060000  0.30470000  1
  H  H179  1  0.91400000  0.37220000  0.91950000  1
  H  H180  1  0.91780000  0.36600000  0.01260000  1
  H  H181  1  0.91810000  0.78970000  0.43130000  1
  H  H182  1  0.91870000  0.38430000  0.22390000  1
  H  H183  1  0.93030000  0.17300000  0.07810000  1
  H  H184  1  0.93140000  0.13830000  0.63730000  1
  H  H185  1  0.93470000  0.10130000  0.16480000  1
  H  H186  1  0.93470000  0.51280000  0.60220000  1
  H  H187  1  0.93670000  0.81050000  0.11480000  1
  H  H188  1  0.93980000  0.36520000  0.69870000  1
  H  H189  1  0.94280000  0.44970000  0.24880000  1
  H  H190  1  0.94940000  0.93720000  0.84910000  1
  H  H191  1  0.95140000  0.92700000  0.67630000  1
  H  H192  1  0.96180000  0.54060000  0.25280000  1
  H  H193  1  0.96500000  0.17130000  0.31000000  1
  H  H194  1  0.96680000  0.37240000  0.81000000  1
  H  H195  1  0.98250000  0.18340000  0.97220000  1
  H  H196  1  0.99660000  0.82820000  0.38710000  1
  H  H197  1  0.99820000  0.53980000  0.33980000  1
  C  C198  1  0.00990000  0.09220000  0.18730000  1
  C  C199  1  0.01110000  0.78810000  0.36790000  1
  C  C200  1  0.01270000  0.71920000  0.08490000  1
  C  C201  1  0.01430000  0.51270000  0.41990000  1
  C  C202  1  0.01500000  0.66610000  0.17420000  1
  C  C203  1  0.01940000  0.11030000  0.23250000  1
  C  C204  1  0.02170000  0.48160000  0.51630000  1
  C  C205  1  0.02500000  0.45420000  0.61600000  1
  C  C206  1  0.03690000  0.23340000  0.60540000  1
  C  C207  1  0.03880000  0.84500000  0.72110000  1
  C  C208  1  0.04160000  0.22820000  0.87120000  1
  C  C209  1  0.04260000  0.78020000  0.99730000  1
  C  C210  1  0.04470000  0.66510000  0.10840000  1
  C  C211  1  0.04600000  0.72400000  0.01930000  1
  C  C212  1  0.04720000  0.67580000  0.31720000  1
  C  C213  1  0.05950000  0.88320000  0.80520000  1
  C  C214  1  0.06620000  0.22830000  0.80800000  1
  C  C215  1  0.07260000  0.78760000  0.93460000  1
  C  C216  1  0.07500000  0.76040000  0.31900000  1
  C  C217  1  0.08080000  0.67270000  0.97380000  1
  C  C218  1  0.08420000  0.45290000  0.73790000  1
  C  C219  1  0.08820000  0.44400000  0.48820000  1
  C  C220  1  0.08860000  0.07630000  0.23140000  1
  C  C221  1  0.09160000  0.06050000  0.28470000  1
  C  C222  1  0.09450000  0.50730000  0.73880000  1
  C  C223  1  0.09800000  0.70010000  0.28760000  1
  C  C224  1  0.10720000  0.82110000  0.71730000  1
  C  C225  1  0.10740000  0.84580000  0.32090000  1
  C  C226  1  0.11810000  0.67340000  0.90150000  1
  C  C227  1  0.12440000  0.78770000  0.28770000  1
  C  C228  1  0.12730000  0.40910000  0.52020000  1
  C  C229  1  0.12920000  0.60720000  0.74740000  1
  C  C230  1  0.13590000  0.12570000  0.68070000  1
  C  C231  1  0.14430000  0.87620000  0.29460000  1
  C  C232  1  0.14910000  0.65430000  0.73990000  1
  C  C233  1  0.14920000  0.07100000  0.70710000  1
  C  C234  1  0.15660000  0.05780000  0.17670000  1
  C  C235  1  0.16230000  0.02360000  0.28170000  1
  C  C236  1  0.16400000  0.48820000  0.71960000  1
  C  C237  1  0.18220000  0.54680000  0.71130000  1
  C  C238  1  0.18270000  0.76810000  0.23240000  1
  C  C239  1  0.18910000  0.22370000  0.47130000  1
  C  C240  1  0.19230000  0.96310000  0.77690000  1
  C  C241  1  0.20220000  0.17440000  0.44070000  1
  C  C242  1  0.20840000  0.38050000  0.71420000  1
  C  C243  1  0.20970000  0.90380000  0.79830000  1
  C  C244  1  0.21870000  0.43110000  0.70660000  1
  C  C245  1  0.22020000  0.79910000  0.93050000  1
  C  C246  1  0.22050000  0.02300000  0.17790000  1
  C  C247  1  0.22280000  0.02430000  0.68770000  1
  C  C248  1  0.22400000  0.79660000  0.20630000  1
  C  C249  1  0.22980000  0.23720000  0.76420000  1
  C  C250  1  0.23300000  0.03730000  0.40980000  1
  C  C251  1  0.24060000  0.82420000  0.96190000  1
  C  C252  1  0.24150000  0.96200000  0.71330000  1
  C  C253  1  0.24760000  0.81620000  0.44780000  1
  C  C254  1  0.25000000  0.82350000  0.39220000  1
  C  C255  1  0.25030000  0.53600000  0.67500000  1
  C  C256  1  0.25300000  0.97990000  0.37760000  1
  C  C257  1  0.25940000  0.08810000  0.60980000  1
  C  C258  1  0.26520000  0.58660000  0.67140000  1
  C  C259  1  0.26570000  0.11830000  0.41950000  1
  C  C260  1  0.26920000  0.80760000  0.55680000  1
  C  C261  1  0.27180000  0.86560000  0.04370000  1
  C  C262  1  0.27340000  0.03580000  0.63580000  1
  C  C263  1  0.27550000  0.23840000  0.78190000  1
  C  C264  1  0.27760000  0.05930000  0.38890000  1
  C  C265  1  0.27970000  0.79440000  0.61250000  1
  C  C266  1  0.28910000  0.88720000  0.08060000  1
  C  C267  1  0.29190000  0.35100000  0.54430000  1
  C  C268  1  0.29660000  0.16910000  0.47260000  1
  C  C269  1  0.30210000  0.90760000  0.68310000  1
  C  C270  1  0.30480000  0.79020000  0.95820000  1
  C  C271  1  0.30520000  0.56150000  0.86130000  1
  C  C272  1  0.30910000  0.76280000  0.44800000  1
  C  C273  1  0.31290000  0.75520000  0.50820000  1
  C  C274  1  0.31540000  0.11960000  0.43520000  1
  C  C275  1  0.31740000  0.85270000  0.70570000  1
  C  C276  1  0.32320000  0.16690000  0.67120000  1
  C  C277  1  0.32540000  0.81650000  0.99350000  1
  C  C278  1  0.33270000  0.70260000  0.89120000  1
  C  C279  1  0.33980000  0.36020000  0.49090000  1
  C  C280  1  0.34710000  0.02260000  0.33800000  1
  C  C281  1  0.34710000  0.73320000  0.92640000  1
  C  C282  1  0.35030000  0.20460000  0.74180000  1
  C  C283  1  0.35550000  0.50850000  0.87120000  1
  C  C284  1  0.35960000  0.73890000  0.33780000  1
  C  C285  1  0.35990000  0.69540000  0.51420000  1
  C  C286  1  0.36540000  0.72700000  0.39310000  1
  C  C287  1  0.36910000  0.96170000  0.30610000  1
  C  C288  1  0.37000000  0.68870000  0.56690000  1
  C  C289  1  0.37290000  0.23630000  0.51660000  1
  C  C290  1  0.37890000  0.16790000  0.68350000  1
  C  C291  1  0.38130000  0.52930000  0.75150000  1
  C  C292  1  0.38680000  0.22830000  0.81240000  1
  C  C293  1  0.39630000  0.79190000  0.98090000  1
  C  C294  1  0.40050000  0.20910000  0.75670000  1
  C  C295  1  0.40660000  0.30870000  0.44820000  1
  C  C296  1  0.40890000  0.67200000  0.19280000  1
  C  C297  1  0.41020000  0.81510000  0.02250000  1
  C  C298  1  0.41730000  0.98100000  0.14030000  1
  C  C299  1  0.41940000  0.46600000  0.82310000  1
  C  C300  1  0.42160000  0.24500000  0.46280000  1
  C  C301  1  0.43300000  0.01540000  0.08660000  1
  C  C302  1  0.43550000  0.47750000  0.76180000  1
  C  C303  1  0.43850000  0.23290000  0.82070000  1
  C  C304  1  0.44620000  0.37640000  0.88540000  1
  C  C305  1  0.44650000  0.71130000  0.71560000  1
  C  C306  1  0.45650000  0.61210000  0.20030000  1
  C  C307  1  0.45840000  0.32190000  0.39340000  1
  C  C308  1  0.46900000  0.08290000  0.98200000  1
  C  C309  1  0.46960000  0.19460000  0.70320000  1
  C  C310  1  0.47200000  0.37030000  0.39650000  1
  C  C311  1  0.47320000  0.40910000  0.83470000  1
  C  C312  1  0.47730000  0.79980000  0.28270000  1
  C  C313  1  0.47950000  0.61960000  0.64930000  1
  C  C314  1  0.48710000  0.98530000  0.02840000  1
  C  C315  1  0.49020000  0.11370000  0.92620000  1
  C  C316  1  0.49210000  0.31990000  0.89040000  1
  C  C317  1  0.49760000  0.28060000  0.33740000  1
  C  C318  1  0.50240000  0.71940000  0.66260000  1
  C  C319  1  0.50790000  0.68010000  0.10960000  1
  C  C320  1  0.50980000  0.88630000  0.07380000  1
  C  C321  1  0.51290000  0.01470000  0.97160000  1
  C  C322  1  0.52050000  0.38040000  0.35070000  1
  C  C323  1  0.52270000  0.20020000  0.71730000  1
  C  C324  1  0.52680000  0.59090000  0.16530000  1
  C  C325  1  0.52800000  0.62970000  0.60350000  1
  C  C326  1  0.53040000  0.80540000  0.29680000  1
  C  C327  1  0.53100000  0.91710000  0.01800000  1
  C  C328  1  0.54160000  0.67810000  0.60660000  1
  C  C329  1  0.54350000  0.38790000  0.79970000  1
  C  C330  1  0.55350000  0.28870000  0.28440000  1
  C  C331  1  0.55380000  0.62360000  0.11460000  1
  C  C332  1  0.56150000  0.76710000  0.17930000  1
  C  C333  1  0.56450000  0.52250000  0.23820000  1
  C  C334  1  0.56700000  0.98460000  0.91340000  1
  C  C335  1  0.57840000  0.75500000  0.53720000  1
  C  C336  1  0.58060000  0.53400000  0.17690000  1
  C  C337  1  0.58270000  0.01900000  0.85970000  1
  C  C338  1  0.58980000  0.18490000  0.97750000  1
  C  C339  1  0.59110000  0.32800000  0.80720000  1
  C  C340  1  0.59340000  0.69130000  0.55180000  1
  C  C341  1  0.59950000  0.79090000  0.24330000  1
  C  C342  1  0.60370000  0.20810000  0.01910000  1
  C  C343  1  0.61320000  0.77170000  0.18760000  1
  C  C344  1  0.61870000  0.47070000  0.24850000  1
  C  C345  1  0.62110000  0.83210000  0.31650000  1
  C  C346  1  0.62710000  0.76370000  0.48340000  1
  C  C347  1  0.63000000  0.31130000  0.43310000  1
  C  C348  1  0.63090000  0.03830000  0.69390000  1
  C  C349  1  0.63460000  0.27300000  0.60690000  1
  C  C350  1  0.64010000  0.30460000  0.48580000  1
  C  C351  1  0.64040000  0.26110000  0.66220000  1
  C  C352  1  0.64450000  0.49150000  0.12880000  1
  C  C353  1  0.64970000  0.79540000  0.25820000  1
  C  C354  1  0.65290000  0.26680000  0.07360000  1
  C  C355  1  0.65290000  0.97740000  0.66200000  1
  C  C356  1  0.66020000  0.63980000  0.50910000  1
  C  C357  1  0.66730000  0.29740000  0.10880000  1
  C  C358  1  0.67460000  0.18350000  0.00650000  1
  C  C359  1  0.67680000  0.83310000  0.32880000  1
  C  C360  1  0.68260000  0.14730000  0.29430000  1
  C  C361  1  0.68460000  0.88040000  0.56480000  1
  C  C362  1  0.68710000  0.24480000  0.49180000  1
  C  C363  1  0.69090000  0.23720000  0.55200000  1
  C  C364  1  0.69480000  0.43850000  0.13870000  1
  C  C365  1  0.69520000  0.20980000  0.04180000  1
  C  C366  1  0.69790000  0.09240000  0.31690000  1
  C  C367  1  0.70340000  0.83090000  0.52740000  1
  C  C368  1  0.70810000  0.64900000  0.45570000  1
  C  C369  1  0.71090000  0.11280000  0.91940000  1
  C  C370  1  0.72030000  0.20560000  0.38750000  1
  C  C371  1  0.72240000  0.94070000  0.61110000  1
  C  C372  1  0.72450000  0.76160000  0.21810000  1
  C  C373  1  0.72660000  0.96420000  0.36420000  1
  C  C374  1  0.72820000  0.13440000  0.95630000  1
  C  C375  1  0.73080000  0.19240000  0.44320000  1
  C  C376  1  0.73430000  0.88170000  0.58050000  1
  C  C377  1  0.73480000  0.41340000  0.32860000  1
  C  C378  1  0.74060000  0.91190000  0.39020000  1
  C  C379  1  0.74700000  0.02010000  0.62240000  1
  C  C380  1  0.74970000  0.46400000  0.32500000  1
  C  C381  1  0.75000000  0.17650000  0.60780000  1
  C  C382  1  0.75240000  0.18380000  0.55220000  1
  C  C383  1  0.75850000  0.03800000  0.28670000  1
  C  C384  1  0.75940000  0.17580000  0.03810000  1
  C  C385  1  0.76700000  0.96270000  0.59020000  1
  C  C386  1  0.77020000  0.76280000  0.23580000  1
  C  C387  1  0.77600000  0.20340000  0.79370000  1
  C  C388  1  0.77720000  0.97570000  0.31230000  1
  C  C389  1  0.77950000  0.97700000  0.82210000  1
  C  C390  1  0.77980000  0.20090000  0.06950000  1
  C  C391  1  0.78130000  0.56890000  0.29340000  1
  C  C392  1  0.79030000  0.09620000  0.20170000  1
  C  C393  1  0.79160000  0.61950000  0.28580000  1
  C  C394  1  0.79780000  0.82560000  0.55930000  1
  C  C395  1  0.80770000  0.03690000  0.22310000  1
  C  C396  1  0.81090000  0.77630000  0.52870000  1
  C  C397  1  0.81730000  0.23190000  0.76760000  1
  C  C398  1  0.81780000  0.45320000  0.28870000  1
  C  C399  1  0.83600000  0.51180000  0.28040000  1
  C  C400  1  0.83770000  0.97640000  0.71830000  1
  C  C401  1  0.84340000  0.94220000  0.82330000  1
  C  C402  1  0.85080000  0.92900000  0.29290000  1
  C  C403  1  0.85090000  0.34570000  0.26010000  1
  C  C404  1  0.85570000  0.12380000  0.70540000  1
  C  C405  1  0.86410000  0.87430000  0.31930000  1
  C  C406  1  0.87080000  0.39280000  0.25260000  1
  C  C407  1  0.87270000  0.59090000  0.47980000  1
  C  C408  1  0.87560000  0.21230000  0.71230000  1
  C  C409  1  0.88190000  0.32660000  0.09850000  1
  C  C410  1  0.89260000  0.15420000  0.67910000  1
  C  C411  1  0.89280000  0.17890000  0.28270000  1
  C  C412  1  0.90200000  0.29990000  0.71240000  1
  C  C413  1  0.90550000  0.49270000  0.26120000  1
  C  C414  1  0.90840000  0.93950000  0.71530000  1
  C  C415  1  0.91140000  0.92370000  0.76860000  1
  C  C416  1  0.91180000  0.55600000  0.51180000  1
  C  C417  1  0.91580000  0.54710000  0.26210000  1
  C  C418  1  0.91920000  0.32730000  0.02620000  1
  C  C419  1  0.92500000  0.23960000  0.68100000  1
  C  C420  1  0.92740000  0.21240000  0.06540000  1
  C  C421  1  0.93380000  0.77170000  0.19200000  1
  C  C422  1  0.94050000  0.11680000  0.19480000  1
  C  C423  1  0.95280000  0.32420000  0.68280000  1
  C  C424  1  0.95400000  0.27600000  0.98070000  1
  C  C425  1  0.95530000  0.33490000  0.89160000  1
  C  C426  1  0.95740000  0.21980000  0.00270000  1
  C  C427  1  0.95840000  0.77180000  0.12880000  1
  C  C428  1  0.96120000  0.15500000  0.27890000  1
  C  C429  1  0.96310000  0.76660000  0.39460000  1
  C  C430  1  0.97500000  0.54580000  0.38400000  1
  C  C431  1  0.97830000  0.51840000  0.48370000  1
  C  C432  1  0.98060000  0.88970000  0.76750000  1
  C  C433  1  0.98500000  0.33390000  0.82580000  1
  C  C434  1  0.98570000  0.48730000  0.58010000  1
  C  C435  1  0.98730000  0.28080000  0.91510000  1
  C  C436  1  0.98890000  0.21190000  0.63210000  1
  C  C437  1  0.99010000  0.90780000  0.81270000  1
  N  N438  1  0.01740000  0.28940000  0.63360000  1
  N  N439  1  0.03640000  0.28060000  0.78570000  1
  N  N440  1  0.09310000  0.41700000  0.58210000  1
  N  N441  1  0.10760000  0.73320000  0.89100000  1
  N  N442  1  0.11530000  0.84030000  0.75900000  1
  N  N443  1  0.14100000  0.39190000  0.72360000  1
  N  N444  1  0.19310000  0.13130000  0.63240000  1
  N  N445  1  0.20650000  0.85030000  0.23930000  1
  N  N446  1  0.21660000  0.64000000  0.70340000  1
  N  N447  1  0.22170000  0.00580000  0.23030000  1
  N  N448  1  0.23980000  0.21830000  0.48680000  1
  N  N449  1  0.25340000  0.20610000  0.71040000  1
  N  N450  1  0.26260000  0.74200000  0.89670000  1
  N  N451  1  0.26980000  0.85210000  0.76480000  1
  N  N452  1  0.30370000  0.78680000  0.33890000  1
  N  N453  1  0.31350000  0.28510000  0.55600000  1
  N  N454  1  0.31420000  0.94540000  0.33333333  1
  N  N455  1  0.32080000  0.57050000  0.79970000  1
  N  N456  1  0.32500000  0.73670000  0.61580000  1
  N  N457  1  0.35430000  0.86210000  0.07110000  1
  N  N458  1  0.43630000  0.66190000  0.70200000  1
  N  N459  1  0.43860000  0.70280000  0.14590000  1
  N  N460  1  0.45720000  0.91790000  0.12590000  1
  N  N461  1  0.49760000  0.77960000  0.22500000  1
  N  N462  1  0.50240000  0.22040000  0.77500000  1
  N  N463  1  0.54280000  0.08210000  0.87410000  1
  N  N464  1  0.56140000  0.29720000  0.85410000  1
  N  N465  1  0.56370000  0.33810000  0.29800000  1
  N  N466  1  0.64570000  0.13790000  0.92890000  1
  N  N467  1  0.67500000  0.26330000  0.38420000  1
  N  N468  1  0.67920000  0.42950000  0.20030000  1
  N  N469  1  0.68580000  0.05460000  0.66666667  1
  N  N470  1  0.68650000  0.71490000  0.44400000  1
  N  N471  1  0.69630000  0.21320000  0.66110000  1
  N  N472  1  0.73020000  0.14790000  0.23520000  1
  N  N473  1  0.73740000  0.25800000  0.10330000  1
  N  N474  1  0.74660000  0.79390000  0.28960000  1
  N  N475  1  0.76020000  0.78170000  0.51320000  1
  N  N476  1  0.77830000  0.99420000  0.76970000  1
  N  N477  1  0.78340000  0.36000000  0.29660000  1
  N  N478  1  0.79350000  0.14970000  0.76070000  1
  N  N479  1  0.80690000  0.86870000  0.36760000  1
  N  N480  1  0.85900000  0.60810000  0.27640000  1
  N  N481  1  0.88470000  0.15970000  0.24100000  1
  N  N482  1  0.89240000  0.26680000  0.10900000  1
  N  N483  1  0.90690000  0.58300000  0.41790000  1
  N  N484  1  0.96360000  0.71940000  0.21430000  1
  N  N485  1  0.98260000  0.71060000  0.36640000  1
  O  O486  1  0.05790000  0.27940000  0.72480000  1
  O  O487  1  0.06210000  0.31320000  0.61250000  1
  O  O488  1  0.12880000  0.34320000  0.72590000  1
  O  O489  1  0.12910000  0.38570000  0.61570000  1
  O  O490  1  0.13860000  0.73540000  0.83170000  1
  O  O491  1  0.17600000  0.18750000  0.60350000  1
  O  O492  1  0.18000000  0.81640000  0.75470000  1
  O  O493  1  0.20740000  0.20600000  0.69290000  1
  O  O494  1  0.21970000  0.26820000  0.52640000  1
  O  O495  1  0.23130000  0.69050000  0.69820000  1
  O  O496  1  0.24130000  0.71510000  0.87120000  1
  O  O497  1  0.24530000  0.88000000  0.21050000  1
  O  O498  1  0.26400000  0.27940000  0.60920000  1
  O  O499  1  0.27450000  0.61800000  0.78600000  1
  O  O500  1  0.28250000  0.79750000  0.78720000  1
  O  O501  1  0.28380000  0.96900000  0.22810000  1
  O  O502  1  0.30130000  0.79800000  0.28350000  1
  O  O503  1  0.33010000  0.89130000  0.30630000  1
  O  O504  1  0.33520000  0.72580000  0.66690000  1
  O  O505  1  0.37020000  0.88220000  0.10790000  1
  O  O506  1  0.37670000  0.66190000  0.75380000  1
  O  O507  1  0.39000000  0.76320000  0.14560000  1
  O  O508  1  0.43940000  0.88680000  0.17490000  1
  O  O509  1  0.45300000  0.77170000  0.21450000  1
  O  O510  1  0.54700000  0.22830000  0.78550000  1
  O  O511  1  0.56060000  0.11320000  0.82510000  1
  O  O512  1  0.61000000  0.23680000  0.85440000  1
  O  O513  1  0.62330000  0.33810000  0.24620000  1
  O  O514  1  0.62980000  0.11780000  0.89210000  1
  O  O515  1  0.66480000  0.27420000  0.33310000  1
  O  O516  1  0.66990000  0.10870000  0.69370000  1
  O  O517  1  0.69870000  0.20200000  0.71650000  1
  O  O518  1  0.71620000  0.03100000  0.77190000  1
  O  O519  1  0.71750000  0.20250000  0.21280000  1
  O  O520  1  0.72550000  0.38200000  0.21400000  1
  O  O521  1  0.73600000  0.72060000  0.39080000  1
  O  O522  1  0.75470000  0.12000000  0.78950000  1
  O  O523  1  0.75870000  0.28490000  0.12880000  1
  O  O524  1  0.76870000  0.30950000  0.30180000  1
  O  O525  1  0.78030000  0.73180000  0.47360000  1
  O  O526  1  0.79260000  0.79400000  0.30710000  1
  O  O527  1  0.82000000  0.18360000  0.24530000  1
  O  O528  1  0.82400000  0.81250000  0.39650000  1
  O  O529  1  0.86140000  0.26460000  0.16830000  1
  O  O530  1  0.87090000  0.61430000  0.38430000  1
  O  O531  1  0.87120000  0.65680000  0.27410000  1
  O  O532  1  0.93790000  0.68680000  0.38750000  1
  O  O533  1  0.94210000  0.72060000  0.27520000  1
