# generated using pymatgen
data_CoH16C24(NO2)2
_symmetry_space_group_name_H-M   'P 1'
_cell_length_a   9.52300000
_cell_length_b   11.35550000
_cell_length_c   25.87400000
_cell_angle_alpha   87.40440000
_cell_angle_beta   83.79990000
_cell_angle_gamma   65.20880000
_symmetry_Int_Tables_number   1
_chemical_formula_structural   CoH16C24(NO2)2
_chemical_formula_sum   'Co4 H64 C96 N8 O16'
_cell_volume   2525.25996834
_cell_formula_units_Z   4
loop_
 _symmetry_equiv_pos_site_id
 _symmetry_equiv_pos_as_xyz
  1  'x, y, z'
loop_
 _atom_site_type_symbol
 _atom_site_label
 _atom_site_symmetry_multiplicity
 _atom_site_fract_x
 _atom_site_fract_y
 _atom_site_fract_z
 _atom_site_occupancy
  Co  Co0  1  0.10253000  0.60554000  0.95575000  1
  Co  Co1  1  0.29193000  0.60554000  0.54425000  1
  Co  Co2  1  0.70807000  0.39446000  0.45575000  1
  Co  Co3  1  0.89747000  0.39446000  0.04425000  1
  H  H4  1  0.00910000  0.65640000  0.31350000  1
  H  H5  1  0.01090000  0.53580000  0.24260000  1
  H  H6  1  0.02140000  0.49940000  0.84290000  1
  H  H7  1  0.03450000  0.13340000  0.98450000  1
  H  H8  1  0.04090000  0.72340000  0.71430000  1
  H  H9  1  0.07730000  0.64320000  0.39730000  1
  H  H10  1  0.13410000  0.45780000  0.49810000  1
  H  H11  1  0.13890000  0.25780000  0.49190000  1
  H  H12  1  0.16510000  0.23640000  0.22360000  1
  H  H13  1  0.16790000  0.86660000  0.48450000  1
  H  H14  1  0.17210000  0.06580000  0.48200000  1
  H  H15  1  0.18640000  0.24060000  0.09670000  1
  H  H16  1  0.22470000  0.27980000  0.39450000  1
  H  H17  1  0.22560000  0.34260000  0.90080000  1
  H  H18  1  0.23570000  0.72340000  0.78570000  1
  H  H19  1  0.23790000  0.93420000  0.98200000  1
  H  H20  1  0.27950000  0.64320000  0.10270000  1
  H  H21  1  0.33450000  0.65640000  0.18650000  1
  H  H22  1  0.33910000  0.23820000  0.16780000  1
  H  H23  1  0.39020000  0.04280000  0.09800000  1
  H  H24  1  0.39670000  0.74220000  0.99190000  1
  H  H25  1  0.40150000  0.76360000  0.72360000  1
  H  H26  1  0.40810000  0.45780000  0.00190000  1
  H  H27  1  0.42170000  0.13380000  0.90330000  1
  H  H28  1  0.42270000  0.23820000  0.33220000  1
  H  H29  1  0.42700000  0.75940000  0.59670000  1
  H  H30  1  0.43180000  0.34260000  0.59920000  1
  H  H31  1  0.43300000  0.95720000  0.59800000  1
  H  H32  1  0.44450000  0.13380000  0.59670000  1
  H  H33  1  0.45330000  0.53580000  0.25740000  1
  H  H34  1  0.47920000  0.49940000  0.65710000  1
  H  H35  1  0.49550000  0.27980000  0.10550000  1
  H  H36  1  0.50450000  0.72020000  0.89450000  1
  H  H37  1  0.52080000  0.50060000  0.34290000  1
  H  H38  1  0.54670000  0.46420000  0.74260000  1
  H  H39  1  0.55550000  0.86620000  0.40330000  1
  H  H40  1  0.56700000  0.04280000  0.40200000  1
  H  H41  1  0.56820000  0.65740000  0.40080000  1
  H  H42  1  0.57300000  0.24060000  0.40330000  1
  H  H43  1  0.57730000  0.76180000  0.66780000  1
  H  H44  1  0.57830000  0.86620000  0.09670000  1
  H  H45  1  0.59190000  0.54220000  0.99810000  1
  H  H46  1  0.59850000  0.23640000  0.27640000  1
  H  H47  1  0.60330000  0.25780000  0.00810000  1
  H  H48  1  0.60980000  0.95720000  0.90200000  1
  H  H49  1  0.66090000  0.76180000  0.83220000  1
  H  H50  1  0.66550000  0.34360000  0.81350000  1
  H  H51  1  0.72050000  0.35680000  0.89730000  1
  H  H52  1  0.76210000  0.06580000  0.01800000  1
  H  H53  1  0.76430000  0.27660000  0.21430000  1
  H  H54  1  0.77440000  0.65740000  0.09920000  1
  H  H55  1  0.77530000  0.72020000  0.60550000  1
  H  H56  1  0.81360000  0.75940000  0.90330000  1
  H  H57  1  0.82790000  0.93420000  0.51800000  1
  H  H58  1  0.83210000  0.13340000  0.51550000  1
  H  H59  1  0.83490000  0.76360000  0.77640000  1
  H  H60  1  0.86110000  0.74220000  0.50810000  1
  H  H61  1  0.86590000  0.54220000  0.50190000  1
  H  H62  1  0.92270000  0.35680000  0.60270000  1
  H  H63  1  0.95910000  0.27660000  0.28570000  1
  H  H64  1  0.96550000  0.86660000  0.01550000  1
  H  H65  1  0.97860000  0.50060000  0.15710000  1
  H  H66  1  0.98910000  0.46420000  0.75740000  1
  H  H67  1  0.99090000  0.34360000  0.68650000  1
  C  C68  1  0.04630000  0.53720000  0.16310000  1
  C  C69  1  0.05340000  0.26940000  0.29560000  1
  C  C70  1  0.06560000  0.68300000  0.61320000  1
  C  C71  1  0.06790000  0.28080000  0.34720000  1
  C  C72  1  0.06990000  0.55300000  0.21470000  1
  C  C73  1  0.09170000  0.55740000  0.06750000  1
  C  C74  1  0.10860000  0.11480000  0.00800000  1
  C  C75  1  0.11340000  0.62740000  0.31880000  1
  C  C76  1  0.12010000  0.57380000  0.12200000  1
  C  C77  1  0.15410000  0.61840000  0.36940000  1
  C  C78  1  0.17670000  0.24740000  0.25800000  1
  C  C79  1  0.18370000  0.59500000  0.22310000  1
  C  C80  1  0.19510000  0.17780000  0.07320000  1
  C  C81  1  0.19960000  0.27120000  0.51480000  1
  C  C82  1  0.20050000  0.39060000  0.51760000  1
  C  C83  1  0.21020000  0.27120000  0.36010000  1
  C  C84  1  0.22100000  0.00600000  0.50730000  1
  C  C85  1  0.22130000  0.59500000  0.27690000  1
  C  C86  1  0.22340000  0.88520000  0.50800000  1
  C  C87  1  0.22700000  0.99400000  0.00730000  1
  C  C88  1  0.22750000  0.61840000  0.13060000  1
  C  C89  1  0.25140000  0.68300000  0.88680000  1
  C  C90  1  0.25920000  0.62740000  0.18120000  1
  C  C91  1  0.28560000  0.17240000  0.54490000  1
  C  C92  1  0.29090000  0.03880000  0.54390000  1
  C  C93  1  0.30170000  0.32460000  0.92350000  1
  C  C94  1  0.30610000  0.57380000  0.37800000  1
  C  C95  1  0.31610000  0.05780000  0.07490000  1
  C  C96  1  0.32030000  0.24160000  0.27100000  1
  C  C97  1  0.32280000  0.73060000  0.79560000  1
  C  C98  1  0.32740000  0.24920000  0.32190000  1
  C  C99  1  0.32970000  0.96120000  0.04390000  1
  C  C100  1  0.34870000  0.71920000  0.84720000  1
  C  C101  1  0.35090000  0.55740000  0.43250000  1
  C  C102  1  0.37290000  0.82220000  0.57320000  1
  C  C103  1  0.37370000  0.32460000  0.57650000  1
  C  C104  1  0.37390000  0.94220000  0.57490000  1
  C  C105  1  0.37710000  0.55300000  0.28530000  1
  C  C106  1  0.37860000  0.19880000  0.57620000  1
  C  C107  1  0.40890000  0.39060000  0.98240000  1
  C  C108  1  0.41650000  0.53720000  0.33690000  1
  C  C109  1  0.42260000  0.19880000  0.92380000  1
  C  C110  1  0.42340000  0.24920000  0.17810000  1
  C  C111  1  0.42410000  0.75260000  0.75800000  1
  C  C112  1  0.43810000  0.24160000  0.22900000  1
  C  C113  1  0.45800000  0.82760000  0.04490000  1
  C  C114  1  0.47080000  0.72880000  0.01480000  1
  C  C115  1  0.48140000  0.72880000  0.86010000  1
  C  C116  1  0.51860000  0.27120000  0.13990000  1
  C  C117  1  0.52920000  0.27120000  0.98520000  1
  C  C118  1  0.54200000  0.17240000  0.95510000  1
  C  C119  1  0.56190000  0.75840000  0.77100000  1
  C  C120  1  0.57590000  0.24740000  0.24200000  1
  C  C121  1  0.57660000  0.75080000  0.82190000  1
  C  C122  1  0.57740000  0.80120000  0.07620000  1
  C  C123  1  0.58350000  0.46280000  0.66310000  1
  C  C124  1  0.59110000  0.60940000  0.01760000  1
  C  C125  1  0.62140000  0.80120000  0.42380000  1
  C  C126  1  0.62290000  0.44700000  0.71470000  1
  C  C127  1  0.62610000  0.05780000  0.42510000  1
  C  C128  1  0.62630000  0.67540000  0.42350000  1
  C  C129  1  0.62710000  0.17780000  0.42680000  1
  C  C130  1  0.64910000  0.44260000  0.56750000  1
  C  C131  1  0.65130000  0.28080000  0.15280000  1
  C  C132  1  0.67030000  0.03880000  0.95610000  1
  C  C133  1  0.67260000  0.75080000  0.67810000  1
  C  C134  1  0.67720000  0.26940000  0.20440000  1
  C  C135  1  0.67970000  0.75840000  0.72900000  1
  C  C136  1  0.68390000  0.94220000  0.92510000  1
  C  C137  1  0.69390000  0.42620000  0.62200000  1
  C  C138  1  0.69830000  0.67540000  0.07650000  1
  C  C139  1  0.70910000  0.96120000  0.45610000  1
  C  C140  1  0.71440000  0.82760000  0.45510000  1
  C  C141  1  0.74080000  0.37260000  0.81880000  1
  C  C142  1  0.74860000  0.31700000  0.11320000  1
  C  C143  1  0.77250000  0.38160000  0.86940000  1
  C  C144  1  0.77300000  0.00600000  0.99270000  1
  C  C145  1  0.77660000  0.11480000  0.49200000  1
  C  C146  1  0.77870000  0.40500000  0.72310000  1
  C  C147  1  0.77900000  0.99400000  0.49270000  1
  C  C148  1  0.78980000  0.72880000  0.63990000  1
  C  C149  1  0.79950000  0.60940000  0.48240000  1
  C  C150  1  0.80040000  0.72880000  0.48520000  1
  C  C151  1  0.80490000  0.82220000  0.92680000  1
  C  C152  1  0.81630000  0.40500000  0.77690000  1
  C  C153  1  0.82330000  0.75260000  0.74200000  1
  C  C154  1  0.84590000  0.38160000  0.63060000  1
  C  C155  1  0.87990000  0.42620000  0.87800000  1
  C  C156  1  0.88660000  0.37260000  0.68120000  1
  C  C157  1  0.89140000  0.88520000  0.99200000  1
  C  C158  1  0.90830000  0.44260000  0.93250000  1
  C  C159  1  0.93010000  0.44700000  0.78530000  1
  C  C160  1  0.93210000  0.71920000  0.65280000  1
  C  C161  1  0.93440000  0.31700000  0.38680000  1
  C  C162  1  0.94660000  0.73060000  0.70440000  1
  C  C163  1  0.95370000  0.46280000  0.83690000  1
  N  N164  1  0.09340000  0.20740000  0.04070000  1
  N  N165  1  0.29200000  0.41560000  0.54680000  1
  N  N166  1  0.29240000  0.41560000  0.95320000  1
  N  N167  1  0.30080000  0.79260000  0.54070000  1
  N  N168  1  0.69920000  0.20740000  0.45930000  1
  N  N169  1  0.70760000  0.58440000  0.04680000  1
  N  N170  1  0.70800000  0.58440000  0.45320000  1
  N  N171  1  0.90660000  0.79260000  0.95930000  1
  O  O172  1  0.04100000  0.69540000  0.56560000  1
  O  O173  1  0.04470000  0.47280000  0.06020000  1
  O  O174  1  0.12230000  0.62140000  0.03220000  1
  O  O175  1  0.16100000  0.63880000  0.87350000  1
  O  O176  1  0.20020000  0.63880000  0.62650000  1
  O  O177  1  0.25630000  0.62140000  0.46780000  1
  O  O178  1  0.26360000  0.69540000  0.93440000  1
  O  O179  1  0.48250000  0.47280000  0.43980000  1
  O  O180  1  0.51750000  0.52720000  0.56020000  1
  O  O181  1  0.73640000  0.30460000  0.06560000  1
  O  O182  1  0.74370000  0.37860000  0.53220000  1
  O  O183  1  0.79980000  0.36120000  0.37350000  1
  O  O184  1  0.83900000  0.36120000  0.12650000  1
  O  O185  1  0.87770000  0.37860000  0.96780000  1
  O  O186  1  0.95530000  0.52720000  0.93980000  1
  O  O187  1  0.95900000  0.30460000  0.43440000  1
