# generated using pymatgen
data_Ga3CoP4H26C8(N3O8)2
_symmetry_space_group_name_H-M   'P 1'
_cell_length_a   13.48510000
_cell_length_b   14.42455746
_cell_length_c   14.42455746
_cell_angle_alpha   110.75275764
_cell_angle_beta   108.15710681
_cell_angle_gamma   108.15710681
_symmetry_Int_Tables_number   1
_chemical_formula_structural   Ga3CoP4H26C8(N3O8)2
_chemical_formula_sum   'Ga9 Co3 P12 H78 C24 N18 O48'
_cell_volume   2193.94116834
_cell_formula_units_Z   3
loop_
 _symmetry_equiv_pos_site_id
 _symmetry_equiv_pos_as_xyz
  1  'x, y, z'
loop_
 _atom_site_type_symbol
 _atom_site_label
 _atom_site_symmetry_multiplicity
 _atom_site_fract_x
 _atom_site_fract_y
 _atom_site_fract_z
 _atom_site_occupancy
  C  C0  1  0.16460000  0.59680000  0.55790000  1
  C  C1  1  0.91820000  0.59300000  0.61200000  1
  C  C2  1  0.19940000  0.98090000  0.32600000  1
  C  C3  1  0.60240000  0.98990000  0.32400000  1
  C  C4  1  0.87340000  0.67400000  0.65490000  1
  C  C5  1  0.27840000  0.67600000  0.66590000  1
  C  C6  1  0.61250000  0.33410000  0.01010000  1
  C  C7  1  0.21850000  0.34510000  0.01910000  1
  C  C8  1  0.56780000  0.96110000  0.40320000  1
  C  C9  1  0.30620000  0.38800000  0.98100000  1
  C  C10  1  0.32520000  0.01900000  0.40700000  1
  C  C11  1  0.60670000  0.44210000  0.03890000  1
  C  C12  1  0.39330000  0.55790000  0.96110000  1
  C  C13  1  0.67480000  0.98100000  0.59300000  1
  C  C14  1  0.69380000  0.61200000  0.01900000  1
  C  C15  1  0.43220000  0.03890000  0.59680000  1
  C  C16  1  0.78150000  0.65490000  0.98090000  1
  C  C17  1  0.38750000  0.66590000  0.98990000  1
  C  C18  1  0.72160000  0.32400000  0.33410000  1
  C  C19  1  0.12660000  0.32600000  0.34510000  1
  C  C20  1  0.39760000  0.01010000  0.67600000  1
  C  C21  1  0.80060000  0.01910000  0.67400000  1
  C  C22  1  0.08180000  0.40700000  0.38800000  1
  C  C23  1  0.83540000  0.40320000  0.44210000  1
  Co  Co24  1  0.48037000  0.62770000  0.45347000  1
  Co  Co25  1  0.85267000  0.82577000  0.37230000  1
  Co  Co26  1  0.02690000  0.54653000  0.17423000  1
  Ga  Ga27  1  0.26516000  0.45661000  0.59255000  1
  Ga  Ga28  1  0.67261000  0.40745000  0.86406000  1
  Ga  Ga29  1  0.97310000  0.45347000  0.82577000  1
  Ga  Ga30  1  0.19145000  0.86406000  0.45661000  1
  Ga  Ga31  1  0.80855000  0.13594000  0.54339000  1
  Ga  Ga32  1  0.32739000  0.59255000  0.13594000  1
  Ga  Ga33  1  0.14733000  0.17423000  0.62770000  1
  Ga  Ga34  1  0.51963000  0.37230000  0.54653000  1
  Ga  Ga35  1  0.73484000  0.54339000  0.40745000  1
  H  H36  1  0.77170000  0.46170000  0.53990000  1
  H  H37  1  0.11820000  0.82310000  0.25640000  1
  H  H38  1  0.51470000  0.25030000  0.85390000  1
  H  H39  1  0.63090000  0.23580000  0.89180000  1
  H  H40  1  0.13380000  0.62640000  0.50610000  1
  H  H41  1  0.10710000  0.56700000  0.58140000  1
  H  H42  1  0.04740000  0.86410000  0.30120000  1
  H  H43  1  0.98200000  0.62620000  0.59140000  1
  H  H44  1  0.63010000  0.93290000  0.28590000  1
  H  H45  1  0.20780000  0.97560000  0.25150000  1
  H  H46  1  0.27270000  0.32450000  0.90710000  1
  H  H47  1  0.50740000  0.87970000  0.37360000  1
  H  H48  1  0.94820000  0.58260000  0.67550000  1
  H  H49  1  0.74620000  0.69880000  0.56290000  1
  H  H50  1  0.54750000  0.99660000  0.28850000  1
  H  H51  1  0.55090000  0.29190000  0.00340000  1
  H  H52  1  0.14310000  0.33080000  0.96950000  1
  H  H53  1  0.23220000  0.27590000  0.02440000  1
  H  H54  1  0.81230000  0.63870000  0.66920000  1
  H  H55  1  0.86180000  0.74360000  0.56670000  1
  H  H56  1  0.35580000  0.96520000  0.37380000  1
  H  H57  1  0.26440000  0.60360000  0.74970000  1
  H  H58  1  0.34420000  0.71410000  0.64700000  1
  H  H59  1  0.23180000  0.46010000  0.92180000  1
  H  H60  1  0.69000000  0.92180000  0.46170000  1
  H  H61  1  0.37230000  0.50610000  0.87970000  1
  H  H62  1  0.70490000  0.56670000  0.82310000  1
  H  H63  1  0.17360000  0.03050000  0.36130000  1
  H  H64  1  0.52570000  0.41860000  0.98560000  1
  H  H65  1  0.25900000  0.71150000  0.70810000  1
  H  H66  1  0.69720000  0.35300000  0.06710000  1
  H  H67  1  0.39510000  0.65600000  0.76420000  1
  H  H68  1  0.81670000  0.56290000  0.86410000  1
  H  H69  1  0.39060000  0.40860000  0.03480000  1
  H  H70  1  0.54010000  0.01440000  0.43300000  1
  H  H71  1  0.73910000  0.10820000  0.34400000  1
  H  H72  1  0.33920000  0.85390000  0.60360000  1
  H  H73  1  0.95630000  0.74850000  0.72410000  1
  H  H74  1  0.63440000  0.90710000  0.58260000  1
  H  H75  1  0.36560000  0.09290000  0.41740000  1
  H  H76  1  0.04370000  0.25150000  0.27590000  1
  H  H77  1  0.66080000  0.14610000  0.39640000  1
  H  H78  1  0.26090000  0.89180000  0.65600000  1
  H  H79  1  0.45990000  0.98560000  0.56700000  1
  H  H80  1  0.60940000  0.59140000  0.96520000  1
  H  H81  1  0.18330000  0.43710000  0.13590000  1
  H  H82  1  0.60490000  0.34400000  0.23580000  1
  H  H83  1  0.30280000  0.64700000  0.93290000  1
  H  H84  1  0.74100000  0.28850000  0.29190000  1
  H  H85  1  0.47430000  0.58140000  0.01440000  1
  H  H86  1  0.82640000  0.96950000  0.63870000  1
  H  H87  1  0.29510000  0.43330000  0.17690000  1
  H  H88  1  0.62770000  0.49390000  0.12030000  1
  H  H89  1  0.31000000  0.07820000  0.53830000  1
  H  H90  1  0.76820000  0.53990000  0.07820000  1
  H  H91  1  0.65580000  0.28590000  0.35300000  1
  H  H92  1  0.73560000  0.39640000  0.25030000  1
  H  H93  1  0.64420000  0.03480000  0.62620000  1
  H  H94  1  0.13820000  0.25640000  0.43330000  1
  H  H95  1  0.18770000  0.36130000  0.33080000  1
  H  H96  1  0.76780000  0.72410000  0.97560000  1
  H  H97  1  0.85690000  0.66920000  0.03050000  1
  H  H98  1  0.44910000  0.70810000  0.99660000  1
  H  H99  1  0.45250000  0.00340000  0.71150000  1
  H  H100  1  0.25380000  0.30120000  0.43710000  1
  H  H101  1  0.05180000  0.41740000  0.32450000  1
  H  H102  1  0.49260000  0.12030000  0.62640000  1
  H  H103  1  0.72730000  0.67550000  0.09290000  1
  H  H104  1  0.79220000  0.02440000  0.74850000  1
  H  H105  1  0.36990000  0.06710000  0.71410000  1
  H  H106  1  0.01800000  0.37380000  0.40860000  1
  H  H107  1  0.95260000  0.13590000  0.69880000  1
  H  H108  1  0.89290000  0.43300000  0.41860000  1
  H  H109  1  0.86620000  0.37360000  0.49390000  1
  H  H110  1  0.36910000  0.76420000  0.10820000  1
  H  H111  1  0.48530000  0.74970000  0.14610000  1
  H  H112  1  0.88180000  0.17690000  0.74360000  1
  H  H113  1  0.22830000  0.53830000  0.46010000  1
  N  N114  1  0.81630000  0.49183000  0.51097000  1
  N  N115  1  0.59353000  0.27987000  0.89282000  1
  N  N116  1  0.12091000  0.87323000  0.31310000  1
  N  N117  1  0.80781000  0.68690000  0.56013000  1
  N  N118  1  0.31366000  0.61295000  0.72013000  1
  N  N119  1  0.75232000  0.56013000  0.87323000  1
  N  N120  1  0.30533000  0.48903000  0.98086000  1
  N  N121  1  0.67553000  0.98086000  0.49183000  1
  N  N122  1  0.70071000  0.10718000  0.38705000  1
  N  N123  1  0.29929000  0.89282000  0.61295000  1
  N  N124  1  0.32447000  0.01914000  0.50817000  1
  N  N125  1  0.69467000  0.51097000  0.01914000  1
  N  N126  1  0.24768000  0.43987000  0.12677000  1
  N  N127  1  0.68634000  0.38705000  0.27987000  1
  N  N128  1  0.19219000  0.31310000  0.43987000  1
  N  N129  1  0.87909000  0.12677000  0.68690000  1
  N  N130  1  0.40647000  0.72013000  0.10718000  1
  N  N131  1  0.18370000  0.50817000  0.48903000  1
  O  O132  1  0.88156000  0.71415000  0.29423000  1
  O  O133  1  0.11866000  0.40103000  0.60793000  1
  O  O134  1  0.65026000  0.31097000  0.72098000  1
  O  O135  1  0.33929000  0.41001000  0.68903000  1
  O  O136  1  0.69235000  0.77536000  0.32591000  1
  O  O137  1  0.40491000  0.52398000  0.57741000  1
  O  O138  1  0.36644000  0.67409000  0.44945000  1
  O  O139  1  0.58733000  0.70577000  0.41992000  1
  O  O140  1  0.79952000  0.22631000  0.90465000  1
  O  O141  1  0.07072000  0.72098000  0.41001000  1
  O  O142  1  0.83259000  0.41992000  0.71415000  1
  O  O143  1  0.59824000  0.52377000  0.65055000  1
  O  O144  1  0.51073000  0.39207000  0.79310000  1
  O  O145  1  0.28237000  0.79310000  0.40103000  1
  O  O146  1  0.94769000  0.34945000  0.87322000  1
  O  O147  1  0.08301000  0.44945000  0.77536000  1
  O  O148  1  0.90973000  0.92914000  0.33121000  1
  O  O149  1  0.57852000  0.66879000  0.59793000  1
  O  O150  1  0.82750000  0.42259000  0.94657000  1
  O  O151  1  0.92553000  0.87322000  0.52377000  1
  O  O152  1  0.89487000  0.09535000  0.32166000  1
  O  O153  1  0.57321000  0.67834000  0.77369000  1
  O  O154  1  0.11907000  0.94657000  0.52398000  1
  O  O155  1  0.98059000  0.40207000  0.07086000  1
  O  O156  1  0.01941000  0.59793000  0.92914000  1
  O  O157  1  0.88093000  0.05343000  0.47602000  1
  O  O158  1  0.42679000  0.32166000  0.22631000  1
  O  O159  1  0.10513000  0.90465000  0.67834000  1
  O  O160  1  0.07447000  0.12678000  0.47623000  1
  O  O161  1  0.17250000  0.57741000  0.05343000  1
  O  O162  1  0.42148000  0.33121000  0.40207000  1
  O  O163  1  0.09027000  0.07086000  0.66879000  1
  O  O164  1  0.91699000  0.55055000  0.22464000  1
  O  O165  1  0.05231000  0.65055000  0.12678000  1
  O  O166  1  0.71763000  0.20690000  0.59897000  1
  O  O167  1  0.48927000  0.60793000  0.20690000  1
  O  O168  1  0.40176000  0.47623000  0.34945000  1
  O  O169  1  0.16741000  0.58008000  0.28585000  1
  O  O170  1  0.92928000  0.27902000  0.58999000  1
  O  O171  1  0.20048000  0.77369000  0.09535000  1
  O  O172  1  0.41267000  0.29423000  0.58008000  1
  O  O173  1  0.63356000  0.32591000  0.55055000  1
  O  O174  1  0.59509000  0.47602000  0.42259000  1
  O  O175  1  0.30765000  0.22464000  0.67409000  1
  O  O176  1  0.66071000  0.58999000  0.31097000  1
  O  O177  1  0.34974000  0.68903000  0.27902000  1
  O  O178  1  0.88134000  0.59897000  0.39207000  1
  O  O179  1  0.11844000  0.28585000  0.70577000  1
  P  P180  1  0.06258000  0.35286000  0.66663000  1
  P  P181  1  0.39595000  0.33337000  0.68623000  1
  P  P182  1  0.29028000  0.68623000  0.35286000  1
  P  P183  1  0.53826000  0.60131000  0.65497000  1
  P  P184  1  0.88329000  0.34503000  0.94634000  1
  P  P185  1  0.93695000  0.05366000  0.39869000  1
  P  P186  1  0.06305000  0.94634000  0.60131000  1
  P  P187  1  0.11671000  0.65497000  0.05366000  1
  P  P188  1  0.46174000  0.39869000  0.34503000  1
  P  P189  1  0.70972000  0.31377000  0.64714000  1
  P  P190  1  0.60405000  0.66663000  0.31377000  1
  P  P191  1  0.93742000  0.64714000  0.33337000  1
