# generated using pymatgen
data_ZnH6C9NO4
_symmetry_space_group_name_H-M   'P 1'
_cell_length_a   8.87370000
_cell_length_b   8.87370000
_cell_length_c   14.04040000
_cell_angle_alpha   78.38820000
_cell_angle_beta   78.38820000
_cell_angle_gamma   81.49050000
_symmetry_Int_Tables_number   1
_chemical_formula_structural   ZnH6C9NO4
_chemical_formula_sum   'Zn4 H24 C36 N4 O16'
_cell_volume   1054.11220697
_cell_formula_units_Z   4
loop_
 _symmetry_equiv_pos_site_id
 _symmetry_equiv_pos_as_xyz
  1  'x, y, z'
loop_
 _atom_site_type_symbol
 _atom_site_label
 _atom_site_symmetry_multiplicity
 _atom_site_fract_x
 _atom_site_fract_y
 _atom_site_fract_z
 _atom_site_occupancy
  Zn  Zn0  1  0.76154000  0.76154000  0.58264000  1
  Zn  Zn1  1  0.73108000  0.73108000  0.79925000  1
  Zn  Zn2  1  0.26892000  0.26892000  0.20075000  1
  Zn  Zn3  1  0.23846000  0.23846000  0.41736000  1
  H  H4  1  0.58670000  0.92550000  0.42460000  1
  H  H5  1  0.57440000  0.92000000  0.26170000  1
  H  H6  1  0.56810000  0.89910000  0.12260000  1
  H  H7  1  0.56800000  0.88280000  0.96110000  1
  H  H8  1  0.26560000  0.77860000  0.20680000  1
  H  H9  1  0.26830000  0.76810000  0.58980000  1
  H  H10  1  0.22140000  0.73440000  0.79320000  1
  H  H11  1  0.23190000  0.73170000  0.41020000  1
  H  H12  1  0.92550000  0.58670000  0.42460000  1
  H  H13  1  0.92000000  0.57440000  0.26170000  1
  H  H14  1  0.89910000  0.56810000  0.12260000  1
  H  H15  1  0.88280000  0.56800000  0.96110000  1
  H  H16  1  0.11720000  0.43200000  0.03890000  1
  H  H17  1  0.10090000  0.43190000  0.87740000  1
  H  H18  1  0.08000000  0.42560000  0.73830000  1
  H  H19  1  0.07450000  0.41330000  0.57540000  1
  H  H20  1  0.76810000  0.26830000  0.58980000  1
  H  H21  1  0.77860000  0.26560000  0.20680000  1
  H  H22  1  0.73170000  0.23190000  0.41020000  1
  H  H23  1  0.73440000  0.22140000  0.79320000  1
  H  H24  1  0.43200000  0.11720000  0.03890000  1
  H  H25  1  0.43190000  0.10090000  0.87740000  1
  H  H26  1  0.42560000  0.08000000  0.73830000  1
  H  H27  1  0.41330000  0.07450000  0.57540000  1
  C  C28  1  0.26020000  0.95940000  0.33370000  1
  C  C29  1  0.65630000  0.85330000  0.39110000  1
  C  C30  1  0.64700000  0.84920000  0.29430000  1
  C  C31  1  0.63950000  0.82430000  0.09230000  1
  C  C32  1  0.64120000  0.81280000  0.99370000  1
  C  C33  1  0.24660000  0.79060000  0.34530000  1
  C  C34  1  0.44960000  0.75620000  0.71640000  1
  C  C35  1  0.20940000  0.75340000  0.65470000  1
  C  C36  1  0.28060000  0.74640000  0.72830000  1
  C  C37  1  0.74300000  0.74300000  0.24600000  1
  C  C38  1  0.04060000  0.73980000  0.66630000  1
  C  C39  1  0.73430000  0.73430000  0.14110000  1
  C  C40  1  0.25360000  0.71940000  0.27170000  1
  C  C41  1  0.85330000  0.65630000  0.39110000  1
  C  C42  1  0.84920000  0.64700000  0.29430000  1
  C  C43  1  0.81280000  0.64120000  0.99370000  1
  C  C44  1  0.82430000  0.63950000  0.09230000  1
  C  C45  1  0.24380000  0.55040000  0.28360000  1
  C  C46  1  0.75620000  0.44960000  0.71640000  1
  C  C47  1  0.17570000  0.36050000  0.90770000  1
  C  C48  1  0.18720000  0.35880000  0.00630000  1
  C  C49  1  0.15080000  0.35300000  0.70570000  1
  C  C50  1  0.14670000  0.34370000  0.60890000  1
  C  C51  1  0.74640000  0.28060000  0.72830000  1
  C  C52  1  0.26570000  0.26570000  0.85890000  1
  C  C53  1  0.95940000  0.26020000  0.33370000  1
  C  C54  1  0.25700000  0.25700000  0.75400000  1
  C  C55  1  0.71940000  0.25360000  0.27170000  1
  C  C56  1  0.79060000  0.24660000  0.34530000  1
  C  C57  1  0.55040000  0.24380000  0.28360000  1
  C  C58  1  0.75340000  0.20940000  0.65470000  1
  C  C59  1  0.35880000  0.18720000  0.00630000  1
  C  C60  1  0.36050000  0.17570000  0.90770000  1
  C  C61  1  0.35300000  0.15080000  0.70570000  1
  C  C62  1  0.34370000  0.14670000  0.60890000  1
  C  C63  1  0.73980000  0.04060000  0.66630000  1
  N  N64  1  0.75940000  0.75940000  0.43880000  1
  N  N65  1  0.72450000  0.72450000  0.94540000  1
  N  N66  1  0.27550000  0.27550000  0.05460000  1
  N  N67  1  0.24060000  0.24060000  0.56120000  1
  O  O68  1  0.74700000  0.99000000  0.58840000  1
  O  O69  1  0.72180000  0.96460000  0.75260000  1
  O  O70  1  0.52790000  0.77210000  0.63220000  1
  O  O71  1  0.99000000  0.74700000  0.58840000  1
  O  O72  1  0.50190000  0.74430000  0.79580000  1
  O  O73  1  0.96460000  0.72180000  0.75260000  1
  O  O74  1  0.77210000  0.52790000  0.63220000  1
  O  O75  1  0.74430000  0.50190000  0.79580000  1
  O  O76  1  0.25570000  0.49810000  0.20420000  1
  O  O77  1  0.22790000  0.47210000  0.36780000  1
  O  O78  1  0.03540000  0.27820000  0.24740000  1
  O  O79  1  0.49810000  0.25570000  0.20420000  1
  O  O80  1  0.01000000  0.25300000  0.41160000  1
  O  O81  1  0.47210000  0.22790000  0.36780000  1
  O  O82  1  0.27820000  0.03540000  0.24740000  1
  O  O83  1  0.25300000  0.01000000  0.41160000  1
