# generated using pymatgen
data_InH4C12(NO2)4
_symmetry_space_group_name_H-M   'P 1'
_cell_length_a   9.15900000
_cell_length_b   9.15900000
_cell_length_c   13.83232254
_cell_angle_alpha   109.33387776
_cell_angle_beta   109.33387776
_cell_angle_gamma   90.00000000
_symmetry_Int_Tables_number   1
_chemical_formula_structural   InH4C12(NO2)4
_chemical_formula_sum   'In2 H8 C24 N8 O16'
_cell_volume   1025.31229202
_cell_formula_units_Z   2
loop_
 _symmetry_equiv_pos_site_id
 _symmetry_equiv_pos_as_xyz
  1  'x, y, z'
loop_
 _atom_site_type_symbol
 _atom_site_label
 _atom_site_symmetry_multiplicity
 _atom_site_fract_x
 _atom_site_fract_y
 _atom_site_fract_z
 _atom_site_occupancy
  C  C0  1  0.64360000  0.97650000  0.05340000  1
  C  C1  1  0.59020000  0.42310000  0.94660000  1
  C  C2  1  0.64985000  0.56085000  0.03550000  1
  C  C3  1  0.61435000  0.02535000  0.96450000  1
  C  C4  1  0.83459000  0.69319000  0.38478000  1
  C  C5  1  0.44981000  0.80841000  0.61522000  1
  C  C6  1  0.92310000  0.85640000  0.44660000  1
  C  C7  1  0.47650000  0.90980000  0.55340000  1
  C  C8  1  0.93915000  0.11435000  0.46450000  1
  C  C9  1  0.47465000  0.14985000  0.53550000  1
  C  C10  1  0.80681000  0.94981000  0.11522000  1
  C  C11  1  0.69159000  0.33459000  0.88478000  1
  C  C12  1  0.19319000  0.05019000  0.88478000  1
  C  C13  1  0.30841000  0.66541000  0.11522000  1
  C  C14  1  0.06085000  0.88565000  0.53550000  1
  C  C15  1  0.52535000  0.85015000  0.46450000  1
  C  C16  1  0.07690000  0.14360000  0.55340000  1
  C  C17  1  0.52350000  0.09020000  0.44660000  1
  C  C18  1  0.16541000  0.30681000  0.61522000  1
  C  C19  1  0.55019000  0.19159000  0.38478000  1
  C  C20  1  0.35015000  0.43915000  0.96450000  1
  C  C21  1  0.38565000  0.97465000  0.03550000  1
  C  C22  1  0.35640000  0.02350000  0.94660000  1
  C  C23  1  0.40980000  0.57690000  0.05340000  1
  H  H24  1  0.89990000  0.19570000  0.44160000  1
  H  H25  1  0.45830000  0.25410000  0.55840000  1
  H  H26  1  0.75410000  0.60010000  0.05840000  1
  H  H27  1  0.69570000  0.04170000  0.94160000  1
  H  H28  1  0.24590000  0.39990000  0.94160000  1
  H  H29  1  0.30430000  0.95830000  0.05840000  1
  H  H30  1  0.10010000  0.80430000  0.55840000  1
  H  H31  1  0.54170000  0.74590000  0.44160000  1
  In  In32  1  0.62500000  0.87500000  0.25000000  1
  In  In33  1  0.37500000  0.12500000  0.75000000  1
  N  N34  1  0.55883000  0.63733000  0.08826000  1
  N  N35  1  0.47057000  0.04907000  0.91174000  1
  N  N36  1  0.86267000  0.97057000  0.41174000  1
  N  N37  1  0.45093000  0.05883000  0.58826000  1
  N  N38  1  0.13733000  0.02943000  0.58826000  1
  N  N39  1  0.54907000  0.94117000  0.41174000  1
  N  N40  1  0.44117000  0.36267000  0.91174000  1
  N  N41  1  0.52943000  0.95093000  0.08826000  1
  O  O42  1  0.70851000  0.68131000  0.30402000  1
  O  O43  1  0.40449000  0.87729000  0.69598000  1
  O  O44  1  0.08627000  0.02477000  0.91414000  1
  O  O45  1  0.17213000  0.61063000  0.08586000  1
  O  O46  1  0.47523000  0.67213000  0.58586000  1
  O  O47  1  0.88937000  0.58627000  0.41414000  1
  O  O48  1  0.81869000  0.90449000  0.19598000  1
  O  O49  1  0.62271000  0.20851000  0.80402000  1
  O  O50  1  0.18131000  0.09551000  0.80402000  1
  O  O51  1  0.37729000  0.79149000  0.19598000  1
  O  O52  1  0.52477000  0.32787000  0.41414000  1
  O  O53  1  0.11063000  0.41373000  0.58586000  1
  O  O54  1  0.91373000  0.97523000  0.08586000  1
  O  O55  1  0.82787000  0.38937000  0.91414000  1
  O  O56  1  0.29149000  0.31869000  0.69598000  1
  O  O57  1  0.59551000  0.12271000  0.30402000  1
