# generated using pymatgen
data_ZnH20C28(NO2)2
_symmetry_space_group_name_H-M   'P 1'
_cell_length_a   8.71500000
_cell_length_b   12.93400000
_cell_length_c   14.06049969
_cell_angle_alpha   62.61670247
_cell_angle_beta   83.68600590
_cell_angle_gamma   76.16590000
_symmetry_Int_Tables_number   1
_chemical_formula_structural   ZnH20C28(NO2)2
_chemical_formula_sum   'Zn2 H40 C56 N4 O8'
_cell_volume   1366.48537095
_cell_formula_units_Z   2
loop_
 _symmetry_equiv_pos_site_id
 _symmetry_equiv_pos_as_xyz
  1  'x, y, z'
loop_
 _atom_site_type_symbol
 _atom_site_label
 _atom_site_symmetry_multiplicity
 _atom_site_fract_x
 _atom_site_fract_y
 _atom_site_fract_z
 _atom_site_occupancy
  Zn  Zn0  1  0.63243000  0.43639000  0.82246000  1
  Zn  Zn1  1  0.13243000  0.25885000  0.17754000  1
  H  H2  1  0.99850000  0.24390000  0.38280000  1
  H  H3  1  0.94900000  0.81180000  0.10620000  1
  H  H4  1  0.94290000  0.18550000  0.88900000  1
  H  H5  1  0.91740000  0.00060000  0.90500000  1
  H  H6  1  0.90700000  0.43530000  0.46840000  1
  H  H7  1  0.87720000  0.68360000  0.65600000  1
  H  H8  1  0.85620000  0.97960000  0.33520000  1
  H  H9  1  0.85500000  0.64080000  0.13880000  1
  H  H10  1  0.85030000  0.89830000  0.84040000  1
  H  H11  1  0.79130000  0.30820000  0.12580000  1
  H  H12  1  0.76020000  0.78600000  0.77860000  1
  H  H13  1  0.75430000  0.53060000  0.07740000  1
  H  H14  1  0.75170000  0.27960000  0.45900000  1
  H  H15  1  0.64990000  0.79960000  0.60780000  1
  H  H16  1  0.64170000  0.24090000  0.77080000  1
  H  H17  1  0.62150000  0.08010000  0.25680000  1
  H  H18  1  0.56450000  0.06950000  0.83180000  1
  H  H19  1  0.54760000  0.33050000  0.19580000  1
  H  H20  1  0.53250000  0.25110000  0.04560000  1
  H  H21  1  0.52430000  0.32190000  0.51580000  1
  H  H22  1  0.49850000  0.62670000  0.61720000  1
  H  H23  1  0.44900000  0.91800000  0.89380000  1
  H  H24  1  0.44290000  0.07450000  0.11100000  1
  H  H25  1  0.41740000  0.90560000  0.09500000  1
  H  H26  1  0.40700000  0.90370000  0.53160000  1
  H  H27  1  0.37720000  0.33960000  0.34400000  1
  H  H28  1  0.35620000  0.31480000  0.66480000  1
  H  H29  1  0.35500000  0.77960000  0.86120000  1
  H  H30  1  0.35030000  0.73870000  0.15960000  1
  H  H31  1  0.29130000  0.43400000  0.87420000  1
  H  H32  1  0.26020000  0.56460000  0.22140000  1
  H  H33  1  0.25430000  0.60800000  0.92260000  1
  H  H34  1  0.25170000  0.73860000  0.54100000  1
  H  H35  1  0.14990000  0.40740000  0.39220000  1
  H  H36  1  0.14170000  0.01170000  0.22920000  1
  H  H37  1  0.12150000  0.33690000  0.74320000  1
  H  H38  1  0.06450000  0.90130000  0.16820000  1
  H  H39  1  0.04760000  0.52630000  0.80420000  1
  H  H40  1  0.03250000  0.29670000  0.95440000  1
  H  H41  1  0.02430000  0.83770000  0.48420000  1
  C  C42  1  0.99760000  0.41060000  0.50920000  1
  C  C43  1  0.99530000  0.02930000  0.02060000  1
  C  C44  1  0.98360000  0.14890000  0.95800000  1
  C  C45  1  0.98320000  0.39210000  0.61480000  1
  C  C46  1  0.96410000  0.71140000  0.61620000  1
  C  C47  1  0.94120000  0.96270000  0.97760000  1
  C  C48  1  0.93730000  0.80980000  0.52320000  1
  C  C49  1  0.92200000  0.84940000  0.03420000  1
  C  C50  1  0.90700000  0.26180000  0.34480000  1
  C  C51  1  0.86480000  0.78080000  0.99540000  1
  C  C52  1  0.83600000  0.67070000  0.06620000  1
  C  C53  1  0.83500000  0.41630000  0.66320000  1
  C  C54  1  0.83430000  0.82300000  0.88860000  1
  C  C55  1  0.78430000  0.29740000  0.19620000  1
  C  C56  1  0.78020000  0.75640000  0.85100000  1
  C  C57  1  0.78020000  0.87670000  0.47820000  1
  C  C58  1  0.77780000  0.60340000  0.02880000  1
  C  C59  1  0.76510000  0.96280000  0.37520000  1
  C  C60  1  0.75740000  0.28180000  0.39160000  1
  C  C61  1  0.75630000  0.64320000  0.92460000  1
  C  C62  1  0.69830000  0.57910000  0.87880000  1
  C  C63  1  0.64360000  0.85670000  0.53640000  1
  C  C64  1  0.63640000  0.31360000  0.23580000  1
  C  C65  1  0.62500000  0.02440000  0.32840000  1
  C  C66  1  0.62320000  0.30390000  0.33980000  1
  C  C67  1  0.59920000  0.20940000  0.83940000  1
  C  C68  1  0.55510000  0.10600000  0.87640000  1
  C  C69  1  0.53400000  0.21590000  0.00060000  1
  C  C70  1  0.49760000  0.91980000  0.49080000  1
  C  C71  1  0.49530000  0.04990000  0.97940000  1
  C  C72  1  0.48360000  0.10690000  0.04200000  1
  C  C73  1  0.48320000  0.00690000  0.38520000  1
  C  C74  1  0.46410000  0.32760000  0.38380000  1
  C  C75  1  0.44120000  0.94030000  0.02240000  1
  C  C76  1  0.43730000  0.33300000  0.47680000  1
  C  C77  1  0.42200000  0.88360000  0.96580000  1
  C  C78  1  0.40700000  0.60660000  0.65520000  1
  C  C79  1  0.36480000  0.77620000  0.00460000  1
  C  C80  1  0.33600000  0.73690000  0.93380000  1
  C  C81  1  0.33500000  0.07950000  0.33680000  1
  C  C82  1  0.33430000  0.71160000  0.11140000  1
  C  C83  1  0.28430000  0.49360000  0.80380000  1
  C  C84  1  0.28020000  0.35490000  0.52180000  1
  C  C85  1  0.28020000  0.60740000  0.14900000  1
  C  C86  1  0.27780000  0.63220000  0.97120000  1
  C  C87  1  0.26510000  0.33800000  0.62480000  1
  C  C88  1  0.25740000  0.67340000  0.60840000  1
  C  C89  1  0.25630000  0.56780000  0.07540000  1
  C  C90  1  0.19830000  0.45790000  0.12120000  1
  C  C91  1  0.14360000  0.39310000  0.46360000  1
  C  C92  1  0.13640000  0.54940000  0.76420000  1
  C  C93  1  0.12500000  0.35280000  0.67160000  1
  C  C94  1  0.12320000  0.64370000  0.66020000  1
  C  C95  1  0.09920000  0.04880000  0.16060000  1
  C  C96  1  0.05510000  0.98240000  0.12360000  1
  C  C97  1  0.03400000  0.21650000  0.99940000  1
  N  N98  1  0.91860000  0.26840000  0.24520000  1
  N  N99  1  0.58460000  0.27120000  0.89780000  1
  N  N100  1  0.41860000  0.51360000  0.75480000  1
  N  N101  1  0.08460000  0.16900000  0.10220000  1
  O  O102  1  0.83690000  0.39680000  0.76020000  1
  O  O103  1  0.71140000  0.44580000  0.61200000  1
  O  O104  1  0.68350000  0.46720000  0.94280000  1
  O  O105  1  0.66930000  0.61780000  0.78300000  1
  O  O106  1  0.33690000  0.15700000  0.23980000  1
  O  O107  1  0.21140000  0.05780000  0.38800000  1
  O  O108  1  0.18350000  0.41000000  0.05720000  1
  O  O109  1  0.16930000  0.40080000  0.21700000  1
