# generated using pymatgen
data_Ag5H40(C7N6)4
_symmetry_space_group_name_H-M   'P 1'
_cell_length_a   11.84000000
_cell_length_b   13.11900000
_cell_length_c   22.80900000
_cell_angle_alpha   90.00000000
_cell_angle_beta   90.00000000
_cell_angle_gamma   91.94600000
_symmetry_Int_Tables_number   1
_chemical_formula_structural   Ag5H40(C7N6)4
_chemical_formula_sum   'Ag10 H80 C56 N48'
_cell_volume   3540.85497119
_cell_formula_units_Z   2
loop_
 _symmetry_equiv_pos_site_id
 _symmetry_equiv_pos_as_xyz
  1  'x, y, z'
loop_
 _atom_site_type_symbol
 _atom_site_label
 _atom_site_symmetry_multiplicity
 _atom_site_fract_x
 _atom_site_fract_y
 _atom_site_fract_z
 _atom_site_occupancy
  Ag  Ag0  1  0.89026000  0.11671000  0.70169000  1
  Ag  Ag1  1  0.39026000  0.11671000  0.79831000  1
  Ag  Ag2  1  0.27507000  0.24028000  0.21330000  1
  Ag  Ag3  1  0.77507000  0.24028000  0.28670000  1
  Ag  Ag4  1  1.00000000  0.50000000  0.00000000  1
  Ag  Ag5  1  0.50000000  0.50000000  0.50000000  1
  Ag  Ag6  1  0.22493000  0.75972000  0.71330000  1
  Ag  Ag7  1  0.72493000  0.75972000  0.78670000  1
  Ag  Ag8  1  0.60974000  0.88329000  0.20169000  1
  Ag  Ag9  1  0.10974000  0.88329000  0.29831000  1
  H  H10  1  0.54290000  0.03620000  0.08500000  1
  H  H11  1  0.04290000  0.03620000  0.41500000  1
  H  H12  1  0.42860000  0.04880000  0.24350000  1
  H  H13  1  0.92860000  0.04880000  0.25650000  1
  H  H14  1  0.61500000  0.12570000  0.70070000  1
  H  H15  1  0.11500000  0.12570000  0.79930000  1
  H  H16  1  0.43980000  0.19080000  0.04160000  1
  H  H17  1  0.93980000  0.19080000  0.45840000  1
  H  H18  1  0.36630000  0.25340000  0.08510000  1
  H  H19  1  0.86630000  0.25340000  0.41490000  1
  H  H20  1  0.60310000  0.26750000  0.09910000  1
  H  H21  1  0.10310000  0.26750000  0.40090000  1
  H  H22  1  0.02990000  0.28450000  0.63190000  1
  H  H23  1  0.52990000  0.28450000  0.86810000  1
  H  H24  1  0.30800000  0.28480000  0.69630000  1
  H  H25  1  0.80800000  0.28480000  0.80370000  1
  H  H26  1  0.00620000  0.28730000  0.20180000  1
  H  H27  1  0.50620000  0.28730000  0.29820000  1
  H  H28  1  0.06830000  0.30730000  0.50040000  1
  H  H29  1  0.56830000  0.30730000  0.99960000  1
  H  H30  1  0.15270000  0.32490000  0.61700000  1
  H  H31  1  0.65270000  0.32490000  0.88300000  1
  H  H32  1  0.79230000  0.33500000  0.01440000  1
  H  H33  1  0.29230000  0.33500000  0.48560000  1
  H  H34  1  0.51620000  0.34970000  0.11670000  1
  H  H35  1  0.01620000  0.34970000  0.38330000  1
  H  H36  1  0.71720000  0.37880000  0.55670000  1
  H  H37  1  0.21720000  0.37880000  0.94330000  1
  H  H38  1  0.98270000  0.38140000  0.73890000  1
  H  H39  1  0.48270000  0.38140000  0.76110000  1
  H  H40  1  0.49620000  0.39860000  0.02160000  1
  H  H41  1  0.99620000  0.39860000  0.47840000  1
  H  H42  1  0.90100000  0.39950000  0.68630000  1
  H  H43  1  0.40100000  0.39950000  0.81370000  1
  H  H44  1  0.72690000  0.45580000  0.21820000  1
  H  H45  1  0.22690000  0.45580000  0.28180000  1
  H  H46  1  0.12870000  0.46240000  0.68440000  1
  H  H47  1  0.62870000  0.46240000  0.81560000  1
  H  H48  1  0.04550000  0.46680000  0.63110000  1
  H  H49  1  0.54550000  0.46680000  0.86890000  1
  H  H50  1  0.45450000  0.53320000  0.13110000  1
  H  H51  1  0.95450000  0.53320000  0.36890000  1
  H  H52  1  0.37130000  0.53760000  0.18440000  1
  H  H53  1  0.87130000  0.53760000  0.31560000  1
  H  H54  1  0.77310000  0.54420000  0.71820000  1
  H  H55  1  0.27310000  0.54420000  0.78180000  1
  H  H56  1  0.59900000  0.60050000  0.18630000  1
  H  H57  1  0.09900000  0.60050000  0.31370000  1
  H  H58  1  0.00380000  0.60140000  0.52160000  1
  H  H59  1  0.50380000  0.60140000  0.97840000  1
  H  H60  1  0.51730000  0.61860000  0.23890000  1
  H  H61  1  0.01730000  0.61860000  0.26110000  1
  H  H62  1  0.78280000  0.62120000  0.05670000  1
  H  H63  1  0.28280000  0.62120000  0.44330000  1
  H  H64  1  0.98380000  0.65030000  0.61670000  1
  H  H65  1  0.48380000  0.65030000  0.88330000  1
  H  H66  1  0.70770000  0.66500000  0.51440000  1
  H  H67  1  0.20770000  0.66500000  0.98560000  1
  H  H68  1  0.34730000  0.67510000  0.11700000  1
  H  H69  1  0.84730000  0.67510000  0.38300000  1
  H  H70  1  0.43170000  0.69270000  0.00040000  1
  H  H71  1  0.93170000  0.69270000  0.49960000  1
  H  H72  1  0.49380000  0.71270000  0.70180000  1
  H  H73  1  0.99380000  0.71270000  0.79820000  1
  H  H74  1  0.19200000  0.71520000  0.19630000  1
  H  H75  1  0.69200000  0.71520000  0.30370000  1
  H  H76  1  0.47010000  0.71550000  0.13190000  1
  H  H77  1  0.97010000  0.71550000  0.36810000  1
  H  H78  1  0.89690000  0.73250000  0.59910000  1
  H  H79  1  0.39690000  0.73250000  0.90090000  1
  H  H80  1  0.13370000  0.74660000  0.58510000  1
  H  H81  1  0.63370000  0.74660000  0.91490000  1
  H  H82  1  0.06020000  0.80920000  0.54160000  1
  H  H83  1  0.56020000  0.80920000  0.95840000  1
  H  H84  1  0.88500000  0.87430000  0.20070000  1
  H  H85  1  0.38500000  0.87430000  0.29930000  1
  H  H86  1  0.07140000  0.95120000  0.74350000  1
  H  H87  1  0.57140000  0.95120000  0.75650000  1
  H  H88  1  0.95710000  0.96380000  0.58500000  1
  H  H89  1  0.45710000  0.96380000  0.91500000  1
  C  C90  1  0.50710000  0.05750000  0.11900000  1
  C  C91  1  0.00710000  0.05750000  0.38100000  1
  C  C92  1  0.44490000  0.06650000  0.20480000  1
  C  C93  1  0.94490000  0.06650000  0.29520000  1
  C  C94  1  0.63970000  0.16950000  0.73040000  1
  C  C95  1  0.13970000  0.16950000  0.76960000  1
  C  C96  1  0.43800000  0.22080000  0.08040000  1
  C  C97  1  0.93800000  0.22080000  0.41960000  1
  C  C98  1  0.24490000  0.25430000  0.71430000  1
  C  C99  1  0.74490000  0.25430000  0.78570000  1
  C  C100  1  0.53540000  0.30090000  0.08660000  1
  C  C101  1  0.03540000  0.30090000  0.41340000  1
  C  C102  1  0.09610000  0.32030000  0.64770000  1
  C  C103  1  0.59610000  0.32030000  0.85230000  1
  C  C104  1  0.03920000  0.34120000  0.22290000  1
  C  C105  1  0.53920000  0.34120000  0.27710000  1
  C  C106  1  0.55800000  0.35510000  0.03140000  1
  C  C107  1  0.05800000  0.35510000  0.46860000  1
  C  C108  1  0.76640000  0.39770000  0.02660000  1
  C  C109  1  0.26640000  0.39770000  0.47340000  1
  C  C110  1  0.96690000  0.42740000  0.70680000  1
  C  C111  1  0.46690000  0.42740000  0.79320000  1
  C  C112  1  0.06420000  0.42830000  0.66580000  1
  C  C113  1  0.56420000  0.42830000  0.83420000  1
  C  C114  1  0.65950000  0.43010000  0.23420000  1
  C  C115  1  0.15950000  0.43010000  0.26580000  1
  C  C116  1  0.73880000  0.44650000  0.54960000  1
  C  C117  1  0.23880000  0.44650000  0.95040000  1
  C  C118  1  0.76120000  0.55350000  0.04960000  1
  C  C119  1  0.26120000  0.55350000  0.45040000  1
  C  C120  1  0.84050000  0.56990000  0.73420000  1
  C  C121  1  0.34050000  0.56990000  0.76580000  1
  C  C122  1  0.43580000  0.57170000  0.16580000  1
  C  C123  1  0.93580000  0.57170000  0.33420000  1
  C  C124  1  0.53310000  0.57260000  0.20680000  1
  C  C125  1  0.03310000  0.57260000  0.29320000  1
  C  C126  1  0.73360000  0.60230000  0.52660000  1
  C  C127  1  0.23360000  0.60230000  0.97340000  1
  C  C128  1  0.94200000  0.64490000  0.53140000  1
  C  C129  1  0.44200000  0.64490000  0.96860000  1
  C  C130  1  0.46080000  0.65880000  0.72290000  1
  C  C131  1  0.96080000  0.65880000  0.77710000  1
  C  C132  1  0.40390000  0.67970000  0.14770000  1
  C  C133  1  0.90390000  0.67970000  0.35230000  1
  C  C134  1  0.96460000  0.69910000  0.58660000  1
  C  C135  1  0.46460000  0.69910000  0.91340000  1
  C  C136  1  0.25510000  0.74570000  0.21430000  1
  C  C137  1  0.75510000  0.74570000  0.28570000  1
  C  C138  1  0.06200000  0.77920000  0.58040000  1
  C  C139  1  0.56200000  0.77920000  0.91960000  1
  C  C140  1  0.86030000  0.83050000  0.23040000  1
  C  C141  1  0.36030000  0.83050000  0.26960000  1
  C  C142  1  0.05510000  0.93350000  0.70480000  1
  C  C143  1  0.55510000  0.93350000  0.79520000  1
  C  C144  1  0.99290000  0.94250000  0.61900000  1
  C  C145  1  0.49290000  0.94250000  0.88100000  1
  N  N146  1  0.50680000  0.00940000  0.16980000  1
  N  N147  1  0.00680000  0.00940000  0.33020000  1
  N  N148  1  0.44790000  0.14160000  0.12410000  1
  N  N149  1  0.94790000  0.14160000  0.37590000  1
  N  N150  1  0.40880000  0.14950000  0.18040000  1
  N  N151  1  0.90880000  0.14950000  0.31960000  1
  N  N152  1  0.74760000  0.19610000  0.73790000  1
  N  N153  1  0.24760000  0.19610000  0.76210000  1
  N  N154  1  0.07020000  0.20960000  0.73200000  1
  N  N155  1  0.57020000  0.20960000  0.76800000  1
  N  N156  1  0.13940000  0.26250000  0.69590000  1
  N  N157  1  0.63940000  0.26250000  0.80410000  1
  N  N158  1  0.14860000  0.34410000  0.23720000  1
  N  N159  1  0.64860000  0.34410000  0.26280000  1
  N  N160  1  0.66300000  0.41660000  0.04200000  1
  N  N161  1  0.16300000  0.41660000  0.45800000  1
  N  N162  1  0.98070000  0.41930000  0.24050000  1
  N  N163  1  0.48070000  0.41930000  0.25950000  1
  N  N164  1  0.56110000  0.47590000  0.23110000  1
  N  N165  1  0.06110000  0.47590000  0.26890000  1
  N  N166  1  0.82720000  0.48230000  0.03130000  1
  N  N167  1  0.32720000  0.48230000  0.46870000  1
  N  N168  1  0.84020000  0.48710000  0.55630000  1
  N  N169  1  0.34020000  0.48710000  0.94370000  1
  N  N170  1  0.65980000  0.51290000  0.05630000  1
  N  N171  1  0.15980000  0.51290000  0.44370000  1
  N  N172  1  0.67280000  0.51770000  0.53130000  1
  N  N173  1  0.17280000  0.51770000  0.96870000  1
  N  N174  1  0.93890000  0.52410000  0.73110000  1
  N  N175  1  0.43890000  0.52410000  0.76890000  1
  N  N176  1  0.51930000  0.58070000  0.74050000  1
  N  N177  1  0.01930000  0.58070000  0.75950000  1
  N  N178  1  0.83700000  0.58340000  0.54200000  1
  N  N179  1  0.33700000  0.58340000  0.95800000  1
  N  N180  1  0.35140000  0.65590000  0.73720000  1
  N  N181  1  0.85140000  0.65590000  0.76280000  1
  N  N182  1  0.36060000  0.73750000  0.19590000  1
  N  N183  1  0.86060000  0.73750000  0.30410000  1
  N  N184  1  0.42980000  0.79040000  0.23200000  1
  N  N185  1  0.92980000  0.79040000  0.26800000  1
  N  N186  1  0.75240000  0.80390000  0.23790000  1
  N  N187  1  0.25240000  0.80390000  0.26210000  1
  N  N188  1  0.09120000  0.85050000  0.68040000  1
  N  N189  1  0.59120000  0.85050000  0.81960000  1
  N  N190  1  0.05210000  0.85840000  0.62410000  1
  N  N191  1  0.55210000  0.85840000  0.87590000  1
  N  N192  1  0.99320000  0.99060000  0.66980000  1
  N  N193  1  0.49320000  0.99060000  0.83020000  1
