# generated using pymatgen
data_CuH6C6(NO)2
_symmetry_space_group_name_H-M   'P 1'
_cell_length_a   10.99310000
_cell_length_b   10.99310000
_cell_length_c   18.08500000
_cell_angle_alpha   90.00000000
_cell_angle_beta   90.00000000
_cell_angle_gamma   90.00000000
_symmetry_Int_Tables_number   1
_chemical_formula_structural   CuH6C6(NO)2
_chemical_formula_sum   'Cu8 H48 C48 N16 O16'
_cell_volume   2185.54055803
_cell_formula_units_Z   8
loop_
 _symmetry_equiv_pos_site_id
 _symmetry_equiv_pos_as_xyz
  1  'x, y, z'
loop_
 _atom_site_type_symbol
 _atom_site_label
 _atom_site_symmetry_multiplicity
 _atom_site_fract_x
 _atom_site_fract_y
 _atom_site_fract_z
 _atom_site_occupancy
  Cu  Cu0  1  0.10067000  0.59223000  0.61556000  1
  Cu  Cu1  1  0.10803000  0.61646000  0.10612000  1
  Cu  Cu2  1  0.38354000  0.10803000  0.85612000  1
  Cu  Cu3  1  0.40777000  0.10067000  0.36556000  1
  Cu  Cu4  1  0.59223000  0.89933000  0.86556000  1
  Cu  Cu5  1  0.61646000  0.89197000  0.35612000  1
  Cu  Cu6  1  0.89197000  0.38354000  0.60612000  1
  Cu  Cu7  1  0.89933000  0.40777000  0.11556000  1
  H  H8  1  0.00730000  0.86450000  0.55920000  1
  H  H9  1  0.02990000  0.83410000  0.95930000  1
  H  H10  1  0.04060000  0.85830000  0.04450000  1
  H  H11  1  0.05380000  0.10840000  0.98260000  1
  H  H12  1  0.06510000  0.81320000  0.48640000  1
  H  H13  1  0.06660000  0.08400000  0.49930000  1
  H  H14  1  0.08400000  0.93340000  0.74930000  1
  H  H15  1  0.10840000  0.94620000  0.23260000  1
  H  H16  1  0.13550000  0.00730000  0.30920000  1
  H  H17  1  0.14170000  0.04060000  0.79450000  1
  H  H18  1  0.16590000  0.02990000  0.70930000  1
  H  H19  1  0.18680000  0.06510000  0.23640000  1
  H  H20  1  0.31670000  0.58670000  0.01200000  1
  H  H21  1  0.33210000  0.51930000  0.93620000  1
  H  H22  1  0.34570000  0.53440000  0.56370000  1
  H  H23  1  0.35780000  0.51510000  0.47810000  1
  H  H24  1  0.40350000  0.47390000  0.00600000  1
  H  H25  1  0.41330000  0.31670000  0.76200000  1
  H  H26  1  0.41850000  0.42270000  0.53290000  1
  H  H27  1  0.42270000  0.58150000  0.78290000  1
  H  H28  1  0.46560000  0.34570000  0.31370000  1
  H  H29  1  0.47390000  0.59650000  0.25600000  1
  H  H30  1  0.48070000  0.33210000  0.68620000  1
  H  H31  1  0.48490000  0.35780000  0.22810000  1
  H  H32  1  0.51510000  0.64220000  0.72810000  1
  H  H33  1  0.51930000  0.66790000  0.18620000  1
  H  H34  1  0.52610000  0.40350000  0.75600000  1
  H  H35  1  0.53440000  0.65430000  0.81370000  1
  H  H36  1  0.57730000  0.41850000  0.28290000  1
  H  H37  1  0.58150000  0.57730000  0.03290000  1
  H  H38  1  0.58670000  0.68330000  0.26200000  1
  H  H39  1  0.59650000  0.52610000  0.50600000  1
  H  H40  1  0.64220000  0.48490000  0.97810000  1
  H  H41  1  0.65430000  0.46560000  0.06370000  1
  H  H42  1  0.66790000  0.48070000  0.43620000  1
  H  H43  1  0.68330000  0.41330000  0.51200000  1
  H  H44  1  0.81320000  0.93490000  0.73640000  1
  H  H45  1  0.83410000  0.97010000  0.20930000  1
  H  H46  1  0.85830000  0.95940000  0.29450000  1
  H  H47  1  0.86450000  0.99270000  0.80920000  1
  H  H48  1  0.89160000  0.05380000  0.73260000  1
  H  H49  1  0.91600000  0.06660000  0.24930000  1
  H  H50  1  0.93340000  0.91600000  0.99930000  1
  H  H51  1  0.93490000  0.18680000  0.98640000  1
  H  H52  1  0.94620000  0.89160000  0.48260000  1
  H  H53  1  0.95940000  0.14170000  0.54450000  1
  H  H54  1  0.97010000  0.16590000  0.45930000  1
  H  H55  1  0.99270000  0.13550000  0.05920000  1
  C  C56  1  0.00990000  0.16770000  0.01100000  1
  C  C57  1  0.01510000  0.15410000  0.50420000  1
  C  C58  1  0.08720000  0.28410000  0.01860000  1
  C  C59  1  0.09370000  0.26730000  0.51980000  1
  C  C60  1  0.15410000  0.98490000  0.75420000  1
  C  C61  1  0.16770000  0.99010000  0.26100000  1
  C  C62  1  0.19510000  0.30680000  0.98390000  1
  C  C63  1  0.20850000  0.28680000  0.49550000  1
  C  C64  1  0.21590000  0.71540000  0.69620000  1
  C  C65  1  0.22690000  0.42800000  0.00790000  1
  C  C66  1  0.23340000  0.73440000  0.18260000  1
  C  C67  1  0.24200000  0.40450000  0.52520000  1
  C  C68  1  0.26560000  0.23340000  0.93260000  1
  C  C69  1  0.26730000  0.90630000  0.76980000  1
  C  C70  1  0.28410000  0.91280000  0.26860000  1
  C  C71  1  0.28460000  0.21590000  0.44620000  1
  C  C72  1  0.28680000  0.79150000  0.74550000  1
  C  C73  1  0.30680000  0.80490000  0.23390000  1
  C  C74  1  0.32860000  0.50900000  0.98890000  1
  C  C75  1  0.34960000  0.47480000  0.52500000  1
  C  C76  1  0.40450000  0.75800000  0.77520000  1
  C  C77  1  0.42800000  0.77310000  0.25790000  1
  C  C78  1  0.47480000  0.65040000  0.77500000  1
  C  C79  1  0.49100000  0.32860000  0.73890000  1
  C  C80  1  0.50900000  0.67140000  0.23890000  1
  C  C81  1  0.52520000  0.34960000  0.27500000  1
  C  C82  1  0.57200000  0.22690000  0.75790000  1
  C  C83  1  0.59550000  0.24200000  0.27520000  1
  C  C84  1  0.65040000  0.52520000  0.02500000  1
  C  C85  1  0.67140000  0.49100000  0.48890000  1
  C  C86  1  0.69320000  0.19510000  0.73390000  1
  C  C87  1  0.71320000  0.20850000  0.24550000  1
  C  C88  1  0.71540000  0.78410000  0.94620000  1
  C  C89  1  0.71590000  0.08720000  0.76860000  1
  C  C90  1  0.73270000  0.09370000  0.26980000  1
  C  C91  1  0.73440000  0.76660000  0.43260000  1
  C  C92  1  0.75800000  0.59550000  0.02520000  1
  C  C93  1  0.76660000  0.26560000  0.68260000  1
  C  C94  1  0.77310000  0.57200000  0.50790000  1
  C  C95  1  0.78410000  0.28460000  0.19620000  1
  C  C96  1  0.79150000  0.71320000  0.99550000  1
  C  C97  1  0.80490000  0.69320000  0.48390000  1
  C  C98  1  0.83230000  0.00990000  0.76100000  1
  C  C99  1  0.84590000  0.01510000  0.25420000  1
  C  C100  1  0.90630000  0.73270000  0.01980000  1
  C  C101  1  0.91280000  0.71590000  0.51860000  1
  C  C102  1  0.98490000  0.84590000  0.00420000  1
  C  C103  1  0.99010000  0.83230000  0.51100000  1
  N  N104  1  0.04640000  0.37500000  0.05690000  1
  N  N105  1  0.04790000  0.35450000  0.55860000  1
  N  N106  1  0.13540000  0.46480000  0.05150000  1
  N  N107  1  0.14080000  0.43720000  0.56580000  1
  N  N108  1  0.35450000  0.95210000  0.80860000  1
  N  N109  1  0.37500000  0.95360000  0.30690000  1
  N  N110  1  0.43720000  0.85920000  0.81580000  1
  N  N111  1  0.46480000  0.86460000  0.30150000  1
  N  N112  1  0.53520000  0.13540000  0.80150000  1
  N  N113  1  0.56280000  0.14080000  0.31580000  1
  N  N114  1  0.62500000  0.04640000  0.80690000  1
  N  N115  1  0.64550000  0.04790000  0.30860000  1
  N  N116  1  0.85920000  0.56280000  0.06580000  1
  N  N117  1  0.86460000  0.53520000  0.55150000  1
  N  N118  1  0.95210000  0.64550000  0.05860000  1
  N  N119  1  0.95360000  0.62500000  0.55690000  1
  O  O120  1  0.11480000  0.75310000  0.66810000  1
  O  O121  1  0.12820000  0.77360000  0.16320000  1
  O  O122  1  0.22640000  0.12820000  0.91320000  1
  O  O123  1  0.24690000  0.11480000  0.41810000  1
  O  O124  1  0.25020000  0.61060000  0.67810000  1
  O  O125  1  0.26730000  0.63630000  0.15710000  1
  O  O126  1  0.36370000  0.26730000  0.90710000  1
  O  O127  1  0.38940000  0.25020000  0.42810000  1
  O  O128  1  0.61060000  0.74980000  0.92810000  1
  O  O129  1  0.63630000  0.73270000  0.40710000  1
  O  O130  1  0.73270000  0.36370000  0.65710000  1
  O  O131  1  0.74980000  0.38940000  0.17810000  1
  O  O132  1  0.75310000  0.88520000  0.91810000  1
  O  O133  1  0.77360000  0.87180000  0.41320000  1
  O  O134  1  0.87180000  0.22640000  0.66320000  1
  O  O135  1  0.88520000  0.24690000  0.16810000  1
