# generated using pymatgen
data_Nd(CO)6
_symmetry_space_group_name_H-M   'P 1'
_cell_length_a   8.59470000
_cell_length_b   9.64620000
_cell_length_c   13.18700000
_cell_angle_alpha   90.00000000
_cell_angle_beta   90.00000000
_cell_angle_gamma   96.49600000
_symmetry_Int_Tables_number   1
_chemical_formula_structural   Nd(CO)6
_chemical_formula_sum   'Nd4 C24 O24'
_cell_volume   1086.26484566
_cell_formula_units_Z   4
loop_
 _symmetry_equiv_pos_site_id
 _symmetry_equiv_pos_as_xyz
  1  'x, y, z'
loop_
 _atom_site_type_symbol
 _atom_site_label
 _atom_site_symmetry_multiplicity
 _atom_site_fract_x
 _atom_site_fract_y
 _atom_site_fract_z
 _atom_site_occupancy
  Nd  Nd0  1  0.95044000  0.00342000  0.76554000  1
  Nd  Nd1  1  0.54956000  0.49658000  0.26554000  1
  Nd  Nd2  1  0.45044000  0.50342000  0.73446000  1
  Nd  Nd3  1  0.04956000  0.99658000  0.23446000  1
  C  C4  1  0.97330000  0.62390000  0.95190000  1
  C  C5  1  0.95520000  0.75300000  0.89050000  1
  C  C6  1  0.90730000  0.37290000  0.97440000  1
  C  C7  1  0.87970000  0.49950000  0.92730000  1
  C  C8  1  0.80310000  0.23840000  0.94900000  1
  C  C9  1  0.76080000  0.99670000  0.35830000  1
  C  C10  1  0.73920000  0.50330000  0.85830000  1
  C  C11  1  0.69690000  0.26160000  0.44900000  1
  C  C12  1  0.62030000  0.00050000  0.42730000  1
  C  C13  1  0.59270000  0.12710000  0.47440000  1
  C  C14  1  0.54480000  0.74700000  0.39050000  1
  C  C15  1  0.52670000  0.87610000  0.45190000  1
  C  C16  1  0.47330000  0.12390000  0.54810000  1
  C  C17  1  0.45520000  0.25300000  0.60950000  1
  C  C18  1  0.40730000  0.87290000  0.52560000  1
  C  C19  1  0.37970000  0.99950000  0.57270000  1
  C  C20  1  0.30310000  0.73840000  0.55100000  1
  C  C21  1  0.26080000  0.49670000  0.14170000  1
  C  C22  1  0.23920000  0.00330000  0.64170000  1
  C  C23  1  0.19690000  0.76160000  0.05100000  1
  C  C24  1  0.12030000  0.50050000  0.07270000  1
  C  C25  1  0.09270000  0.62710000  0.02560000  1
  C  C26  1  0.04480000  0.24700000  0.10950000  1
  C  C27  1  0.02670000  0.37610000  0.04810000  1
  O  O28  1  0.95330000  0.86990000  0.93350000  1
  O  O29  1  0.94630000  0.74150000  0.79400000  1
  O  O30  1  0.85320000  0.90370000  0.37600000  1
  O  O31  1  0.85160000  0.15880000  0.88420000  1
  O  O32  1  0.82830000  0.28100000  0.49230000  1
  O  O33  1  0.78800000  0.08560000  0.28830000  1
  O  O34  1  0.71200000  0.41440000  0.78830000  1
  O  O35  1  0.67170000  0.21900000  0.99230000  1
  O  O36  1  0.64840000  0.34120000  0.38420000  1
  O  O37  1  0.64680000  0.59630000  0.87600000  1
  O  O38  1  0.55370000  0.75850000  0.29400000  1
  O  O39  1  0.54670000  0.63010000  0.43350000  1
  O  O40  1  0.45330000  0.36990000  0.56650000  1
  O  O41  1  0.44630000  0.24150000  0.70600000  1
  O  O42  1  0.35320000  0.40370000  0.12400000  1
  O  O43  1  0.35160000  0.65880000  0.61580000  1
  O  O44  1  0.32830000  0.78100000  0.00770000  1
  O  O45  1  0.28800000  0.58560000  0.21170000  1
  O  O46  1  0.21200000  0.91440000  0.71170000  1
  O  O47  1  0.17170000  0.71900000  0.50770000  1
  O  O48  1  0.14840000  0.84120000  0.11580000  1
  O  O49  1  0.14680000  0.09630000  0.62400000  1
  O  O50  1  0.05370000  0.25850000  0.20600000  1
  O  O51  1  0.04670000  0.13010000  0.06650000  1
