# generated using pymatgen
data_MnH4(C2O)4
_symmetry_space_group_name_H-M   'P 1'
_cell_length_a   10.77680000
_cell_length_b   13.50570000
_cell_length_c   14.42480000
_cell_angle_alpha   76.58720000
_cell_angle_beta   68.06520000
_cell_angle_gamma   66.48610000
_symmetry_Int_Tables_number   1
_chemical_formula_structural   MnH4(C2O)4
_chemical_formula_sum   'Mn6 H24 C48 O24'
_cell_volume   1777.29659798
_cell_formula_units_Z   6
loop_
 _symmetry_equiv_pos_site_id
 _symmetry_equiv_pos_as_xyz
  1  'x, y, z'
loop_
 _atom_site_type_symbol
 _atom_site_label
 _atom_site_symmetry_multiplicity
 _atom_site_fract_x
 _atom_site_fract_y
 _atom_site_fract_z
 _atom_site_occupancy
  Mn  Mn0  1  0.14101000  0.96144000  0.88962000  1
  Mn  Mn1  1  0.21584000  0.75000000  0.75000000  1
  Mn  Mn2  1  0.49207000  0.53856000  0.61038000  1
  Mn  Mn3  1  0.50793000  0.46144000  0.38962000  1
  Mn  Mn4  1  0.78416000  0.25000000  0.25000000  1
  Mn  Mn5  1  0.85899000  0.03856000  0.11038000  1
  H  H6  1  0.04500000  0.45880000  0.09220000  1
  H  H7  1  0.09600000  0.04120000  0.40780000  1
  H  H8  1  0.13360000  0.59200000  0.99100000  1
  H  H9  1  0.13810000  0.81290000  0.25290000  1
  H  H10  1  0.20150000  0.18060000  0.84720000  1
  H  H11  1  0.21660000  0.90800000  0.50900000  1
  H  H12  1  0.27070000  0.68060000  0.34720000  1
  H  H13  1  0.29610000  0.31290000  0.75290000  1
  H  H14  1  0.33990000  0.62290000  0.11570000  1
  H  H15  1  0.34190000  0.66030000  0.95010000  1
  H  H16  1  0.42150000  0.12290000  0.61570000  1
  H  H17  1  0.45230000  0.83970000  0.54990000  1
  H  H18  1  0.54770000  0.16030000  0.45010000  1
  H  H19  1  0.57850000  0.87710000  0.38430000  1
  H  H20  1  0.65810000  0.33970000  0.04990000  1
  H  H21  1  0.66010000  0.37710000  0.88430000  1
  H  H22  1  0.70390000  0.68710000  0.24710000  1
  H  H23  1  0.72930000  0.31940000  0.65280000  1
  H  H24  1  0.78340000  0.09200000  0.49100000  1
  H  H25  1  0.79850000  0.81940000  0.15280000  1
  H  H26  1  0.86190000  0.18710000  0.74710000  1
  H  H27  1  0.86640000  0.40800000  0.00900000  1
  H  H28  1  0.90400000  0.95880000  0.59220000  1
  H  H29  1  0.95500000  0.54120000  0.90780000  1
  C  C30  1  0.00593000  0.46865000  0.89669000  1
  C  C31  1  0.01510000  0.02516000  0.25984000  1
  C  C32  1  0.02563000  0.28097000  0.93917000  1
  C  C33  1  0.03117000  0.80499000  0.99607000  1
  C  C34  1  0.04801000  0.61125000  0.04313000  1
  C  C35  1  0.10383000  0.94046000  0.32048000  1
  C  C36  1  0.12873000  0.96865000  0.39669000  1
  C  C37  1  0.13523000  0.44046000  0.82048000  1
  C  C38  1  0.15329000  0.25266000  0.86096000  1
  C  C39  1  0.15548000  0.83240000  0.30344000  1
  C  C40  1  0.19990000  0.52516000  0.75984000  1
  C  C41  1  0.20239000  0.88875000  0.45687000  1
  C  C42  1  0.20868000  0.33240000  0.80344000  1
  C  C43  1  0.23309000  0.75266000  0.36096000  1
  C  C44  1  0.25423000  0.78097000  0.43917000  1
  C  C45  1  0.33223000  0.69501000  0.50393000  1
  C  C46  1  0.33689000  0.95594000  0.70508000  1
  C  C47  1  0.40452000  0.57365000  0.06931000  1
  C  C48  1  0.40519000  0.59573000  0.97009000  1
  C  C49  1  0.42278000  0.97808000  0.59896000  1
  C  C50  1  0.45252000  0.07365000  0.56931000  1
  C  C51  1  0.47101000  0.90427000  0.52991000  1
  C  C52  1  0.49791000  0.54406000  0.79492000  1
  C  C53  1  0.49982000  0.52192000  0.90104000  1
  C  C54  1  0.50018000  0.47808000  0.09896000  1
  C  C55  1  0.50209000  0.45594000  0.20508000  1
  C  C56  1  0.52899000  0.09573000  0.47009000  1
  C  C57  1  0.54748000  0.92635000  0.43069000  1
  C  C58  1  0.57722000  0.02192000  0.40104000  1
  C  C59  1  0.59481000  0.40427000  0.02991000  1
  C  C60  1  0.59548000  0.42635000  0.93069000  1
  C  C61  1  0.66311000  0.04406000  0.29492000  1
  C  C62  1  0.66777000  0.30499000  0.49607000  1
  C  C63  1  0.74577000  0.21903000  0.56083000  1
  C  C64  1  0.76691000  0.24734000  0.63904000  1
  C  C65  1  0.79132000  0.66760000  0.19656000  1
  C  C66  1  0.79761000  0.11125000  0.54313000  1
  C  C67  1  0.80010000  0.47484000  0.24016000  1
  C  C68  1  0.84452000  0.16760000  0.69656000  1
  C  C69  1  0.84671000  0.74734000  0.13904000  1
  C  C70  1  0.86477000  0.55954000  0.17952000  1
  C  C71  1  0.87127000  0.03135000  0.60331000  1
  C  C72  1  0.89617000  0.05954000  0.67952000  1
  C  C73  1  0.95199000  0.38875000  0.95687000  1
  C  C74  1  0.96883000  0.19501000  0.00393000  1
  C  C75  1  0.97437000  0.71903000  0.06083000  1
  C  C76  1  0.98490000  0.97484000  0.74016000  1
  C  C77  1  0.99407000  0.53135000  0.10331000  1
  O  O78  1  0.00170000  0.99143000  0.19157000  1
  O  O79  1  0.01785000  0.10123000  0.97585000  1
  O  O80  1  0.04034000  0.87909000  0.71703000  1
  O  O81  1  0.12996000  0.78377000  0.91373000  1
  O  O82  1  0.13646000  0.62091000  0.78297000  1
  O  O83  1  0.28705000  0.02737000  0.76393000  1
  O  O84  1  0.31530000  0.49143000  0.69157000  1
  O  O85  1  0.31670000  0.86654000  0.73286000  1
  O  O86  1  0.32746000  0.71623000  0.58627000  1
  O  O87  1  0.40507000  0.60123000  0.47585000  1
  O  O88  1  0.41610000  0.63346000  0.76714000  1
  O  O89  1  0.42165000  0.52737000  0.26393000  1
  O  O90  1  0.57835000  0.47263000  0.73607000  1
  O  O91  1  0.58390000  0.36654000  0.23286000  1
  O  O92  1  0.59493000  0.39877000  0.52415000  1
  O  O93  1  0.67254000  0.28377000  0.41373000  1
  O  O94  1  0.68330000  0.13346000  0.26714000  1
  O  O95  1  0.68470000  0.50857000  0.30843000  1
  O  O96  1  0.71295000  0.97263000  0.23607000  1
  O  O97  1  0.86354000  0.37909000  0.21703000  1
  O  O98  1  0.87004000  0.21623000  0.08627000  1
  O  O99  1  0.95966000  0.12091000  0.28297000  1
  O  O100  1  0.98215000  0.89877000  0.02415000  1
  O  O101  1  0.99830000  0.00857000  0.80843000  1
