# generated using pymatgen
data_Cu2H4C9O7
_symmetry_space_group_name_H-M   'P 1'
_cell_length_a   10.83040000
_cell_length_b   11.99850000
_cell_length_c   15.49600000
_cell_angle_alpha   90.00000000
_cell_angle_beta   95.22700000
_cell_angle_gamma   90.00000000
_symmetry_Int_Tables_number   1
_chemical_formula_structural   Cu2H4C9O7
_chemical_formula_sum   'Cu8 H16 C36 O28'
_cell_volume   2005.30905702
_cell_formula_units_Z   4
loop_
 _symmetry_equiv_pos_site_id
 _symmetry_equiv_pos_as_xyz
  1  'x, y, z'
loop_
 _atom_site_type_symbol
 _atom_site_label
 _atom_site_symmetry_multiplicity
 _atom_site_fract_x
 _atom_site_fract_y
 _atom_site_fract_z
 _atom_site_occupancy
  Cu  Cu0  1  0.02377000  0.62882000  0.65866000  1
  Cu  Cu1  1  0.13630000  0.50379000  0.49416000  1
  Cu  Cu2  1  0.36370000  0.00379000  0.00584000  1
  Cu  Cu3  1  0.47623000  0.12882000  0.84134000  1
  Cu  Cu4  1  0.52377000  0.87118000  0.15866000  1
  Cu  Cu5  1  0.63630000  0.99621000  0.99416000  1
  Cu  Cu6  1  0.86370000  0.49621000  0.50584000  1
  Cu  Cu7  1  0.97623000  0.37118000  0.34134000  1
  H  H8  1  0.00320000  0.32770000  0.50050000  1
  H  H9  1  0.01160000  0.91110000  0.07860000  1
  H  H10  1  0.15100000  0.28030000  0.74920000  1
  H  H11  1  0.22020000  0.71140000  0.24410000  1
  H  H12  1  0.27980000  0.21140000  0.25590000  1
  H  H13  1  0.34900000  0.78030000  0.75080000  1
  H  H14  1  0.48840000  0.41110000  0.42140000  1
  H  H15  1  0.49680000  0.82770000  0.99950000  1
  H  H16  1  0.50320000  0.17230000  0.00050000  1
  H  H17  1  0.51160000  0.58890000  0.57860000  1
  H  H18  1  0.65100000  0.21970000  0.24920000  1
  H  H19  1  0.72020000  0.78860000  0.74410000  1
  H  H20  1  0.77980000  0.28860000  0.75590000  1
  H  H21  1  0.84900000  0.71970000  0.25080000  1
  H  H22  1  0.98840000  0.08890000  0.92140000  1
  H  H23  1  0.99680000  0.67230000  0.49950000  1
  C  C24  1  0.01800000  0.85870000  0.12480000  1
  C  C25  1  0.03610000  0.70140000  0.25840000  1
  C  C26  1  0.04290000  0.61110000  0.32640000  1
  C  C27  1  0.07830000  0.25550000  0.77340000  1
  C  C28  1  0.08910000  0.17670000  0.83972000  1
  C  C29  1  0.13440000  0.81830000  0.15600000  1
  C  C30  1  0.14140000  0.73960000  0.22260000  1
  C  C31  1  0.21510000  0.13450000  0.87378000  1
  C  C32  1  0.24980000  0.35960000  0.37980000  1
  C  C33  1  0.25020000  0.85960000  0.12020000  1
  C  C34  1  0.28490000  0.63450000  0.62622000  1
  C  C35  1  0.35860000  0.23960000  0.27740000  1
  C  C36  1  0.36560000  0.31830000  0.34400000  1
  C  C37  1  0.41090000  0.67670000  0.66028000  1
  C  C38  1  0.42170000  0.75550000  0.72660000  1
  C  C39  1  0.45710000  0.11110000  0.17360000  1
  C  C40  1  0.46390000  0.20140000  0.24160000  1
  C  C41  1  0.48200000  0.35870000  0.37520000  1
  C  C42  1  0.51800000  0.64130000  0.62480000  1
  C  C43  1  0.53610000  0.79860000  0.75840000  1
  C  C44  1  0.54290000  0.88890000  0.82640000  1
  C  C45  1  0.57830000  0.24450000  0.27340000  1
  C  C46  1  0.58910000  0.32330000  0.33972000  1
  C  C47  1  0.63440000  0.68170000  0.65600000  1
  C  C48  1  0.64140000  0.76040000  0.72260000  1
  C  C49  1  0.71510000  0.36550000  0.37378000  1
  C  C50  1  0.74980000  0.14040000  0.87980000  1
  C  C51  1  0.75020000  0.64040000  0.62020000  1
  C  C52  1  0.78490000  0.86550000  0.12622000  1
  C  C53  1  0.85860000  0.26040000  0.77740000  1
  C  C54  1  0.86560000  0.18170000  0.84400000  1
  C  C55  1  0.91090000  0.82330000  0.16028000  1
  C  C56  1  0.92170000  0.74450000  0.22660000  1
  C  C57  1  0.95710000  0.38890000  0.67360000  1
  C  C58  1  0.96390000  0.29860000  0.74160000  1
  C  C59  1  0.98200000  0.14130000  0.87520000  1
  O  O60  1  0.00620000  0.60172000  0.53375000  1
  O  O61  1  0.05070000  0.45100000  0.67416000  1
  O  O62  1  0.14024000  0.60289000  0.37613000  1
  O  O63  1  0.15157000  0.34660000  0.33122000  1
  O  O64  1  0.19590000  0.67130000  0.66388000  1
  O  O65  1  0.22010000  0.06970000  0.93697000  1
  O  O66  1  0.23872000  0.90366000  0.04642000  1
  O  O67  1  0.26128000  0.40366000  0.45358000  1
  O  O68  1  0.27990000  0.56970000  0.56303000  1
  O  O69  1  0.30410000  0.17130000  0.83612000  1
  O  O70  1  0.34843000  0.84660000  0.16878000  1
  O  O71  1  0.35976000  0.10289000  0.12387000  1
  O  O72  1  0.44930000  0.95100000  0.82584000  1
  O  O73  1  0.49380000  0.10172000  0.96625000  1
  O  O74  1  0.50620000  0.89828000  0.03375000  1
  O  O75  1  0.55070000  0.04900000  0.17416000  1
  O  O76  1  0.64024000  0.89711000  0.87613000  1
  O  O77  1  0.65157000  0.15340000  0.83122000  1
  O  O78  1  0.69590000  0.82870000  0.16388000  1
  O  O79  1  0.72010000  0.43030000  0.43697000  1
  O  O80  1  0.73872000  0.59634000  0.54642000  1
  O  O81  1  0.76128000  0.09634000  0.95358000  1
  O  O82  1  0.77990000  0.93030000  0.06303000  1
  O  O83  1  0.80410000  0.32870000  0.33612000  1
  O  O84  1  0.84843000  0.65340000  0.66878000  1
  O  O85  1  0.85976000  0.39711000  0.62387000  1
  O  O86  1  0.94930000  0.54900000  0.32584000  1
  O  O87  1  0.99380000  0.39828000  0.46625000  1
