# generated using pymatgen
data_GdPH7C8NO8
_symmetry_space_group_name_H-M   'P 1'
_cell_length_a   9.73060000
_cell_length_b   10.53000000
_cell_length_c   15.61474923
_cell_angle_alpha   90.00000000
_cell_angle_beta   103.12801633
_cell_angle_gamma   90.00000000
_symmetry_Int_Tables_number   1
_chemical_formula_structural   GdPH7C8NO8
_chemical_formula_sum   'Gd4 P4 H28 C32 N4 O32'
_cell_volume   1558.12312626
_cell_formula_units_Z   4
loop_
 _symmetry_equiv_pos_site_id
 _symmetry_equiv_pos_as_xyz
  1  'x, y, z'
loop_
 _atom_site_type_symbol
 _atom_site_label
 _atom_site_symmetry_multiplicity
 _atom_site_fract_x
 _atom_site_fract_y
 _atom_site_fract_z
 _atom_site_occupancy
  Gd  Gd0  1  0.71320000  0.38804000  0.89342000  1
  Gd  Gd1  1  0.21320000  0.11196000  0.39342000  1
  Gd  Gd2  1  0.78680000  0.88804000  0.60658000  1
  Gd  Gd3  1  0.28680000  0.61196000  0.10658000  1
  P  P4  1  0.15433000  0.85646000  0.23021000  1
  P  P5  1  0.65433000  0.64354000  0.73021000  1
  P  P6  1  0.34567000  0.35646000  0.26979000  1
  P  P7  1  0.84567000  0.14354000  0.76979000  1
  H  H8  1  0.83550000  0.83320000  0.88440000  1
  H  H9  1  0.33550000  0.66680000  0.38440000  1
  H  H10  1  0.00250000  0.86510000  0.09280000  1
  H  H11  1  0.50250000  0.63490000  0.59280000  1
  H  H12  1  0.00120000  0.99540000  0.14100000  1
  H  H13  1  0.50120000  0.50460000  0.64100000  1
  H  H14  1  0.69260000  0.76060000  0.97240000  1
  H  H15  1  0.19260000  0.73940000  0.47240000  1
  H  H16  1  0.03260000  0.82700000  0.31660000  1
  H  H17  1  0.53260000  0.67300000  0.81660000  1
  H  H18  1  0.17470000  0.38980000  0.56730000  1
  H  H19  1  0.67470000  0.11020000  0.06730000  1
  H  H20  1  0.61550000  0.89720000  0.06610000  1
  H  H21  1  0.11550000  0.60280000  0.56610000  1
  H  H22  1  0.88450000  0.39720000  0.43390000  1
  H  H23  1  0.38450000  0.10280000  0.93390000  1
  H  H24  1  0.32530000  0.88980000  0.93270000  1
  H  H25  1  0.82530000  0.61020000  0.43270000  1
  H  H26  1  0.46740000  0.32700000  0.18340000  1
  H  H27  1  0.96740000  0.17300000  0.68340000  1
  H  H28  1  0.80740000  0.26060000  0.52760000  1
  H  H29  1  0.30740000  0.23940000  0.02760000  1
  H  H30  1  0.49880000  0.49540000  0.35900000  1
  H  H31  1  0.99880000  0.00460000  0.85900000  1
  H  H32  1  0.49750000  0.36510000  0.40720000  1
  H  H33  1  0.99750000  0.13490000  0.90720000  1
  H  H34  1  0.66450000  0.33320000  0.61560000  1
  H  H35  1  0.16450000  0.16680000  0.11560000  1
  C  C36  1  0.06200000  0.92860000  0.12800000  1
  C  C37  1  0.56200000  0.57140000  0.62800000  1
  C  C38  1  0.46050000  0.96740000  0.53200000  1
  C  C39  1  0.96050000  0.53260000  0.03200000  1
  C  C40  1  0.34230000  0.48290000  0.42400000  1
  C  C41  1  0.84230000  0.01710000  0.92400000  1
  C  C42  1  0.80340000  0.88910000  0.92170000  1
  C  C43  1  0.30340000  0.61090000  0.42170000  1
  C  C44  1  0.71850000  0.84580000  0.97430000  1
  C  C45  1  0.21850000  0.65420000  0.47430000  1
  C  C46  1  0.20780000  0.44610000  0.53070000  1
  C  C47  1  0.70780000  0.05390000  0.03070000  1
  C  C48  1  0.67160000  0.92710000  0.02950000  1
  C  C49  1  0.17160000  0.57290000  0.52950000  1
  C  C50  1  0.98740000  0.93990000  0.47090000  1
  C  C51  1  0.48740000  0.56010000  0.97090000  1
  C  C52  1  0.51260000  0.43990000  0.02910000  1
  C  C53  1  0.01260000  0.06010000  0.52910000  1
  C  C54  1  0.82840000  0.42710000  0.47050000  1
  C  C55  1  0.32840000  0.07290000  0.97050000  1
  C  C56  1  0.29220000  0.94610000  0.96930000  1
  C  C57  1  0.79220000  0.55390000  0.46930000  1
  C  C58  1  0.78150000  0.34580000  0.52570000  1
  C  C59  1  0.28150000  0.15420000  0.02570000  1
  C  C60  1  0.69660000  0.38910000  0.57830000  1
  C  C61  1  0.19660000  0.11090000  0.07830000  1
  C  C62  1  0.15770000  0.98290000  0.07600000  1
  C  C63  1  0.65770000  0.51710000  0.57600000  1
  C  C64  1  0.03950000  0.46740000  0.96800000  1
  C  C65  1  0.53950000  0.03260000  0.46800000  1
  C  C66  1  0.43800000  0.42860000  0.37200000  1
  C  C67  1  0.93800000  0.07140000  0.87200000  1
  N  N68  1  0.29180000  0.40380000  0.47850000  1
  N  N69  1  0.79180000  0.09620000  0.97850000  1
  N  N70  1  0.20820000  0.90380000  0.02150000  1
  N  N71  1  0.70820000  0.59620000  0.52150000  1
  O  O72  1  0.25102000  0.25370000  0.28952000  1
  O  O73  1  0.75102000  0.24630000  0.78952000  1
  O  O74  1  0.53334000  0.90900000  0.59524000  1
  O  O75  1  0.03334000  0.59100000  0.09524000  1
  O  O76  1  0.22866000  0.95800000  0.29066000  1
  O  O77  1  0.72866000  0.54200000  0.79066000  1
  O  O78  1  0.32833000  0.28210000  0.48293000  1
  O  O79  1  0.82833000  0.21790000  0.98293000  1
  O  O80  1  0.32889000  0.97940000  0.51459000  1
  O  O81  1  0.82889000  0.52060000  0.01459000  1
  O  O82  1  0.03088000  0.79680000  0.26798000  1
  O  O83  1  0.53088000  0.70320000  0.76798000  1
  O  O84  1  0.04242000  0.94320000  0.40512000  1
  O  O85  1  0.54242000  0.55680000  0.90512000  1
  O  O86  1  0.58097000  0.35200000  0.00717000  1
  O  O87  1  0.08097000  0.14800000  0.50717000  1
  O  O88  1  0.91903000  0.85200000  0.49283000  1
  O  O89  1  0.41903000  0.64800000  0.99283000  1
  O  O90  1  0.45758000  0.44320000  0.09488000  1
  O  O91  1  0.95758000  0.05680000  0.59488000  1
  O  O92  1  0.46912000  0.29680000  0.23202000  1
  O  O93  1  0.96912000  0.20320000  0.73202000  1
  O  O94  1  0.17111000  0.47940000  0.98541000  1
  O  O95  1  0.67111000  0.02060000  0.48541000  1
  O  O96  1  0.17167000  0.78210000  0.01707000  1
  O  O97  1  0.67167000  0.71790000  0.51707000  1
  O  O98  1  0.27134000  0.45800000  0.20934000  1
  O  O99  1  0.77134000  0.04200000  0.70934000  1
  O  O100  1  0.96666000  0.40900000  0.90476000  1
  O  O101  1  0.46666000  0.09100000  0.40476000  1
  O  O102  1  0.24898000  0.75370000  0.21048000  1
  O  O103  1  0.74898000  0.74630000  0.71048000  1
