# generated using pymatgen
data_Pr3P4(CO3)8
_symmetry_space_group_name_H-M   'P 1'
_cell_length_a   11.01290000
_cell_length_b   13.35540000
_cell_length_c   15.84296375
_cell_angle_alpha   114.92871797
_cell_angle_beta   110.33804859
_cell_angle_gamma   90.00000000
_symmetry_Int_Tables_number   1
_chemical_formula_structural   Pr3P4(CO3)8
_chemical_formula_sum   'Pr6 P8 C16 O48'
_cell_volume   1951.74929537
_cell_formula_units_Z   2
loop_
 _symmetry_equiv_pos_site_id
 _symmetry_equiv_pos_as_xyz
  1  'x, y, z'
loop_
 _atom_site_type_symbol
 _atom_site_label
 _atom_site_symmetry_multiplicity
 _atom_site_fract_x
 _atom_site_fract_y
 _atom_site_fract_z
 _atom_site_occupancy
  Pr  Pr0  1  0.95710000  0.37379000  0.44240000  1
  Pr  Pr1  1  0.51790000  1.00000000  1.00000000  1
  Pr  Pr2  1  0.51470000  0.62621000  0.55760000  1
  Pr  Pr3  1  0.45710000  0.06861000  0.44240000  1
  Pr  Pr4  1  0.01790000  1.00000000  1.00000000  1
  Pr  Pr5  1  0.01470000  0.93139000  0.55760000  1
  P  P6  1  0.97420000  0.70730000  0.82140000  1
  P  P7  1  0.71460000  0.98960000  0.61100000  1
  P  P8  1  0.65280000  0.88590000  0.17860000  1
  P  P9  1  0.60360000  0.37860000  0.38900000  1
  P  P10  1  0.47420000  0.11410000  0.82140000  1
  P  P11  1  0.21460000  0.62140000  0.61100000  1
  P  P12  1  0.15280000  0.29270000  0.17860000  1
  P  P13  1  0.10360000  0.01040000  0.38900000  1
  C  C14  1  0.99190000  0.15500000  0.21440000  1
  C  C15  1  0.94320000  0.67640000  0.52360000  1
  C  C16  1  0.91960000  0.15280000  0.47640000  1
  C  C17  1  0.87240000  0.77060000  0.74660000  1
  C  C18  1  0.77750000  0.84500000  0.78560000  1
  C  C19  1  0.62580000  0.02400000  0.25340000  1
  C  C20  1  0.58700000  0.86550000  0.54280000  1
  C  C21  1  0.54420000  0.32270000  0.45720000  1
  C  C22  1  0.49190000  0.05940000  0.21440000  1
  C  C23  1  0.44320000  0.84720000  0.52360000  1
  C  C24  1  0.41960000  0.32360000  0.47640000  1
  C  C25  1  0.37240000  0.97600000  0.74660000  1
  C  C26  1  0.27750000  0.94060000  0.78560000  1
  C  C27  1  0.12580000  0.22940000  0.25340000  1
  C  C28  1  0.08700000  0.67730000  0.54280000  1
  C  C29  1  0.04420000  0.13450000  0.45720000  1
  O  O30  1  0.98940000  0.94410000  0.28660000  1
  O  O31  1  0.94570000  0.19890000  0.28480000  1
  O  O32  1  0.91490000  0.15460000  0.13240000  1
  O  O33  1  0.89080000  0.76040000  0.56200000  1
  O  O34  1  0.88250000  0.65060000  0.84960000  1
  O  O35  1  0.88040000  0.58300000  0.50580000  1
  O  O36  1  0.87460000  0.07720000  0.49420000  1
  O  O37  1  0.84480000  0.94650000  0.61840000  1
  O  O38  1  0.82880000  0.19840000  0.43800000  1
  O  O39  1  0.78460000  0.68100000  0.65540000  1
  O  O40  1  0.78250000  0.84540000  0.86760000  1
  O  O41  1  0.77910000  0.86540000  0.24520000  1
  O  O42  1  0.72640000  0.32810000  0.38160000  1
  O  O43  1  0.70280000  0.05590000  0.71340000  1
  O  O44  1  0.69050000  0.06600000  0.55840000  1
  O  O45  1  0.66400000  0.87980000  0.08260000  1
  O  O46  1  0.66090000  0.80110000  0.71520000  1
  O  O47  1  0.65530000  0.77710000  0.54200000  1
  O  O48  1  0.63210000  0.50760000  0.44160000  1
  O  O49  1  0.62920000  0.02560000  0.34460000  1
  O  O50  1  0.61330000  0.23510000  0.45800000  1
  O  O51  1  0.58140000  0.12020000  0.91740000  1
  O  O52  1  0.53390000  0.13460000  0.75480000  1
  O  O53  1  0.53290000  0.80100000  0.15040000  1
  O  O54  1  0.48940000  0.34250000  0.28660000  1
  O  O55  1  0.44570000  0.08590000  0.28480000  1
  O  O56  1  0.41490000  0.97780000  0.13240000  1
  O  O57  1  0.39080000  0.80160000  0.56200000  1
  O  O58  1  0.38250000  0.19900000  0.84960000  1
  O  O59  1  0.38040000  0.92280000  0.50580000  1
  O  O60  1  0.37460000  0.41700000  0.49420000  1
  O  O61  1  0.34480000  0.67190000  0.61840000  1
  O  O62  1  0.32880000  0.23960000  0.43800000  1
  O  O63  1  0.28460000  0.97440000  0.65540000  1
  O  O64  1  0.28250000  0.02220000  0.86760000  1
  O  O65  1  0.27910000  0.37980000  0.24520000  1
  O  O66  1  0.22640000  0.05350000  0.38160000  1
  O  O67  1  0.20280000  0.65750000  0.71340000  1
  O  O68  1  0.19050000  0.49240000  0.55840000  1
  O  O69  1  0.16400000  0.20280000  0.08260000  1
  O  O70  1  0.16090000  0.91410000  0.71520000  1
  O  O71  1  0.15530000  0.76490000  0.54200000  1
  O  O72  1  0.13210000  0.93400000  0.44160000  1
  O  O73  1  0.12920000  0.31900000  0.34460000  1
  O  O74  1  0.11330000  0.22290000  0.45800000  1
  O  O75  1  0.08140000  0.79720000  0.91740000  1
  O  O76  1  0.03390000  0.62020000  0.75480000  1
  O  O77  1  0.03290000  0.34940000  0.15040000  1
