# generated using pymatgen
data_Cu3MoH16C20S3N4Cl
_symmetry_space_group_name_H-M   'P 1'
_cell_length_a   19.57000000
_cell_length_b   19.57000000
_cell_length_c   31.88540346
_cell_angle_alpha   105.20451793
_cell_angle_beta   105.20451793
_cell_angle_gamma   98.36040000
_symmetry_Int_Tables_number   1
_chemical_formula_structural   Cu3MoH16C20S3N4Cl
_chemical_formula_sum   'Cu24 Mo8 H128 C160 S24 N32 Cl8'
_cell_volume   11066.80026952
_cell_formula_units_Z   8
loop_
 _symmetry_equiv_pos_site_id
 _symmetry_equiv_pos_as_xyz
  1  'x, y, z'
loop_
 _atom_site_type_symbol
 _atom_site_label
 _atom_site_symmetry_multiplicity
 _atom_site_fract_x
 _atom_site_fract_y
 _atom_site_fract_z
 _atom_site_occupancy
  Cu  Cu0  1  0.27633000  0.64735000  0.51418000  1
  Cu  Cu1  1  0.79596000  0.22244000  0.08158000  1
  Cu  Cu2  1  0.31512000  0.23118000  0.03760000  1
  Cu  Cu3  1  0.85914000  0.78562000  0.58158000  1
  Cu  Cu4  1  0.22244000  0.79596000  0.58158000  1
  Cu  Cu5  1  0.21438000  0.14086000  0.91842000  1
  Cu  Cu6  1  0.76882000  0.68488000  0.46240000  1
  Cu  Cu7  1  0.77752000  0.19358000  0.96240000  1
  Cu  Cu8  1  0.64735000  0.27633000  0.01418000  1
  Cu  Cu9  1  0.13317000  0.26215000  0.98582000  1
  Cu  Cu10  1  0.19358000  0.77752000  0.46240000  1
  Cu  Cu11  1  0.73785000  0.86683000  0.51418000  1
  Cu  Cu12  1  0.26215000  0.13317000  0.48582000  1
  Cu  Cu13  1  0.80642000  0.22248000  0.53760000  1
  Cu  Cu14  1  0.86683000  0.73785000  0.01418000  1
  Cu  Cu15  1  0.35265000  0.72367000  0.98582000  1
  Cu  Cu16  1  0.22248000  0.80642000  0.03760000  1
  Cu  Cu17  1  0.23118000  0.31512000  0.53760000  1
  Cu  Cu18  1  0.78562000  0.85914000  0.08158000  1
  Cu  Cu19  1  0.77756000  0.20404000  0.41842000  1
  Cu  Cu20  1  0.14086000  0.21438000  0.41842000  1
  Cu  Cu21  1  0.68488000  0.76882000  0.96240000  1
  Cu  Cu22  1  0.20404000  0.77756000  0.91842000  1
  Cu  Cu23  1  0.72367000  0.35265000  0.48582000  1
  Mo  Mo24  1  0.71930000  0.73986000  0.53076000  1
  Mo  Mo25  1  0.31146000  0.79090000  0.53076000  1
  Mo  Mo26  1  0.79090000  0.31146000  0.03076000  1
  Mo  Mo27  1  0.26014000  0.28070000  0.96924000  1
  Mo  Mo28  1  0.73986000  0.71930000  0.03076000  1
  Mo  Mo29  1  0.20910000  0.68854000  0.96924000  1
  Mo  Mo30  1  0.68854000  0.20910000  0.46924000  1
  Mo  Mo31  1  0.28070000  0.26014000  0.46924000  1
  H  H32  1  0.95300000  0.40240000  0.40140000  1
  H  H33  1  0.29900000  0.49000000  0.48440000  1
  H  H34  1  0.36350000  0.02890000  0.01900000  1
  H  H35  1  0.79060000  0.45520000  0.44360000  1
  H  H36  1  0.89370000  0.13810000  0.12080000  1
  H  H37  1  0.69230000  0.14410000  0.11860000  1
  H  H38  1  0.84450000  0.00990000  0.98100000  1
  H  H39  1  0.05190000  0.72550000  0.68800000  1
  H  H40  1  0.06140000  0.12660000  0.08440000  1
  H  H41  1  0.89620000  0.29520000  0.24900000  1
  H  H42  1  0.61340000  0.56820000  0.52120000  1
  H  H43  1  0.99900000  0.94840000  0.90140000  1
  H  H44  1  0.40240000  0.95300000  0.90140000  1
  H  H45  1  0.03750000  0.86390000  0.81200000  1
  H  H46  1  0.04220000  0.47700000  0.41560000  1
  H  H47  1  0.14410000  0.69230000  0.61860000  1
  H  H48  1  0.72400000  0.07520000  0.00020000  1
  H  H49  1  0.22380000  0.07500000  0.99980000  1
  H  H50  1  0.45220000  0.11500000  0.03820000  1
  H  H51  1  0.88500000  0.54780000  0.46180000  1
  H  H52  1  0.52740000  0.61860000  0.52640000  1
  H  H53  1  0.95380000  0.85280000  0.74900000  1
  H  H54  1  0.98270000  0.72710000  0.62080000  1
  H  H55  1  0.82800000  0.29560000  0.18060000  1
  H  H56  1  0.91400000  0.07680000  0.96180000  1
  H  H57  1  0.47700000  0.04220000  0.91560000  1
  H  H58  1  0.13980000  0.57180000  0.43880000  1
  H  H59  1  0.27450000  0.94810000  0.81200000  1
  H  H60  1  0.27290000  0.01730000  0.87920000  1
  H  H61  1  0.13300000  0.20100000  0.06120000  1
  H  H62  1  0.07370000  0.02550000  0.88140000  1
  H  H63  1  0.43270000  0.67550000  0.53040000  1
  H  H64  1  0.29520000  0.89620000  0.74900000  1
  H  H65  1  0.29560000  0.82800000  0.68060000  1
  H  H66  1  0.54480000  0.20940000  0.05640000  1
  H  H67  1  0.97110000  0.63650000  0.48100000  1
  H  H68  1  0.88500000  0.85260000  0.68060000  1
  H  H69  1  0.57180000  0.13980000  0.93880000  1
  H  H70  1  0.98840000  0.15300000  0.94360000  1
  H  H71  1  0.07520000  0.72400000  0.50020000  1
  H  H72  1  0.13810000  0.89370000  0.62080000  1
  H  H73  1  0.13610000  0.96250000  0.68800000  1
  H  H74  1  0.92500000  0.77620000  0.50020000  1
  H  H75  1  0.14720000  0.04620000  0.75100000  1
  H  H76  1  0.14740000  0.11500000  0.81940000  1
  H  H77  1  0.00560000  0.31460000  0.01560000  1
  H  H78  1  0.97450000  0.92630000  0.61860000  1
  H  H79  1  0.49000000  0.29900000  0.98440000  1
  H  H80  1  0.59770000  0.85490000  0.53040000  1
  H  H81  1  0.00990000  0.84450000  0.48100000  1
  H  H82  1  0.49900000  0.90780000  0.52640000  1
  H  H83  1  0.95300000  0.40780000  0.02120000  1
  H  H84  1  0.67550000  0.43270000  0.03040000  1
  H  H85  1  0.05160000  0.00100000  0.59860000  1
  H  H86  1  0.43180000  0.38660000  0.97880000  1
  H  H87  1  0.79900000  0.86700000  0.43880000  1
  H  H88  1  0.40780000  0.95300000  0.52120000  1
  H  H89  1  0.14510000  0.40230000  0.96960000  1
  H  H90  1  0.07680000  0.91400000  0.46180000  1
  H  H91  1  0.84700000  0.01160000  0.55640000  1
  H  H92  1  0.90780000  0.49900000  0.02640000  1
  H  H93  1  0.12660000  0.06140000  0.58440000  1
  H  H94  1  0.31460000  0.00560000  0.51560000  1
  H  H95  1  0.38140000  0.47260000  0.97360000  1
  H  H96  1  0.61860000  0.52740000  0.02640000  1
  H  H97  1  0.68540000  0.99440000  0.48440000  1
  H  H98  1  0.87340000  0.93860000  0.41560000  1
  H  H99  1  0.09220000  0.50100000  0.97360000  1
  H  H100  1  0.15300000  0.98840000  0.44360000  1
  H  H101  1  0.92320000  0.08600000  0.53820000  1
  H  H102  1  0.85490000  0.59770000  0.03040000  1
  H  H103  1  0.59220000  0.04700000  0.47880000  1
  H  H104  1  0.20100000  0.13300000  0.56120000  1
  H  H105  1  0.56820000  0.61340000  0.02120000  1
  H  H106  1  0.94840000  0.99900000  0.40140000  1
  H  H107  1  0.32450000  0.56730000  0.96960000  1
  H  H108  1  0.04700000  0.59220000  0.97880000  1
  H  H109  1  0.50100000  0.09220000  0.47360000  1
  H  H110  1  0.99010000  0.15550000  0.51900000  1
  H  H111  1  0.40230000  0.14510000  0.46960000  1
  H  H112  1  0.51000000  0.70100000  0.01560000  1
  H  H113  1  0.02550000  0.07370000  0.38140000  1
  H  H114  1  0.99440000  0.68540000  0.98440000  1
  H  H115  1  0.85260000  0.88500000  0.18060000  1
  H  H116  1  0.85280000  0.95380000  0.24900000  1
  H  H117  1  0.07500000  0.22380000  0.49980000  1
  H  H118  1  0.86390000  0.03750000  0.31200000  1
  H  H119  1  0.86190000  0.10630000  0.37920000  1
  H  H120  1  0.92480000  0.27600000  0.49980000  1
  H  H121  1  0.01160000  0.84700000  0.05640000  1
  H  H122  1  0.42820000  0.86020000  0.06120000  1
  H  H123  1  0.11500000  0.14740000  0.31940000  1
  H  H124  1  0.02890000  0.36350000  0.51900000  1
  H  H125  1  0.45520000  0.79060000  0.94360000  1
  H  H126  1  0.70440000  0.17200000  0.31940000  1
  H  H127  1  0.70480000  0.10380000  0.25100000  1
  H  H128  1  0.56730000  0.32450000  0.46960000  1
  H  H129  1  0.92630000  0.97450000  0.11860000  1
  H  H130  1  0.86700000  0.79900000  0.93880000  1
  H  H131  1  0.72710000  0.98270000  0.12080000  1
  H  H132  1  0.72550000  0.05190000  0.18800000  1
  H  H133  1  0.86020000  0.42820000  0.56120000  1
  H  H134  1  0.52300000  0.95780000  0.08440000  1
  H  H135  1  0.08600000  0.92320000  0.03820000  1
  H  H136  1  0.17200000  0.70440000  0.81940000  1
  H  H137  1  0.01730000  0.27290000  0.37920000  1
  H  H138  1  0.04620000  0.14720000  0.25100000  1
  H  H139  1  0.47260000  0.38140000  0.47360000  1
  H  H140  1  0.11500000  0.45220000  0.53820000  1
  H  H141  1  0.54780000  0.88500000  0.96180000  1
  H  H142  1  0.77620000  0.92500000  0.00020000  1
  H  H143  1  0.27600000  0.92480000  0.99980000  1
  H  H144  1  0.85590000  0.30770000  0.38140000  1
  H  H145  1  0.95780000  0.52300000  0.58440000  1
  H  H146  1  0.96250000  0.13610000  0.18800000  1
  H  H147  1  0.59760000  0.04700000  0.09860000  1
  H  H148  1  0.00100000  0.05160000  0.09860000  1
  H  H149  1  0.38660000  0.43180000  0.47880000  1
  H  H150  1  0.10380000  0.70480000  0.75100000  1
  H  H151  1  0.93860000  0.87340000  0.91560000  1
  H  H152  1  0.94810000  0.27450000  0.31200000  1
  H  H153  1  0.15550000  0.99010000  0.01900000  1
  H  H154  1  0.30770000  0.85590000  0.88140000  1
  H  H155  1  0.10630000  0.86190000  0.87920000  1
  H  H156  1  0.20940000  0.54480000  0.55640000  1
  H  H157  1  0.63650000  0.97110000  0.98100000  1
  H  H158  1  0.70100000  0.51000000  0.51560000  1
  H  H159  1  0.04700000  0.59760000  0.59860000  1
  C  C160  1  0.92980000  0.03860000  0.03800000  1
  C  C161  1  0.35350000  0.99290000  0.99120000  1
  C  C162  1  0.17520000  0.53120000  0.52740000  1
  C  C163  1  0.13770000  0.99830000  0.99120000  1
  C  C164  1  0.60120000  0.51760000  0.50940000  1
  C  C165  1  0.05770000  0.78490000  0.77380000  1
  C  C166  1  0.46930000  0.51830000  0.50340000  1
  C  C167  1  0.06370000  0.82790000  0.81180000  1
  C  C168  1  0.68020000  0.10980000  0.08980000  1
  C  C169  1  0.93510000  0.54790000  0.52500000  1
  C  C170  1  0.34650000  0.51750000  0.49400000  1
  C  C171  1  0.89480000  0.17340000  0.14720000  1
  C  C172  1  0.37590000  0.94890000  0.92120000  1
  C  C173  1  0.39180000  0.00060000  0.96200000  1
  C  C174  1  0.89840000  0.26240000  0.22260000  1
  C  C175  1  0.88160000  0.52440000  0.48340000  1
  C  C176  1  0.07520000  0.49000000  0.44480000  1
  C  C177  1  0.05110000  0.62410000  0.57880000  1
  C  C178  1  0.70050000  0.06970000  0.02140000  1
  C  C179  1  0.04530000  0.97230000  0.92120000  1
  C  C180  1  0.01110000  0.78390000  0.72620000  1
  C  C181  1  0.01610000  0.75190000  0.68820000  1
  C  C182  1  0.97710000  0.08990000  0.02500000  1
  C  C183  1  0.17910000  0.04830000  0.97860000  1
  C  C184  1  0.99940000  0.60820000  0.53800000  1
  C  C185  1  0.48050000  0.59050000  0.51800000  1
  C  C186  1  0.04520000  0.13040000  0.05520000  1
  C  C187  1  0.85750000  0.26250000  0.18100000  1
  C  C188  1  0.13470000  0.54630000  0.45900000  1
  C  C189  1  0.45210000  0.06490000  0.97500000  1
  C  C190  1  0.10980000  0.68020000  0.58980000  1
  C  C191  1  0.96020000  0.82420000  0.72260000  1
  C  C192  1  0.47560000  0.11840000  0.01660000  1
  C  C193  1  0.42280000  0.62500000  0.52080000  1
  C  C194  1  0.97380000  0.75240000  0.64720000  1
  C  C195  1  0.09040000  0.02000000  0.91020000  1
  C  C196  1  0.95900000  0.10180000  0.98340000  1
  C  C197  1  0.49000000  0.07520000  0.94480000  1
  C  C198  1  0.08730000  0.17570000  0.04100000  1
  C  C199  1  0.00710000  0.64650000  0.50880000  1
  C  C200  1  0.91850000  0.82350000  0.68100000  1
  C  C201  1  0.53120000  0.17520000  0.02740000  1
  C  C202  1  0.24810000  0.98390000  0.81180000  1
  C  C203  1  0.24760000  0.02620000  0.85280000  1
  C  C204  1  0.00380000  0.14780000  0.97260000  1
  C  C205  1  0.54630000  0.13470000  0.95900000  1
  C  C206  1  0.26240000  0.89840000  0.72260000  1
  C  C207  1  0.26250000  0.85750000  0.68100000  1
  C  C208  1  0.06970000  0.70050000  0.52140000  1
  C  C209  1  0.21610000  0.98890000  0.77380000  1
  C  C210  1  0.21510000  0.94230000  0.72620000  1
  C  C211  1  0.17340000  0.89480000  0.64720000  1
  C  C212  1  0.17210000  0.93630000  0.68820000  1
  C  C213  1  0.17580000  0.03980000  0.77740000  1
  C  C214  1  0.17650000  0.08150000  0.81900000  1
  C  C215  1  0.95170000  0.82090000  0.52140000  1
  C  C216  1  0.98000000  0.90960000  0.58980000  1
  C  C217  1  0.02350000  0.35250000  0.00600000  1
  C  C218  1  0.51750000  0.34650000  0.99400000  1
  C  C219  1  0.00170000  0.86230000  0.50880000  1
  C  C220  1  0.59800000  0.89580000  0.52080000  1
  C  C221  1  0.02770000  0.95470000  0.57880000  1
  C  C222  1  0.03860000  0.92980000  0.53800000  1
  C  C223  1  0.99180000  0.40820000  0.00940000  1
  C  C224  1  0.62500000  0.42280000  0.02080000  1
  C  C225  1  0.48240000  0.39880000  0.99060000  1
  C  C226  1  0.53750000  0.92750000  0.51800000  1
  C  C227  1  0.10420000  0.40200000  0.97920000  1
  C  C228  1  0.08990000  0.97710000  0.52500000  1
  C  C229  1  0.82430000  0.91270000  0.45900000  1
  C  C230  1  0.59050000  0.48050000  0.01800000  1
  C  C231  1  0.51830000  0.46930000  0.00340000  1
  C  C232  1  0.85220000  0.99620000  0.52740000  1
  C  C233  1  0.01490000  0.46590000  0.99660000  1
  C  C234  1  0.10180000  0.95900000  0.48340000  1
  C  C235  1  0.07250000  0.46250000  0.98200000  1
  C  C236  1  0.53410000  0.98510000  0.50340000  1
  C  C237  1  0.40820000  0.99180000  0.50940000  1
  C  C238  1  0.64750000  0.97650000  0.49400000  1
  C  C239  1  0.13040000  0.04520000  0.55520000  1
  C  C240  1  0.86960000  0.95480000  0.44480000  1
  C  C241  1  0.35250000  0.02350000  0.50600000  1
  C  C242  1  0.59180000  0.00820000  0.49060000  1
  C  C243  1  0.46590000  0.01490000  0.49660000  1
  C  C244  1  0.92750000  0.53750000  0.01800000  1
  C  C245  1  0.89820000  0.04100000  0.51660000  1
  C  C246  1  0.98510000  0.53410000  0.00340000  1
  C  C247  1  0.14780000  0.00380000  0.47260000  1
  C  C248  1  0.48170000  0.53070000  0.99660000  1
  C  C249  1  0.40950000  0.51950000  0.98200000  1
  C  C250  1  0.17570000  0.08730000  0.54100000  1
  C  C251  1  0.91010000  0.02290000  0.47500000  1
  C  C252  1  0.89580000  0.59800000  0.02080000  1
  C  C253  1  0.46250000  0.07250000  0.48200000  1
  C  C254  1  0.51760000  0.60120000  0.00940000  1
  C  C255  1  0.37500000  0.57720000  0.97920000  1
  C  C256  1  0.00820000  0.59180000  0.99060000  1
  C  C257  1  0.96140000  0.07020000  0.46200000  1
  C  C258  1  0.97230000  0.04530000  0.42120000  1
  C  C259  1  0.40200000  0.10420000  0.47920000  1
  C  C260  1  0.99830000  0.13770000  0.49120000  1
  C  C261  1  0.48250000  0.65350000  0.00600000  1
  C  C262  1  0.97650000  0.64750000  0.99400000  1
  C  C263  1  0.02000000  0.09040000  0.41020000  1
  C  C264  1  0.04830000  0.17910000  0.47860000  1
  C  C265  1  0.82350000  0.91850000  0.18100000  1
  C  C266  1  0.82420000  0.96020000  0.22260000  1
  C  C267  1  0.82790000  0.06370000  0.31180000  1
  C  C268  1  0.82660000  0.10520000  0.35280000  1
  C  C269  1  0.78490000  0.05770000  0.27380000  1
  C  C270  1  0.78390000  0.01110000  0.22620000  1
  C  C271  1  0.93030000  0.29950000  0.47860000  1
  C  C272  1  0.73750000  0.14250000  0.31900000  1
  C  C273  1  0.73760000  0.10160000  0.27740000  1
  C  C274  1  0.45370000  0.86530000  0.04100000  1
  C  C275  1  0.99620000  0.85220000  0.02740000  1
  C  C276  1  0.75240000  0.97380000  0.14720000  1
  C  C277  1  0.75190000  0.01610000  0.18820000  1
  C  C278  1  0.46880000  0.82480000  0.97260000  1
  C  C279  1  0.08150000  0.17650000  0.31900000  1
  C  C280  1  0.99290000  0.35350000  0.49120000  1
  C  C281  1  0.91270000  0.82430000  0.95900000  1
  C  C282  1  0.51000000  0.92480000  0.05520000  1
  C  C283  1  0.04100000  0.89820000  0.01660000  1
  C  C284  1  0.90960000  0.98000000  0.08980000  1
  C  C285  1  0.02620000  0.24760000  0.35280000  1
  C  C286  1  0.57720000  0.37500000  0.47920000  1
  C  C287  1  0.52440000  0.88160000  0.98340000  1
  C  C288  1  0.03980000  0.17580000  0.27740000  1
  C  C289  1  0.89020000  0.31980000  0.41020000  1
  C  C290  1  0.54790000  0.93510000  0.02500000  1
  C  C291  1  0.86530000  0.45370000  0.54100000  1
  C  C292  1  0.14250000  0.73750000  0.81900000  1
  C  C293  1  0.95480000  0.86960000  0.94480000  1
  C  C294  1  0.51950000  0.40950000  0.48200000  1
  C  C295  1  0.00060000  0.39180000  0.46200000  1
  C  C296  1  0.82090000  0.95170000  0.02140000  1
  C  C297  1  0.02290000  0.91010000  0.97500000  1
  C  C298  1  0.98390000  0.24810000  0.31180000  1
  C  C299  1  0.98890000  0.21610000  0.27380000  1
  C  C300  1  0.95470000  0.02770000  0.07880000  1
  C  C301  1  0.29950000  0.93030000  0.97860000  1
  C  C302  1  0.94890000  0.37590000  0.42120000  1
  C  C303  1  0.92480000  0.51000000  0.55520000  1
  C  C304  1  0.11840000  0.47560000  0.51660000  1
  C  C305  1  0.10160000  0.73760000  0.77740000  1
  C  C306  1  0.60820000  0.99940000  0.03800000  1
  C  C307  1  0.62410000  0.05110000  0.07880000  1
  C  C308  1  0.10520000  0.82660000  0.85280000  1
  C  C309  1  0.65350000  0.48250000  0.50600000  1
  C  C310  1  0.06490000  0.45210000  0.47500000  1
  C  C311  1  0.31980000  0.89020000  0.91020000  1
  C  C312  1  0.93630000  0.17210000  0.18820000  1
  C  C313  1  0.53070000  0.48170000  0.49660000  1
  C  C314  1  0.94230000  0.21510000  0.22620000  1
  C  C315  1  0.39880000  0.48240000  0.49060000  1
  C  C316  1  0.86230000  0.00170000  0.00880000  1
  C  C317  1  0.82480000  0.46880000  0.47260000  1
  C  C318  1  0.64650000  0.00710000  0.00880000  1
  C  C319  1  0.07020000  0.96140000  0.96200000  1
  S  S320  1  0.80350000  0.67198000  0.53254000  1
  S  S321  1  0.31200000  0.73370000  0.58378000  1
  S  S322  1  0.86056000  0.22904000  0.03254000  1
  S  S323  1  0.73370000  0.31200000  0.08378000  1
  S  S324  1  0.32802000  0.19650000  0.96746000  1
  S  S325  1  0.27286000  0.70560000  0.46110000  1
  S  S326  1  0.77178000  0.85008000  0.58378000  1
  S  S327  1  0.24450000  0.31176000  0.03890000  1
  S  S328  1  0.68824000  0.75550000  0.46110000  1
  S  S329  1  0.70560000  0.27286000  0.96110000  1
  S  S330  1  0.14992000  0.22822000  0.91622000  1
  S  S331  1  0.22904000  0.86056000  0.53254000  1
  S  S332  1  0.77096000  0.13944000  0.46746000  1
  S  S333  1  0.85008000  0.77178000  0.08378000  1
  S  S334  1  0.29440000  0.72714000  0.03890000  1
  S  S335  1  0.31176000  0.24450000  0.53890000  1
  S  S336  1  0.75550000  0.68824000  0.96110000  1
  S  S337  1  0.22822000  0.14992000  0.41622000  1
  S  S338  1  0.72714000  0.29440000  0.53890000  1
  S  S339  1  0.67198000  0.80350000  0.03254000  1
  S  S340  1  0.26630000  0.68800000  0.91622000  1
  S  S341  1  0.13944000  0.77096000  0.96746000  1
  S  S342  1  0.68800000  0.26630000  0.41622000  1
  S  S343  1  0.19650000  0.32802000  0.46746000  1
  N  N344  1  0.72145000  0.12285000  0.06150000  1
  N  N345  1  0.18602000  0.56782000  0.49964000  1
  N  N346  1  0.85664000  0.22144000  0.14308000  1
  N  N347  1  0.35763000  0.58943000  0.51046000  1
  N  N348  1  0.15995000  0.06135000  0.93850000  1
  N  N349  1  0.92164000  0.78644000  0.64308000  1
  N  N350  1  0.12285000  0.72145000  0.56150000  1
  N  N351  1  0.06818000  0.18638000  0.00036000  1
  N  N352  1  0.56782000  0.18602000  0.99964000  1
  N  N353  1  0.22144000  0.85664000  0.64308000  1
  N  N354  1  0.21356000  0.07836000  0.85692000  1
  N  N355  1  0.93865000  0.84005000  0.56150000  1
  N  N356  1  0.58943000  0.35763000  0.01046000  1
  N  N357  1  0.07897000  0.34717000  0.98954000  1
  N  N358  1  0.65283000  0.92103000  0.51046000  1
  N  N359  1  0.81362000  0.93182000  0.49964000  1
  N  N360  1  0.18638000  0.06818000  0.50036000  1
  N  N361  1  0.34717000  0.07897000  0.48954000  1
  N  N362  1  0.92103000  0.65283000  0.01046000  1
  N  N363  1  0.41057000  0.64237000  0.98954000  1
  N  N364  1  0.06135000  0.15995000  0.43850000  1
  N  N365  1  0.78644000  0.92164000  0.14308000  1
  N  N366  1  0.77856000  0.14336000  0.35692000  1
  N  N367  1  0.43218000  0.81398000  0.00036000  1
  N  N368  1  0.93182000  0.81362000  0.99964000  1
  N  N369  1  0.87715000  0.27855000  0.43850000  1
  N  N370  1  0.07836000  0.21356000  0.35692000  1
  N  N371  1  0.84005000  0.93865000  0.06150000  1
  N  N372  1  0.64237000  0.41057000  0.48954000  1
  N  N373  1  0.14336000  0.77856000  0.85692000  1
  N  N374  1  0.81398000  0.43218000  0.50036000  1
  N  N375  1  0.27855000  0.87715000  0.93850000  1
  Cl  Cl376  1  0.33323000  0.16569000  0.08672000  1
  Cl  Cl377  1  0.74651000  0.07897000  0.91328000  1
  Cl  Cl378  1  0.83431000  0.66677000  0.41328000  1
  Cl  Cl379  1  0.07897000  0.74651000  0.41328000  1
  Cl  Cl380  1  0.92103000  0.25349000  0.58672000  1
  Cl  Cl381  1  0.16569000  0.33323000  0.58672000  1
  Cl  Cl382  1  0.25349000  0.92103000  0.08672000  1
  Cl  Cl383  1  0.66677000  0.83431000  0.91328000  1
