# generated using pymatgen
data_MnH6C15S3NO4
_symmetry_space_group_name_H-M   'P 1'
_cell_length_a   7.65480000
_cell_length_b   20.14910000
_cell_length_c   25.64130000
_cell_angle_alpha   90.00000000
_cell_angle_beta   90.00000000
_cell_angle_gamma   90.00000000
_symmetry_Int_Tables_number   1
_chemical_formula_structural   MnH6C15S3NO4
_chemical_formula_sum   'Mn8 H48 C120 S24 N8 O32'
_cell_volume   3954.84566717
_cell_formula_units_Z   8
loop_
 _symmetry_equiv_pos_site_id
 _symmetry_equiv_pos_as_xyz
  1  'x, y, z'
loop_
 _atom_site_type_symbol
 _atom_site_label
 _atom_site_symmetry_multiplicity
 _atom_site_fract_x
 _atom_site_fract_y
 _atom_site_fract_z
 _atom_site_occupancy
  Mn  Mn0  1  0.24115000  0.18056000  0.65988000  1
  Mn  Mn1  1  0.24115000  0.68056000  0.84012000  1
  Mn  Mn2  1  0.25885000  0.18056000  0.15988000  1
  Mn  Mn3  1  0.25885000  0.68056000  0.34012000  1
  Mn  Mn4  1  0.74115000  0.31944000  0.65988000  1
  Mn  Mn5  1  0.74115000  0.81944000  0.84012000  1
  Mn  Mn6  1  0.75885000  0.31944000  0.15988000  1
  Mn  Mn7  1  0.75885000  0.81944000  0.34012000  1
  H  H8  1  0.07490000  0.34760000  0.08680000  1
  H  H9  1  0.07490000  0.84760000  0.41320000  1
  H  H10  1  0.08280000  0.10690000  0.78570000  1
  H  H11  1  0.08280000  0.60690000  0.71430000  1
  H  H12  1  0.08700000  0.10230000  0.03140000  1
  H  H13  1  0.08700000  0.60230000  0.46860000  1
  H  H14  1  0.15880000  0.40870000  0.01610000  1
  H  H15  1  0.15880000  0.90870000  0.48390000  1
  H  H16  1  0.18870000  0.03470000  0.11370000  1
  H  H17  1  0.18870000  0.53470000  0.38630000  1
  H  H18  1  0.23130000  0.46650000  0.95330000  1
  H  H19  1  0.23130000  0.96650000  0.54670000  1
  H  H20  1  0.26870000  0.46650000  0.45330000  1
  H  H21  1  0.26870000  0.96650000  0.04670000  1
  H  H22  1  0.31130000  0.03470000  0.61370000  1
  H  H23  1  0.31130000  0.53470000  0.88630000  1
  H  H24  1  0.34120000  0.40870000  0.51610000  1
  H  H25  1  0.34120000  0.90870000  0.98390000  1
  H  H26  1  0.41300000  0.10230000  0.53140000  1
  H  H27  1  0.41300000  0.60230000  0.96860000  1
  H  H28  1  0.41720000  0.10690000  0.28570000  1
  H  H29  1  0.41720000  0.60690000  0.21430000  1
  H  H30  1  0.42510000  0.34760000  0.58680000  1
  H  H31  1  0.42510000  0.84760000  0.91320000  1
  H  H32  1  0.57490000  0.15240000  0.08680000  1
  H  H33  1  0.57490000  0.65240000  0.41320000  1
  H  H34  1  0.58280000  0.39310000  0.78570000  1
  H  H35  1  0.58280000  0.89310000  0.71430000  1
  H  H36  1  0.58700000  0.39770000  0.03140000  1
  H  H37  1  0.58700000  0.89770000  0.46860000  1
  H  H38  1  0.65880000  0.09130000  0.01610000  1
  H  H39  1  0.65880000  0.59130000  0.48390000  1
  H  H40  1  0.68870000  0.46530000  0.11370000  1
  H  H41  1  0.68870000  0.96530000  0.38630000  1
  H  H42  1  0.73130000  0.03350000  0.95330000  1
  H  H43  1  0.73130000  0.53350000  0.54670000  1
  H  H44  1  0.76870000  0.03350000  0.45330000  1
  H  H45  1  0.76870000  0.53350000  0.04670000  1
  H  H46  1  0.81130000  0.46530000  0.61370000  1
  H  H47  1  0.81130000  0.96530000  0.88630000  1
  H  H48  1  0.84120000  0.09130000  0.51610000  1
  H  H49  1  0.84120000  0.59130000  0.98390000  1
  H  H50  1  0.91300000  0.39770000  0.53140000  1
  H  H51  1  0.91300000  0.89770000  0.96860000  1
  H  H52  1  0.91720000  0.39310000  0.28570000  1
  H  H53  1  0.91720000  0.89310000  0.21430000  1
  H  H54  1  0.92510000  0.15240000  0.58680000  1
  H  H55  1  0.92510000  0.65240000  0.91320000  1
  C  C56  1  0.00930000  0.38475000  0.07789000  1
  C  C57  1  0.00930000  0.88475000  0.42211000  1
  C  C58  1  0.02130000  0.13781000  0.86081000  1
  C  C59  1  0.02130000  0.63781000  0.63919000  1
  C  C60  1  0.02210000  0.13605000  0.95729000  1
  C  C61  1  0.02210000  0.63605000  0.54271000  1
  C  C62  1  0.02580000  0.13850000  0.80595000  1
  C  C63  1  0.02580000  0.63850000  0.69405000  1
  C  C64  1  0.02620000  0.02074000  0.52274000  1
  C  C65  1  0.02620000  0.52074000  0.97726000  1
  C  C66  1  0.02910000  0.13472000  0.01219000  1
  C  C67  1  0.02910000  0.63472000  0.48781000  1
  C  C68  1  0.05920000  0.31338000  0.53374000  1
  C  C69  1  0.05920000  0.81338000  0.96626000  1
  C  C70  1  0.06290000  0.42207000  0.03571000  1
  C  C71  1  0.06290000  0.92207000  0.46429000  1
  C  C72  1  0.06340000  0.30890000  0.28618000  1
  C  C73  1  0.06340000  0.80890000  0.21382000  1
  C  C74  1  0.07240000  0.31011000  0.38228000  1
  C  C75  1  0.07240000  0.81011000  0.11772000  1
  C  C76  1  0.07250000  0.31098000  0.43760000  1
  C  C77  1  0.07250000  0.81098000  0.06240000  1
  C  C78  1  0.07820000  0.29627000  0.59026000  1
  C  C79  1  0.07820000  0.79627000  0.90974000  1
  C  C80  1  0.08770000  0.28953000  0.23063000  1
  C  C81  1  0.08770000  0.78953000  0.26937000  1
  C  C82  1  0.16760000  0.00484000  0.55333000  1
  C  C83  1  0.16760000  0.50484000  0.94667000  1
  C  C84  1  0.21430000  0.04620000  0.59386000  1
  C  C85  1  0.21430000  0.54620000  0.90614000  1
  C  C86  1  0.28570000  0.04620000  0.09386000  1
  C  C87  1  0.28570000  0.54620000  0.40614000  1
  C  C88  1  0.33240000  0.00484000  0.05333000  1
  C  C89  1  0.33240000  0.50484000  0.44667000  1
  C  C90  1  0.41230000  0.28953000  0.73063000  1
  C  C91  1  0.41230000  0.78953000  0.76937000  1
  C  C92  1  0.42180000  0.29627000  0.09026000  1
  C  C93  1  0.42180000  0.79627000  0.40974000  1
  C  C94  1  0.42750000  0.31098000  0.93760000  1
  C  C95  1  0.42750000  0.81098000  0.56240000  1
  C  C96  1  0.42760000  0.31011000  0.88228000  1
  C  C97  1  0.42760000  0.81011000  0.61772000  1
  C  C98  1  0.43660000  0.30890000  0.78618000  1
  C  C99  1  0.43660000  0.80890000  0.71382000  1
  C  C100  1  0.43710000  0.42207000  0.53571000  1
  C  C101  1  0.43710000  0.92207000  0.96429000  1
  C  C102  1  0.44080000  0.31338000  0.03374000  1
  C  C103  1  0.44080000  0.81338000  0.46626000  1
  C  C104  1  0.47090000  0.13472000  0.51219000  1
  C  C105  1  0.47090000  0.63472000  0.98781000  1
  C  C106  1  0.47380000  0.02074000  0.02274000  1
  C  C107  1  0.47380000  0.52074000  0.47726000  1
  C  C108  1  0.47420000  0.13850000  0.30595000  1
  C  C109  1  0.47420000  0.63850000  0.19405000  1
  C  C110  1  0.47790000  0.13605000  0.45729000  1
  C  C111  1  0.47790000  0.63605000  0.04271000  1
  C  C112  1  0.47870000  0.13781000  0.36081000  1
  C  C113  1  0.47870000  0.63781000  0.13919000  1
  C  C114  1  0.49070000  0.38475000  0.57789000  1
  C  C115  1  0.49070000  0.88475000  0.92211000  1
  C  C116  1  0.50930000  0.11525000  0.07789000  1
  C  C117  1  0.50930000  0.61525000  0.42211000  1
  C  C118  1  0.52130000  0.36219000  0.86081000  1
  C  C119  1  0.52130000  0.86219000  0.63919000  1
  C  C120  1  0.52210000  0.36395000  0.95729000  1
  C  C121  1  0.52210000  0.86395000  0.54271000  1
  C  C122  1  0.52580000  0.36150000  0.80595000  1
  C  C123  1  0.52580000  0.86150000  0.69405000  1
  C  C124  1  0.52620000  0.47926000  0.52274000  1
  C  C125  1  0.52620000  0.97926000  0.97726000  1
  C  C126  1  0.52910000  0.36528000  0.01219000  1
  C  C127  1  0.52910000  0.86528000  0.48781000  1
  C  C128  1  0.55920000  0.18662000  0.53374000  1
  C  C129  1  0.55920000  0.68662000  0.96626000  1
  C  C130  1  0.56290000  0.07793000  0.03571000  1
  C  C131  1  0.56290000  0.57793000  0.46429000  1
  C  C132  1  0.56340000  0.19110000  0.28618000  1
  C  C133  1  0.56340000  0.69110000  0.21382000  1
  C  C134  1  0.57240000  0.18989000  0.38228000  1
  C  C135  1  0.57240000  0.68989000  0.11772000  1
  C  C136  1  0.57250000  0.18902000  0.43760000  1
  C  C137  1  0.57250000  0.68902000  0.06240000  1
  C  C138  1  0.57820000  0.20373000  0.59026000  1
  C  C139  1  0.57820000  0.70373000  0.90974000  1
  C  C140  1  0.58770000  0.21047000  0.23063000  1
  C  C141  1  0.58770000  0.71047000  0.26937000  1
  C  C142  1  0.66760000  0.49516000  0.55333000  1
  C  C143  1  0.66760000  0.99516000  0.94667000  1
  C  C144  1  0.71430000  0.45380000  0.59386000  1
  C  C145  1  0.71430000  0.95380000  0.90614000  1
  C  C146  1  0.78570000  0.45380000  0.09386000  1
  C  C147  1  0.78570000  0.95380000  0.40614000  1
  C  C148  1  0.83240000  0.49516000  0.05333000  1
  C  C149  1  0.83240000  0.99516000  0.44667000  1
  C  C150  1  0.91230000  0.21047000  0.73063000  1
  C  C151  1  0.91230000  0.71047000  0.76937000  1
  C  C152  1  0.92180000  0.20373000  0.09026000  1
  C  C153  1  0.92180000  0.70373000  0.40974000  1
  C  C154  1  0.92750000  0.18902000  0.93760000  1
  C  C155  1  0.92750000  0.68902000  0.56240000  1
  C  C156  1  0.92760000  0.18989000  0.88228000  1
  C  C157  1  0.92760000  0.68989000  0.61772000  1
  C  C158  1  0.93660000  0.19110000  0.78618000  1
  C  C159  1  0.93660000  0.69110000  0.71382000  1
  C  C160  1  0.93710000  0.07793000  0.53571000  1
  C  C161  1  0.93710000  0.57793000  0.96429000  1
  C  C162  1  0.94080000  0.18662000  0.03374000  1
  C  C163  1  0.94080000  0.68662000  0.46626000  1
  C  C164  1  0.97090000  0.36528000  0.51219000  1
  C  C165  1  0.97090000  0.86528000  0.98781000  1
  C  C166  1  0.97380000  0.47926000  0.02274000  1
  C  C167  1  0.97380000  0.97926000  0.47726000  1
  C  C168  1  0.97420000  0.36150000  0.30595000  1
  C  C169  1  0.97420000  0.86150000  0.19405000  1
  C  C170  1  0.97790000  0.36395000  0.45729000  1
  C  C171  1  0.97790000  0.86395000  0.04271000  1
  C  C172  1  0.97870000  0.36219000  0.36081000  1
  C  C173  1  0.97870000  0.86219000  0.13919000  1
  C  C174  1  0.99070000  0.11525000  0.57789000  1
  C  C175  1  0.99070000  0.61525000  0.92211000  1
  S  S176  1  0.11137000  0.08611000  0.90853000  1
  S  S177  1  0.11137000  0.58611000  0.59147000  1
  S  S178  1  0.15533000  0.26248000  0.48710000  1
  S  S179  1  0.15533000  0.76248000  0.01290000  1
  S  S180  1  0.15625000  0.25946000  0.33432000  1
  S  S181  1  0.15625000  0.75946000  0.16568000  1
  S  S182  1  0.34375000  0.25946000  0.83432000  1
  S  S183  1  0.34375000  0.75946000  0.66568000  1
  S  S184  1  0.34467000  0.26248000  0.98710000  1
  S  S185  1  0.34467000  0.76248000  0.51290000  1
  S  S186  1  0.38863000  0.08611000  0.40853000  1
  S  S187  1  0.38863000  0.58611000  0.09147000  1
  S  S188  1  0.61137000  0.41389000  0.90853000  1
  S  S189  1  0.61137000  0.91389000  0.59147000  1
  S  S190  1  0.65533000  0.23752000  0.48710000  1
  S  S191  1  0.65533000  0.73752000  0.01290000  1
  S  S192  1  0.65625000  0.24054000  0.33432000  1
  S  S193  1  0.65625000  0.74054000  0.16568000  1
  S  S194  1  0.84375000  0.24054000  0.83432000  1
  S  S195  1  0.84375000  0.74054000  0.66568000  1
  S  S196  1  0.84467000  0.23752000  0.98710000  1
  S  S197  1  0.84467000  0.73752000  0.51290000  1
  S  S198  1  0.88863000  0.41389000  0.40853000  1
  S  S199  1  0.88863000  0.91389000  0.09147000  1
  N  N200  1  0.12950000  0.10130000  0.60622000  1
  N  N201  1  0.12950000  0.60130000  0.89378000  1
  N  N202  1  0.37050000  0.10130000  0.10622000  1
  N  N203  1  0.37050000  0.60130000  0.39378000  1
  N  N204  1  0.62950000  0.39870000  0.60622000  1
  N  N205  1  0.62950000  0.89870000  0.89378000  1
  N  N206  1  0.87050000  0.39870000  0.10622000  1
  N  N207  1  0.87050000  0.89870000  0.39378000  1
  O  O208  1  0.00560000  0.16984000  0.12251000  1
  O  O209  1  0.00560000  0.66984000  0.37749000  1
  O  O210  1  0.01560000  0.32373000  0.19613000  1
  O  O211  1  0.01560000  0.82373000  0.30387000  1
  O  O212  1  0.17970000  0.24933000  0.59971000  1
  O  O213  1  0.17970000  0.74933000  0.90029000  1
  O  O214  1  0.18230000  0.23943000  0.22369000  1
  O  O215  1  0.18230000  0.73943000  0.27631000  1
  O  O216  1  0.31770000  0.23943000  0.72369000  1
  O  O217  1  0.31770000  0.73943000  0.77631000  1
  O  O218  1  0.32030000  0.24933000  0.09971000  1
  O  O219  1  0.32030000  0.74933000  0.40029000  1
  O  O220  1  0.48440000  0.32373000  0.69613000  1
  O  O221  1  0.48440000  0.82373000  0.80387000  1
  O  O222  1  0.49440000  0.16984000  0.62251000  1
  O  O223  1  0.49440000  0.66984000  0.87749000  1
  O  O224  1  0.50560000  0.33016000  0.12251000  1
  O  O225  1  0.50560000  0.83016000  0.37749000  1
  O  O226  1  0.51560000  0.17627000  0.19613000  1
  O  O227  1  0.51560000  0.67627000  0.30387000  1
  O  O228  1  0.67970000  0.25067000  0.59971000  1
  O  O229  1  0.67970000  0.75067000  0.90029000  1
  O  O230  1  0.68230000  0.26057000  0.22369000  1
  O  O231  1  0.68230000  0.76057000  0.27631000  1
  O  O232  1  0.81770000  0.26057000  0.72369000  1
  O  O233  1  0.81770000  0.76057000  0.77631000  1
  O  O234  1  0.82030000  0.25067000  0.09971000  1
  O  O235  1  0.82030000  0.75067000  0.40029000  1
  O  O236  1  0.98440000  0.17627000  0.69613000  1
  O  O237  1  0.98440000  0.67627000  0.80387000  1
  O  O238  1  0.99440000  0.33016000  0.62251000  1
  O  O239  1  0.99440000  0.83016000  0.87749000  1
