# generated using pymatgen
data_Zn5H16(C2O)24
_symmetry_space_group_name_H-M   'P 1'
_cell_length_a   9.37890000
_cell_length_b   10.92470000
_cell_length_c   18.89930000
_cell_angle_alpha   104.85800000
_cell_angle_beta   94.31400000
_cell_angle_gamma   107.71400000
_symmetry_Int_Tables_number   1
_chemical_formula_structural   Zn5H16(C2O)24
_chemical_formula_sum   'Zn5 H16 C48 O24'
_cell_volume   1758.09594095
_cell_formula_units_Z   1
loop_
 _symmetry_equiv_pos_site_id
 _symmetry_equiv_pos_as_xyz
  1  'x, y, z'
loop_
 _atom_site_type_symbol
 _atom_site_label
 _atom_site_symmetry_multiplicity
 _atom_site_fract_x
 _atom_site_fract_y
 _atom_site_fract_z
 _atom_site_occupancy
  Zn  Zn0  1  0.00000000  0.00000000  0.00000000  1
  Zn  Zn1  1  0.04421000  0.36595000  0.76793000  1
  Zn  Zn2  1  0.31589000  0.03581000  0.13786000  1
  Zn  Zn3  1  0.68411000  0.96419000  0.86214000  1
  Zn  Zn4  1  0.95579000  0.63405000  0.23207000  1
  H  H5  1  0.08540000  0.02640000  0.31410000  1
  H  H6  1  0.14180000  0.86490000  0.51690000  1
  H  H7  1  0.14630000  0.37350000  0.02600000  1
  H  H8  1  0.24590000  0.25320000  0.92680000  1
  H  H9  1  0.25860000  0.98750000  0.83410000  1
  H  H10  1  0.33480000  0.02690000  0.63120000  1
  H  H11  1  0.35390000  0.72150000  0.96250000  1
  H  H12  1  0.35870000  0.52730000  0.11870000  1
  H  H13  1  0.64130000  0.47270000  0.88130000  1
  H  H14  1  0.64610000  0.27850000  0.03750000  1
  H  H15  1  0.66520000  0.97310000  0.36880000  1
  H  H16  1  0.74140000  0.01250000  0.16590000  1
  H  H17  1  0.75410000  0.74680000  0.07320000  1
  H  H18  1  0.85370000  0.62650000  0.97400000  1
  H  H19  1  0.85820000  0.13510000  0.48310000  1
  H  H20  1  0.91460000  0.97360000  0.68590000  1
  C  C21  1  0.01850000  0.98450000  0.69875000  1
  C  C22  1  0.02520000  0.91080000  0.43840000  1
  C  C23  1  0.03100000  0.03280000  0.17492000  1
  C  C24  1  0.04540000  0.80650000  0.37520000  1
  C  C25  1  0.05950000  0.00530000  0.57199000  1
  C  C26  1  0.06950000  0.63530000  0.00736000  1
  C  C27  1  0.07240000  0.98170000  0.76873000  1
  C  C28  1  0.08350000  0.91980000  0.51030000  1
  C  C29  1  0.08760000  0.42560000  0.01514000  1
  C  C30  1  0.11640000  0.00330000  0.64731000  1
  C  C31  1  0.12880000  0.78580000  0.02589000  1
  C  C32  1  0.15970000  0.56060000  0.02190000  1
  C  C33  1  0.22260000  0.99190000  0.78682000  1
  C  C34  1  0.26740000  0.01480000  0.66586000  1
  C  C35  1  0.32000000  0.00850000  0.73584000  1
  C  C36  1  0.32880000  0.61650000  0.03877000  1
  C  C37  1  0.34050000  0.41040000  0.84322000  1
  C  C38  1  0.34980000  0.17440000  0.03552000  1
  C  C39  1  0.35370000  0.28750000  0.93605000  1
  C  C40  1  0.40820000  0.69820000  0.99853000  1
  C  C41  1  0.41110000  0.58290000  0.09106000  1
  C  C42  1  0.43090000  0.36990000  0.89683000  1
  C  C43  1  0.43400000  0.25460000  0.98923000  1
  C  C44  1  0.48180000  0.01840000  0.75532000  1
  C  C45  1  0.51820000  0.98160000  0.24468000  1
  C  C46  1  0.56600000  0.74540000  0.01077000  1
  C  C47  1  0.56910000  0.63010000  0.10317000  1
  C  C48  1  0.58890000  0.41710000  0.90894000  1
  C  C49  1  0.59180000  0.30180000  0.00147000  1
  C  C50  1  0.64630000  0.71250000  0.06395000  1
  C  C51  1  0.65020000  0.82560000  0.96448000  1
  C  C52  1  0.65950000  0.58960000  0.15678000  1
  C  C53  1  0.67120000  0.38350000  0.96123000  1
  C  C54  1  0.68000000  0.99150000  0.26416000  1
  C  C55  1  0.73260000  0.98520000  0.33414000  1
  C  C56  1  0.77740000  0.00810000  0.21318000  1
  C  C57  1  0.84030000  0.43940000  0.97810000  1
  C  C58  1  0.87120000  0.21420000  0.97411000  1
  C  C59  1  0.88360000  0.99670000  0.35269000  1
  C  C60  1  0.91240000  0.57440000  0.98486000  1
  C  C61  1  0.91650000  0.08020000  0.48970000  1
  C  C62  1  0.92760000  0.01830000  0.23127000  1
  C  C63  1  0.93050000  0.36470000  0.99264000  1
  C  C64  1  0.94050000  0.99470000  0.42801000  1
  C  C65  1  0.95460000  0.19350000  0.62480000  1
  C  C66  1  0.96900000  0.96720000  0.82508000  1
  C  C67  1  0.97480000  0.08920000  0.56160000  1
  C  C68  1  0.98150000  0.01550000  0.30125000  1
  O  O69  1  0.02730000  0.00310000  0.89148000  1
  O  O70  1  0.07350000  0.26680000  0.67197000  1
  O  O71  1  0.08930000  0.84168000  0.98190000  1
  O  O72  1  0.17260000  0.79570000  0.37184000  1
  O  O73  1  0.17370000  0.08060000  0.20025000  1
  O  O74  1  0.19740000  0.37030000  0.84208000  1
  O  O75  1  0.21000000  0.15280000  0.03254000  1
  O  O76  1  0.21060000  0.84414000  0.08923000  1
  O  O77  1  0.40510000  0.47720000  0.80470000  1
  O  O78  1  0.41740000  0.91560000  0.27200000  1
  O  O79  1  0.42690000  0.13800000  0.07846000  1
  O  O80  1  0.49750000  0.04470000  0.19886000  1
  O  O81  1  0.50250000  0.95530000  0.80114000  1
  O  O82  1  0.57310000  0.86200000  0.92154000  1
  O  O83  1  0.58260000  0.08440000  0.72800000  1
  O  O84  1  0.59490000  0.52280000  0.19530000  1
  O  O85  1  0.78940000  0.15586000  0.91077000  1
  O  O86  1  0.79000000  0.84720000  0.96746000  1
  O  O87  1  0.80260000  0.62970000  0.15792000  1
  O  O88  1  0.82630000  0.91940000  0.79975000  1
  O  O89  1  0.82740000  0.20430000  0.62816000  1
  O  O90  1  0.91070000  0.15832000  0.01810000  1
  O  O91  1  0.92650000  0.73320000  0.32803000  1
  O  O92  1  0.97270000  0.99690000  0.10852000  1
