# generated using pymatgen
data_Tb2H24(C14O5)3
_symmetry_space_group_name_H-M   'P 1'
_cell_length_a   15.08900000
_cell_length_b   15.27500000
_cell_length_c   23.65400000
_cell_angle_alpha   85.90200000
_cell_angle_beta   81.50600000
_cell_angle_gamma   86.81300000
_symmetry_Int_Tables_number   1
_chemical_formula_structural   Tb2H24(C14O5)3
_chemical_formula_sum   'Tb8 H96 C168 O60'
_cell_volume   5372.68557859
_cell_formula_units_Z   4
loop_
 _symmetry_equiv_pos_site_id
 _symmetry_equiv_pos_as_xyz
  1  'x, y, z'
loop_
 _atom_site_type_symbol
 _atom_site_label
 _atom_site_symmetry_multiplicity
 _atom_site_fract_x
 _atom_site_fract_y
 _atom_site_fract_z
 _atom_site_occupancy
  Tb  Tb0  1  0.15819000  0.16721000  0.71893000  1
  Tb  Tb1  1  0.18799000  0.90959000  0.72785000  1
  Tb  Tb2  1  0.27207000  0.38906000  0.73259000  1
  Tb  Tb3  1  0.29822000  0.63673000  0.77349000  1
  Tb  Tb4  1  0.70178000  0.36327000  0.22651000  1
  Tb  Tb5  1  0.72793000  0.61094000  0.26741000  1
  Tb  Tb6  1  0.81201000  0.09041000  0.27215000  1
  Tb  Tb7  1  0.84181000  0.83279000  0.28107000  1
  H  H8  1  0.01910000  0.18250000  0.19630000  1
  H  H9  1  0.02240000  0.45010000  0.14810000  1
  H  H10  1  0.03930000  0.30520000  0.50000000  1
  H  H11  1  0.04810000  0.49480000  0.62970000  1
  H  H12  1  0.05170000  0.26460000  0.00340000  1
  H  H13  1  0.05220000  0.71690000  0.70510000  1
  H  H14  1  0.05740000  0.91650000  0.18840000  1
  H  H15  1  0.06380000  0.22430000  0.33840000  1
  H  H16  1  0.06440000  0.74940000  0.11510000  1
  H  H17  1  0.07140000  0.44940000  0.41580000  1
  H  H18  1  0.08040000  0.31660000  0.59290000  1
  H  H19  1  0.08180000  0.70160000  0.93920000  1
  H  H20  1  0.08420000  0.44830000  0.80940000  1
  H  H21  1  0.09660000  0.54980000  0.99820000  1
  H  H22  1  0.10280000  0.98180000  0.93060000  1
  H  H23  1  0.10510000  0.05270000  0.01480000  1
  H  H24  1  0.13780000  0.53070000  0.90150000  1
  H  H25  1  0.13940000  0.06900000  0.29970000  1
  H  H26  1  0.15190000  0.14920000  0.13690000  1
  H  H27  1  0.16910000  0.64640000  0.07370000  1
  H  H28  1  0.17780000  0.13920000  0.51780000  1
  H  H29  1  0.18250000  0.72730000  0.47210000  1
  H  H30  1  0.18370000  0.79300000  0.55670000  1
  H  H31  1  0.20490000  0.89790000  0.14210000  1
  H  H32  1  0.21380000  0.10490000  0.42300000  1
  H  H33  1  0.25780000  0.47880000  0.36150000  1
  H  H34  1  0.27710000  0.15250000  0.84780000  1
  H  H35  1  0.27920000  0.22230000  0.93080000  1
  H  H36  1  0.28560000  0.04840000  0.25440000  1
  H  H37  1  0.29620000  0.38670000  0.03710000  1
  H  H38  1  0.29760000  0.32270000  0.43190000  1
  H  H39  1  0.30950000  0.92370000  0.56990000  1
  H  H40  1  0.31590000  0.82390000  0.34230000  1
  H  H41  1  0.31900000  0.51940000  0.52940000  1
  H  H42  1  0.32660000  0.58510000  0.61260000  1
  H  H43  1  0.33700000  0.34040000  0.52210000  1
  H  H44  1  0.33920000  0.36550000  0.94000000  1
  H  H45  1  0.34580000  0.88550000  0.47620000  1
  H  H46  1  0.37170000  0.13240000  0.13670000  1
  H  H47  1  0.38250000  0.43280000  0.29990000  1
  H  H48  1  0.40460000  0.01070000  0.77010000  1
  H  H49  1  0.40600000  0.06910000  0.65490000  1
  H  H50  1  0.41900000  0.62220000  0.43690000  1
  H  H51  1  0.44550000  0.73940000  0.31210000  1
  H  H52  1  0.45770000  0.01210000  0.38170000  1
  H  H53  1  0.45960000  0.42670000  0.62400000  1
  H  H54  1  0.47860000  0.90980000  0.20870000  1
  H  H55  1  0.47940000  0.21090000  0.16810000  1
  H  H56  1  0.52060000  0.78910000  0.83190000  1
  H  H57  1  0.52140000  0.09020000  0.79130000  1
  H  H58  1  0.54040000  0.57330000  0.37600000  1
  H  H59  1  0.54230000  0.98790000  0.61830000  1
  H  H60  1  0.55450000  0.26060000  0.68790000  1
  H  H61  1  0.58100000  0.37780000  0.56310000  1
  H  H62  1  0.59400000  0.93090000  0.34510000  1
  H  H63  1  0.59540000  0.98930000  0.22990000  1
  H  H64  1  0.61750000  0.56720000  0.70010000  1
  H  H65  1  0.62830000  0.86760000  0.86330000  1
  H  H66  1  0.65420000  0.11450000  0.52380000  1
  H  H67  1  0.66080000  0.63450000  0.06000000  1
  H  H68  1  0.66300000  0.65960000  0.47790000  1
  H  H69  1  0.67340000  0.41490000  0.38740000  1
  H  H70  1  0.68100000  0.48060000  0.47060000  1
  H  H71  1  0.68410000  0.17610000  0.65770000  1
  H  H72  1  0.69050000  0.07630000  0.43010000  1
  H  H73  1  0.70240000  0.67730000  0.56810000  1
  H  H74  1  0.70380000  0.61330000  0.96290000  1
  H  H75  1  0.71440000  0.95160000  0.74560000  1
  H  H76  1  0.72080000  0.77770000  0.06920000  1
  H  H77  1  0.72290000  0.84750000  0.15220000  1
  H  H78  1  0.74220000  0.52120000  0.63850000  1
  H  H79  1  0.78620000  0.89510000  0.57700000  1
  H  H80  1  0.79510000  0.10210000  0.85790000  1
  H  H81  1  0.81630000  0.20700000  0.44330000  1
  H  H82  1  0.81750000  0.27270000  0.52790000  1
  H  H83  1  0.82220000  0.86080000  0.48220000  1
  H  H84  1  0.83090000  0.35360000  0.92630000  1
  H  H85  1  0.84810000  0.85080000  0.86310000  1
  H  H86  1  0.86060000  0.93100000  0.70030000  1
  H  H87  1  0.86220000  0.46930000  0.09850000  1
  H  H88  1  0.89490000  0.94730000  0.98520000  1
  H  H89  1  0.89720000  0.01820000  0.06940000  1
  H  H90  1  0.90340000  0.45020000  0.00180000  1
  H  H91  1  0.91580000  0.55170000  0.19060000  1
  H  H92  1  0.91820000  0.29840000  0.06080000  1
  H  H93  1  0.91960000  0.68340000  0.40710000  1
  H  H94  1  0.92860000  0.55060000  0.58420000  1
  H  H95  1  0.93560000  0.25060000  0.88490000  1
  H  H96  1  0.93620000  0.77570000  0.66160000  1
  H  H97  1  0.94260000  0.08350000  0.81160000  1
  H  H98  1  0.94780000  0.28310000  0.29490000  1
  H  H99  1  0.94830000  0.73540000  0.99660000  1
  H  H100  1  0.95190000  0.50520000  0.37030000  1
  H  H101  1  0.96070000  0.69480000  0.50000000  1
  H  H102  1  0.97760000  0.54990000  0.85190000  1
  H  H103  1  0.98090000  0.81750000  0.80370000  1
  C  C104  1  0.01170000  0.98720000  0.72730000  1
  C  C105  1  0.02060000  0.33900000  0.84390000  1
  C  C106  1  0.02450000  0.19810000  0.15720000  1
  C  C107  1  0.02480000  0.55120000  0.63660000  1
  C  C108  1  0.02690000  0.68310000  0.68100000  1
  C  C109  1  0.03010000  0.51000000  0.14080000  1
  C  C110  1  0.03360000  0.42890000  0.83340000  1
  C  C111  1  0.03550000  0.73270000  0.92360000  1
  C  C112  1  0.04080000  0.28100000  0.34500000  1
  C  C113  1  0.04520000  0.24740000  0.04220000  1
  C  C114  1  0.04560000  0.41600000  0.39170000  1
  C  C115  1  0.04600000  0.76010000  0.86550000  1
  C  C116  1  0.05500000  0.68960000  0.12160000  1
  C  C117  1  0.06110000  0.59670000  0.67350000  1
  C  C118  1  0.07450000  0.33080000  0.38160000  1
  C  C119  1  0.08620000  0.27490000  0.81170000  1
  C  C120  1  0.08690000  0.99500000  0.24800000  1
  C  C121  1  0.09890000  0.31070000  0.50450000  1
  C  C122  1  0.10180000  0.53860000  0.10590000  1
  C  C123  1  0.10400000  0.94350000  0.20110000  1
  C  C124  1  0.10450000  0.17900000  0.12160000  1
  C  C125  1  0.11410000  0.20410000  0.06350000  1
  C  C126  1  0.11720000  0.62790000  0.09660000  1
  C  C127  1  0.12360000  0.31870000  0.56050000  1
  C  C128  1  0.13310000  0.74300000  0.82850000  1
  C  C129  1  0.13600000  0.55820000  0.70490000  1
  C  C130  1  0.13760000  0.03010000  0.93040000  1
  C  C131  1  0.13920000  0.07280000  0.98080000  1
  C  C132  1  0.14550000  0.51240000  0.98630000  1
  C  C133  1  0.15220000  0.03490000  0.26820000  1
  C  C134  1  0.16630000  0.31120000  0.45720000  1
  C  C135  1  0.17040000  0.50170000  0.92820000  1
  C  C136  1  0.18860000  0.01660000  0.82580000  1
  C  C137  1  0.19000000  0.06200000  0.87940000  1
  C  C138  1  0.19040000  0.47000000  0.02550000  1
  C  C139  1  0.19070000  0.14370000  0.98020000  1
  C  C140  1  0.19150000  0.93270000  0.17330000  1
  C  C141  1  0.21180000  0.32960000  0.56540000  1
  C  C142  1  0.21210000  0.69880000  0.50050000  1
  C  C143  1  0.21240000  0.08830000  0.50900000  1
  C  C144  1  0.21280000  0.73820000  0.55150000  1
  C  C145  1  0.21490000  0.05930000  0.61450000  1
  C  C146  1  0.23290000  0.06790000  0.45220000  1
  C  C147  1  0.23720000  0.33920000  0.62370000  1
  C  C148  1  0.23920000  0.02310000  0.24040000  1
  C  C149  1  0.24170000  0.13230000  0.88120000  1
  C  C150  1  0.24200000  0.03460000  0.55340000  1
  C  C151  1  0.24350000  0.17460000  0.93080000  1
  C  C152  1  0.24410000  0.44760000  0.91050000  1
  C  C153  1  0.25360000  0.32200000  0.46380000  1
  C  C154  1  0.25420000  0.61910000  0.49170000  1
  C  C155  1  0.25530000  0.69820000  0.59420000  1
  C  C156  1  0.25840000  0.97570000  0.19360000  1
  C  C157  1  0.26100000  0.74100000  0.65050000  1
  C  C158  1  0.26450000  0.41500000  0.00970000  1
  C  C159  1  0.27090000  0.43430000  0.84710000  1
  C  C160  1  0.27770000  0.33210000  0.51810000  1
  C  C161  1  0.28280000  0.99100000  0.44040000  1
  C  C162  1  0.29030000  0.96030000  0.54050000  1
  C  C163  1  0.29050000  0.40330000  0.95150000  1
  C  C164  1  0.29380000  0.57580000  0.53430000  1
  C  C165  1  0.29680000  0.61440000  0.58460000  1
  C  C166  1  0.31190000  0.93700000  0.48430000  1
  C  C167  1  0.31450000  0.49760000  0.36440000  1
  C  C168  1  0.32760000  0.55490000  0.40600000  1
  C  C169  1  0.37220000  0.84430000  0.34450000  1
  C  C170  1  0.37930000  0.91830000  0.36620000  1
  C  C171  1  0.38490000  0.84230000  0.78120000  1
  C  C172  1  0.38610000  0.21840000  0.70390000  1
  C  C173  1  0.38920000  0.47030000  0.32800000  1
  C  C174  1  0.41170000  0.58330000  0.40960000  1
  C  C175  1  0.41220000  0.01460000  0.17250000  1
  C  C176  1  0.41390000  0.10440000  0.15760000  1
  C  C177  1  0.44540000  0.53890000  0.70700000  1
  C  C178  1  0.44950000  0.89400000  0.79750000  1
  C  C179  1  0.44960000  0.79540000  0.32420000  1
  C  C180  1  0.45090000  0.98150000  0.78690000  1
  C  C181  1  0.45640000  0.95720000  0.36720000  1
  C  C182  1  0.46190000  0.09150000  0.65560000  1
  C  C183  1  0.46840000  0.16990000  0.67790000  1
  C  C184  1  0.47490000  0.49750000  0.33220000  1
  C  C185  1  0.47980000  0.97010000  0.19970000  1
  C  C186  1  0.48000000  0.15010000  0.17460000  1
  C  C187  1  0.48390000  0.55430000  0.37310000  1
  C  C188  1  0.51610000  0.44570000  0.62690000  1
  C  C189  1  0.52000000  0.84990000  0.82540000  1
  C  C190  1  0.52020000  0.02990000  0.80030000  1
  C  C191  1  0.52510000  0.50250000  0.66780000  1
  C  C192  1  0.53160000  0.83010000  0.32210000  1
  C  C193  1  0.53810000  0.90850000  0.34440000  1
  C  C194  1  0.54360000  0.04280000  0.63280000  1
  C  C195  1  0.54910000  0.01850000  0.21310000  1
  C  C196  1  0.55040000  0.20460000  0.67580000  1
  C  C197  1  0.55050000  0.10600000  0.20250000  1
  C  C198  1  0.55460000  0.46110000  0.29300000  1
  C  C199  1  0.58610000  0.89560000  0.84240000  1
  C  C200  1  0.58780000  0.98540000  0.82750000  1
  C  C201  1  0.58830000  0.41670000  0.59040000  1
  C  C202  1  0.61080000  0.52970000  0.67200000  1
  C  C203  1  0.61390000  0.78160000  0.29610000  1
  C  C204  1  0.61510000  0.15770000  0.21880000  1
  C  C205  1  0.62070000  0.08170000  0.63380000  1
  C  C206  1  0.62780000  0.15570000  0.65550000  1
  C  C207  1  0.67240000  0.44510000  0.59400000  1
  C  C208  1  0.68550000  0.50240000  0.63560000  1
  C  C209  1  0.68810000  0.06300000  0.51570000  1
  C  C210  1  0.70320000  0.38560000  0.41540000  1
  C  C211  1  0.70620000  0.42420000  0.46570000  1
  C  C212  1  0.70950000  0.59670000  0.04850000  1
  C  C213  1  0.70970000  0.03970000  0.45950000  1
  C  C214  1  0.71720000  0.00900000  0.55960000  1
  C  C215  1  0.72230000  0.66790000  0.48190000  1
  C  C216  1  0.72910000  0.56570000  0.15290000  1
  C  C217  1  0.73550000  0.58500000  0.99030000  1
  C  C218  1  0.73900000  0.25900000  0.34950000  1
  C  C219  1  0.74160000  0.02430000  0.80640000  1
  C  C220  1  0.74470000  0.30180000  0.40580000  1
  C  C221  1  0.74580000  0.38090000  0.50830000  1
  C  C222  1  0.74640000  0.67800000  0.53620000  1
  C  C223  1  0.75590000  0.55240000  0.08950000  1
  C  C224  1  0.75650000  0.82540000  0.06920000  1
  C  C225  1  0.75800000  0.96540000  0.44660000  1
  C  C226  1  0.75830000  0.86770000  0.11880000  1
  C  C227  1  0.76080000  0.97690000  0.75960000  1
  C  C228  1  0.76280000  0.66080000  0.37630000  1
  C  C229  1  0.76710000  0.93210000  0.54780000  1
  C  C230  1  0.78510000  0.94070000  0.38550000  1
  C  C231  1  0.78720000  0.26180000  0.44850000  1
  C  C232  1  0.78760000  0.91170000  0.49100000  1
  C  C233  1  0.78790000  0.30120000  0.49950000  1
  C  C234  1  0.78820000  0.67040000  0.43460000  1
  C  C235  1  0.80850000  0.06730000  0.82670000  1
  C  C236  1  0.80930000  0.85630000  0.01980000  1
  C  C237  1  0.80960000  0.53000000  0.97450000  1
  C  C238  1  0.81000000  0.93800000  0.12060000  1
  C  C239  1  0.81140000  0.98340000  0.17420000  1
  C  C240  1  0.82960000  0.49830000  0.07180000  1
  C  C241  1  0.83370000  0.68880000  0.54280000  1
  C  C242  1  0.84780000  0.96510000  0.73180000  1
  C  C243  1  0.85450000  0.48760000  0.01370000  1
  C  C244  1  0.86080000  0.92720000  0.01920000  1
  C  C245  1  0.86240000  0.96990000  0.06960000  1
  C  C246  1  0.86400000  0.44180000  0.29510000  1
  C  C247  1  0.86690000  0.25700000  0.17150000  1
  C  C248  1  0.87640000  0.68130000  0.43950000  1
  C  C249  1  0.88280000  0.37210000  0.90340000  1
  C  C250  1  0.88590000  0.79590000  0.93650000  1
  C  C251  1  0.89550000  0.82100000  0.87840000  1
  C  C252  1  0.89600000  0.05650000  0.79890000  1
  C  C253  1  0.89820000  0.46140000  0.89410000  1
  C  C254  1  0.90110000  0.68930000  0.49550000  1
  C  C255  1  0.91310000  0.00500000  0.75200000  1
  C  C256  1  0.91380000  0.72510000  0.18830000  1
  C  C257  1  0.92550000  0.66920000  0.61840000  1
  C  C258  1  0.93890000  0.40330000  0.32650000  1
  C  C259  1  0.94500000  0.31040000  0.87840000  1
  C  C260  1  0.95400000  0.23990000  0.13450000  1
  C  C261  1  0.95440000  0.58400000  0.60830000  1
  C  C262  1  0.95480000  0.75260000  0.95780000  1
  C  C263  1  0.95920000  0.71900000  0.65500000  1
  C  C264  1  0.96450000  0.26730000  0.07640000  1
  C  C265  1  0.96640000  0.57110000  0.16660000  1
  C  C266  1  0.96990000  0.49000000  0.85920000  1
  C  C267  1  0.97310000  0.31690000  0.31900000  1
  C  C268  1  0.97520000  0.44880000  0.36340000  1
  C  C269  1  0.97550000  0.80190000  0.84280000  1
  C  C270  1  0.97940000  0.66100000  0.15610000  1
  C  C271  1  0.98830000  0.01280000  0.27270000  1
  O  O272  1  0.03440000  0.91660000  0.70470000  1
  O  O273  1  0.06610000  0.19620000  0.81160000  1
  O  O274  1  0.06900000  0.03990000  0.73400000  1
  O  O275  1  0.14840000  0.78010000  0.77960000  1
  O  O276  1  0.14920000  0.29250000  0.40400000  1
  O  O277  1  0.15890000  0.30170000  0.78350000  1
  O  O278  1  0.16070000  0.47920000  0.69890000  1
  O  O279  1  0.16080000  0.94200000  0.82700000  1
  O  O280  1  0.16860000  0.47800000  0.08430000  1
  O  O281  1  0.16970000  0.60870000  0.73500000  1
  O  O282  1  0.17060000  0.13050000  0.62330000  1
  O  O283  1  0.18820000  0.68590000  0.84760000  1
  O  O284  1  0.18990000  0.30530000  0.66850000  1
  O  O285  1  0.19460000  0.18550000  0.03050000  1
  O  O286  1  0.21860000  0.81180000  0.65650000  1
  O  O287  1  0.22030000  0.05730000  0.77820000  1
  O  O288  1  0.23820000  0.00860000  0.65390000  1
  O  O289  1  0.24250000  0.49210000  0.81180000  1
  O  O290  1  0.24940000  0.58180000  0.43990000  1
  O  O291  1  0.29950000  0.96950000  0.38460000  1
  O  O292  1  0.30290000  0.38130000  0.62840000  1
  O  O293  1  0.31120000  0.18410000  0.70380000  1
  O  O294  1  0.31390000  0.70510000  0.68290000  1
  O  O295  1  0.31670000  0.36770000  0.83200000  1
  O  O296  1  0.32860000  0.88160000  0.74740000  1
  O  O297  1  0.34360000  0.96450000  0.16080000  1
  O  O298  1  0.36880000  0.50460000  0.70960000  1
  O  O299  1  0.37290000  0.76090000  0.79400000  1
  O  O300  1  0.39460000  0.29180000  0.72180000  1
  O  O301  1  0.45610000  0.60230000  0.73540000  1
  O  O302  1  0.54390000  0.39770000  0.26460000  1
  O  O303  1  0.60540000  0.70820000  0.27820000  1
  O  O304  1  0.62710000  0.23910000  0.20600000  1
  O  O305  1  0.63120000  0.49540000  0.29040000  1
  O  O306  1  0.65640000  0.03550000  0.83920000  1
  O  O307  1  0.67140000  0.11840000  0.25260000  1
  O  O308  1  0.68330000  0.63230000  0.16800000  1
  O  O309  1  0.68610000  0.29490000  0.31710000  1
  O  O310  1  0.68880000  0.81590000  0.29620000  1
  O  O311  1  0.69710000  0.61870000  0.37160000  1
  O  O312  1  0.70050000  0.03050000  0.61540000  1
  O  O313  1  0.75060000  0.41820000  0.56010000  1
  O  O314  1  0.75750000  0.50790000  0.18820000  1
  O  O315  1  0.76180000  0.99140000  0.34610000  1
  O  O316  1  0.77970000  0.94270000  0.22180000  1
  O  O317  1  0.78140000  0.18820000  0.34350000  1
  O  O318  1  0.80540000  0.81450000  0.96950000  1
  O  O319  1  0.81010000  0.69470000  0.33150000  1
  O  O320  1  0.81180000  0.31410000  0.15240000  1
  O  O321  1  0.82940000  0.86950000  0.37670000  1
  O  O322  1  0.83030000  0.39130000  0.26500000  1
  O  O323  1  0.83140000  0.52200000  0.91570000  1
  O  O324  1  0.83920000  0.05800000  0.17300000  1
  O  O325  1  0.83930000  0.52080000  0.30110000  1
  O  O326  1  0.84110000  0.69830000  0.21650000  1
  O  O327  1  0.85080000  0.70750000  0.59600000  1
  O  O328  1  0.85160000  0.21990000  0.22040000  1
  O  O329  1  0.93100000  0.96010000  0.26600000  1
  O  O330  1  0.93390000  0.80380000  0.18840000  1
  O  O331  1  0.96560000  0.08340000  0.29530000  1
