# generated using pymatgen
data_CaCd2H48(C3O)16
_symmetry_space_group_name_H-M   'P 1'
_cell_length_a   9.95930000
_cell_length_b   19.82270000
_cell_length_c   19.82270000
_cell_angle_alpha   90.00000000
_cell_angle_beta   90.00000000
_cell_angle_gamma   90.00000000
_symmetry_Int_Tables_number   1
_chemical_formula_structural   CaCd2H48(C3O)16
_chemical_formula_sum   'Ca2 Cd4 H96 C96 O32'
_cell_volume   3913.40171788
_cell_formula_units_Z   2
loop_
 _symmetry_equiv_pos_site_id
 _symmetry_equiv_pos_as_xyz
  1  'x, y, z'
loop_
 _atom_site_type_symbol
 _atom_site_label
 _atom_site_symmetry_multiplicity
 _atom_site_fract_x
 _atom_site_fract_y
 _atom_site_fract_z
 _atom_site_occupancy
  Ca  Ca0  1  0.00000000  0.00000000  0.50000000  1
  Ca  Ca1  1  0.00000000  0.50000000  0.00000000  1
  Cd  Cd2  1  0.00000000  0.07081000  0.65752000  1
  Cd  Cd3  1  0.00000000  0.34248000  0.07081000  1
  Cd  Cd4  1  0.00000000  0.65752000  0.92919000  1
  Cd  Cd5  1  0.00000000  0.92919000  0.34248000  1
  H  H6  1  0.00000000  0.46510000  0.59980000  1
  H  H7  1  0.00000000  0.53490000  0.40020000  1
  H  H8  1  0.00000000  0.59980000  0.53490000  1
  H  H9  1  0.07870000  0.38170000  0.39910000  1
  H  H10  1  0.07870000  0.39910000  0.61830000  1
  H  H11  1  0.07870000  0.60090000  0.38170000  1
  H  H12  1  0.07870000  0.61830000  0.60090000  1
  H  H13  1  0.12170000  0.23530000  0.49870000  1
  H  H14  1  0.12170000  0.49870000  0.76470000  1
  H  H15  1  0.12170000  0.50130000  0.23530000  1
  H  H16  1  0.12170000  0.76470000  0.50130000  1
  H  H17  1  0.12850000  0.30910000  0.52690000  1
  H  H18  1  0.12850000  0.47310000  0.30910000  1
  H  H19  1  0.12850000  0.52690000  0.69090000  1
  H  H20  1  0.12850000  0.69090000  0.47310000  1
  H  H21  1  0.20450000  0.29050000  0.46020000  1
  H  H22  1  0.20450000  0.46020000  0.70950000  1
  H  H23  1  0.20450000  0.53980000  0.29050000  1
  H  H24  1  0.20450000  0.70950000  0.53980000  1
  H  H25  1  0.29920000  0.11050000  0.46570000  1
  H  H26  1  0.29920000  0.46570000  0.88950000  1
  H  H27  1  0.29920000  0.53430000  0.11050000  1
  H  H28  1  0.29920000  0.88950000  0.53430000  1
  H  H29  1  0.30290000  0.13430000  0.36640000  1
  H  H30  1  0.30290000  0.36640000  0.86570000  1
  H  H31  1  0.30290000  0.63360000  0.13430000  1
  H  H32  1  0.30290000  0.86570000  0.63360000  1
  H  H33  1  0.38360000  0.07090000  0.34210000  1
  H  H34  1  0.38360000  0.34210000  0.92910000  1
  H  H35  1  0.38360000  0.65790000  0.07090000  1
  H  H36  1  0.38360000  0.92910000  0.65790000  1
  H  H37  1  0.38540000  0.13720000  0.29910000  1
  H  H38  1  0.38540000  0.29910000  0.86280000  1
  H  H39  1  0.38540000  0.70090000  0.13720000  1
  H  H40  1  0.38540000  0.86280000  0.70090000  1
  H  H41  1  0.42130000  0.23390000  0.40500000  1
  H  H42  1  0.42130000  0.40500000  0.76610000  1
  H  H43  1  0.42130000  0.59500000  0.23390000  1
  H  H44  1  0.42130000  0.76610000  0.59500000  1
  H  H45  1  0.50000000  0.06610000  0.63520000  1
  H  H46  1  0.50000000  0.23450000  0.33650000  1
  H  H47  1  0.50000000  0.33650000  0.76550000  1
  H  H48  1  0.50000000  0.36480000  0.06610000  1
  H  H49  1  0.50000000  0.63520000  0.93390000  1
  H  H50  1  0.50000000  0.66350000  0.23450000  1
  H  H51  1  0.50000000  0.76550000  0.66350000  1
  H  H52  1  0.50000000  0.93390000  0.36480000  1
  H  H53  1  0.57870000  0.23390000  0.40500000  1
  H  H54  1  0.57870000  0.40500000  0.76610000  1
  H  H55  1  0.57870000  0.59500000  0.23390000  1
  H  H56  1  0.57870000  0.76610000  0.59500000  1
  H  H57  1  0.61460000  0.13720000  0.29910000  1
  H  H58  1  0.61460000  0.29910000  0.86280000  1
  H  H59  1  0.61460000  0.70090000  0.13720000  1
  H  H60  1  0.61460000  0.86280000  0.70090000  1
  H  H61  1  0.61640000  0.07090000  0.34210000  1
  H  H62  1  0.61640000  0.34210000  0.92910000  1
  H  H63  1  0.61640000  0.65790000  0.07090000  1
  H  H64  1  0.61640000  0.92910000  0.65790000  1
  H  H65  1  0.69710000  0.13430000  0.36640000  1
  H  H66  1  0.69710000  0.36640000  0.86570000  1
  H  H67  1  0.69710000  0.63360000  0.13430000  1
  H  H68  1  0.69710000  0.86570000  0.63360000  1
  H  H69  1  0.70080000  0.11050000  0.46570000  1
  H  H70  1  0.70080000  0.46570000  0.88950000  1
  H  H71  1  0.70080000  0.53430000  0.11050000  1
  H  H72  1  0.70080000  0.88950000  0.53430000  1
  H  H73  1  0.79550000  0.29050000  0.46020000  1
  H  H74  1  0.79550000  0.46020000  0.70950000  1
  H  H75  1  0.79550000  0.53980000  0.29050000  1
  H  H76  1  0.79550000  0.70950000  0.53980000  1
  H  H77  1  0.87150000  0.30910000  0.52690000  1
  H  H78  1  0.87150000  0.47310000  0.30910000  1
  H  H79  1  0.87150000  0.52690000  0.69090000  1
  H  H80  1  0.87150000  0.69090000  0.47310000  1
  H  H81  1  0.87830000  0.23530000  0.49870000  1
  H  H82  1  0.87830000  0.49870000  0.76470000  1
  H  H83  1  0.87830000  0.50130000  0.23530000  1
  H  H84  1  0.87830000  0.76470000  0.50130000  1
  H  H85  1  0.92130000  0.38170000  0.39910000  1
  H  H86  1  0.92130000  0.39910000  0.61830000  1
  H  H87  1  0.92130000  0.60090000  0.38170000  1
  H  H88  1  0.92130000  0.61830000  0.60090000  1
  H  H89  1  0.00000000  0.14740000  0.22580000  1
  H  H90  1  0.00000000  0.16660000  0.42810000  1
  H  H91  1  0.00000000  0.22580000  0.85260000  1
  H  H92  1  0.00000000  0.31300000  0.66970000  1
  H  H93  1  0.00000000  0.33030000  0.31300000  1
  H  H94  1  0.00000000  0.40020000  0.46510000  1
  H  H95  1  0.00000000  0.42810000  0.83340000  1
  H  H96  1  0.00000000  0.57190000  0.16660000  1
  H  H97  1  0.00000000  0.66970000  0.68700000  1
  H  H98  1  0.00000000  0.68700000  0.33030000  1
  H  H99  1  0.00000000  0.77420000  0.14740000  1
  H  H100  1  0.00000000  0.83340000  0.57190000  1
  H  H101  1  0.00000000  0.85260000  0.77420000  1
  C  C102  1  0.00000000  0.25550000  0.38010000  1
  C  C103  1  0.00000000  0.30090000  0.44540000  1
  C  C104  1  0.00000000  0.32910000  0.85410000  1
  C  C105  1  0.00000000  0.38010000  0.74450000  1
  C  C106  1  0.00000000  0.42550000  0.62770000  1
  C  C107  1  0.00000000  0.44540000  0.69910000  1
  C  C108  1  0.00000000  0.55460000  0.30090000  1
  C  C109  1  0.00000000  0.57450000  0.37230000  1
  C  C110  1  0.00000000  0.61990000  0.25550000  1
  C  C111  1  0.00000000  0.69910000  0.55460000  1
  C  C112  1  0.00000000  0.81360000  0.61440000  1
  C  C113  1  0.00000000  0.82540000  0.73590000  1
  C  C114  1  0.00000000  0.85410000  0.67090000  1
  C  C115  1  0.12550000  0.28220000  0.48670000  1
  C  C116  1  0.12550000  0.48670000  0.71780000  1
  C  C117  1  0.12550000  0.51330000  0.28220000  1
  C  C118  1  0.12550000  0.71780000  0.51330000  1
  C  C119  1  0.24890000  0.07520000  0.58980000  1
  C  C120  1  0.24890000  0.41020000  0.07520000  1
  C  C121  1  0.24890000  0.58980000  0.92480000  1
  C  C122  1  0.24890000  0.92480000  0.41020000  1
  C  C123  1  0.37940000  0.08610000  0.55580000  1
  C  C124  1  0.37940000  0.44420000  0.08610000  1
  C  C125  1  0.37940000  0.55580000  0.91390000  1
  C  C126  1  0.37940000  0.91390000  0.44420000  1
  C  C127  1  0.38060000  0.10490000  0.48800000  1
  C  C128  1  0.38060000  0.48800000  0.89510000  1
  C  C129  1  0.38060000  0.51200000  0.10490000  1
  C  C130  1  0.38060000  0.89510000  0.51200000  1
  C  C131  1  0.38310000  0.11930000  0.34410000  1
  C  C132  1  0.38310000  0.34410000  0.88070000  1
  C  C133  1  0.38310000  0.65590000  0.11930000  1
  C  C134  1  0.38310000  0.88070000  0.65590000  1
  C  C135  1  0.50000000  0.07760000  0.58970000  1
  C  C136  1  0.50000000  0.11550000  0.45230000  1
  C  C137  1  0.50000000  0.14260000  0.38130000  1
  C  C138  1  0.50000000  0.21800000  0.38200000  1
  C  C139  1  0.50000000  0.38130000  0.85740000  1
  C  C140  1  0.50000000  0.38200000  0.78200000  1
  C  C141  1  0.50000000  0.41030000  0.07760000  1
  C  C142  1  0.50000000  0.45230000  0.88450000  1
  C  C143  1  0.50000000  0.54770000  0.11550000  1
  C  C144  1  0.50000000  0.58970000  0.92240000  1
  C  C145  1  0.50000000  0.61800000  0.21800000  1
  C  C146  1  0.50000000  0.61870000  0.14260000  1
  C  C147  1  0.50000000  0.78200000  0.61800000  1
  C  C148  1  0.50000000  0.85740000  0.61870000  1
  C  C149  1  0.50000000  0.88450000  0.54770000  1
  C  C150  1  0.50000000  0.92240000  0.41030000  1
  C  C151  1  0.61690000  0.11930000  0.34410000  1
  C  C152  1  0.61690000  0.34410000  0.88070000  1
  C  C153  1  0.61690000  0.65590000  0.11930000  1
  C  C154  1  0.61690000  0.88070000  0.65590000  1
  C  C155  1  0.61940000  0.10490000  0.48800000  1
  C  C156  1  0.61940000  0.48800000  0.89510000  1
  C  C157  1  0.61940000  0.51200000  0.10490000  1
  C  C158  1  0.61940000  0.89510000  0.51200000  1
  C  C159  1  0.62060000  0.08610000  0.55580000  1
  C  C160  1  0.62060000  0.44420000  0.08610000  1
  C  C161  1  0.62060000  0.55580000  0.91390000  1
  C  C162  1  0.62060000  0.91390000  0.44420000  1
  C  C163  1  0.75110000  0.07520000  0.58980000  1
  C  C164  1  0.75110000  0.41020000  0.07520000  1
  C  C165  1  0.75110000  0.58980000  0.92480000  1
  C  C166  1  0.75110000  0.92480000  0.41020000  1
  C  C167  1  0.87450000  0.28220000  0.48670000  1
  C  C168  1  0.87450000  0.48670000  0.71780000  1
  C  C169  1  0.87450000  0.51330000  0.28220000  1
  C  C170  1  0.87450000  0.71780000  0.51330000  1
  C  C171  1  0.00000000  0.07100000  0.33740000  1
  C  C172  1  0.00000000  0.14590000  0.32910000  1
  C  C173  1  0.00000000  0.17460000  0.26410000  1
  C  C174  1  0.00000000  0.18640000  0.38560000  1
  C  C175  1  0.00000000  0.19040000  0.72250000  1
  C  C176  1  0.00000000  0.24420000  0.25860000  1
  C  C177  1  0.00000000  0.25860000  0.75580000  1
  C  C178  1  0.00000000  0.26410000  0.82540000  1
  C  C179  1  0.00000000  0.27750000  0.19040000  1
  C  C180  1  0.00000000  0.28350000  0.31700000  1
  C  C181  1  0.00000000  0.31700000  0.71650000  1
  C  C182  1  0.00000000  0.33740000  0.92900000  1
  C  C183  1  0.00000000  0.37230000  0.42550000  1
  C  C184  1  0.00000000  0.38560000  0.81360000  1
  C  C185  1  0.00000000  0.61440000  0.18640000  1
  C  C186  1  0.00000000  0.62770000  0.57450000  1
  C  C187  1  0.00000000  0.66260000  0.07100000  1
  C  C188  1  0.00000000  0.67090000  0.14590000  1
  C  C189  1  0.00000000  0.68300000  0.28350000  1
  C  C190  1  0.00000000  0.71650000  0.68300000  1
  C  C191  1  0.00000000  0.72250000  0.80960000  1
  C  C192  1  0.00000000  0.73590000  0.17460000  1
  C  C193  1  0.00000000  0.74140000  0.24420000  1
  C  C194  1  0.00000000  0.74450000  0.61990000  1
  C  C195  1  0.00000000  0.75580000  0.74140000  1
  C  C196  1  0.00000000  0.80960000  0.27750000  1
  C  C197  1  0.00000000  0.92900000  0.66260000  1
  O  O198  1  0.00000000  0.03290000  0.28690000  1
  O  O199  1  0.00000000  0.04810000  0.39590000  1
  O  O200  1  0.00000000  0.28690000  0.96710000  1
  O  O201  1  0.00000000  0.60410000  0.04810000  1
  O  O202  1  0.14400000  0.07370000  0.55370000  1
  O  O203  1  0.14400000  0.44630000  0.07370000  1
  O  O204  1  0.14400000  0.55370000  0.92630000  1
  O  O205  1  0.14400000  0.92630000  0.44630000  1
  O  O206  1  0.24190000  0.06990000  0.65260000  1
  O  O207  1  0.24190000  0.34740000  0.06990000  1
  O  O208  1  0.24190000  0.65260000  0.93010000  1
  O  O209  1  0.24190000  0.93010000  0.34740000  1
  O  O210  1  0.75810000  0.06990000  0.65260000  1
  O  O211  1  0.75810000  0.34740000  0.06990000  1
  O  O212  1  0.75810000  0.65260000  0.93010000  1
  O  O213  1  0.75810000  0.93010000  0.34740000  1
  O  O214  1  0.85600000  0.07370000  0.55370000  1
  O  O215  1  0.85600000  0.44630000  0.07370000  1
  O  O216  1  0.85600000  0.55370000  0.92630000  1
  O  O217  1  0.85600000  0.92630000  0.44630000  1
  O  O218  1  0.00000000  0.13870000  0.75810000  1
  O  O219  1  0.00000000  0.18740000  0.66020000  1
  O  O220  1  0.00000000  0.24190000  0.13870000  1
  O  O221  1  0.00000000  0.33980000  0.18740000  1
  O  O222  1  0.00000000  0.39590000  0.95190000  1
  O  O223  1  0.00000000  0.66020000  0.81260000  1
  O  O224  1  0.00000000  0.71310000  0.03290000  1
  O  O225  1  0.00000000  0.75810000  0.86130000  1
  O  O226  1  0.00000000  0.81260000  0.33980000  1
  O  O227  1  0.00000000  0.86130000  0.24190000  1
  O  O228  1  0.00000000  0.95190000  0.60410000  1
  O  O229  1  0.00000000  0.96710000  0.71310000  1
