# generated using pymatgen
data_Ni3H33C54N3O13
_symmetry_space_group_name_H-M   'P 1'
_cell_length_a   24.66636865
_cell_length_b   24.66610000
_cell_length_c   24.66610000
_cell_angle_alpha   109.47100000
_cell_angle_beta   109.47144127
_cell_angle_gamma   109.47144127
_symmetry_Int_Tables_number   1
_chemical_formula_structural   Ni3H33C54N3O13
_chemical_formula_sum   'Ni12 H132 C216 N12 O52'
_cell_volume   11552.69001628
_cell_formula_units_Z   4
loop_
 _symmetry_equiv_pos_site_id
 _symmetry_equiv_pos_as_xyz
  1  'x, y, z'
loop_
 _atom_site_type_symbol
 _atom_site_label
 _atom_site_symmetry_multiplicity
 _atom_site_fract_x
 _atom_site_fract_y
 _atom_site_fract_z
 _atom_site_occupancy
  Ni  Ni0  1  0.67328000  0.59318000  0.68275000  1
  Ni  Ni1  1  0.59318000  0.68275000  0.67328000  1
  Ni  Ni2  1  0.91990000  0.32672000  0.00947000  1
  Ni  Ni3  1  0.00947000  0.91990000  0.32672000  1
  Ni  Ni4  1  0.08010000  0.08957000  0.40682000  1
  Ni  Ni5  1  0.91043000  0.99053000  0.31725000  1
  Ni  Ni6  1  0.32672000  0.00947000  0.91990000  1
  Ni  Ni7  1  0.31725000  0.91043000  0.99053000  1
  Ni  Ni8  1  0.40682000  0.08010000  0.08957000  1
  Ni  Ni9  1  0.68275000  0.67328000  0.59318000  1
  Ni  Ni10  1  0.99053000  0.31725000  0.91043000  1
  Ni  Ni11  1  0.08957000  0.40682000  0.08010000  1
  H  H12  1  0.28710000  0.13100000  0.29390000  1
  H  H13  1  0.34050000  0.62030000  0.40680000  1
  H  H14  1  0.10520000  0.59470000  0.17210000  1
  H  H15  1  0.43650000  0.66380000  0.50770000  1
  H  H16  1  0.68690000  0.89590000  0.76700000  1
  H  H17  1  0.24530000  0.54440000  0.32590000  1
  H  H18  1  0.14560000  0.48630000  0.22670000  1
  H  H19  1  0.12010000  0.34490000  0.22220000  1
  H  H20  1  0.12890000  0.91990000  0.23300000  1
  H  H21  1  0.82790000  0.42260000  0.93310000  1
  H  H22  1  0.77180000  0.46680000  0.88040000  1
  H  H23  1  0.66300000  0.53730000  0.77630000  1
  H  H24  1  0.70290000  0.48190000  0.81980000  1
  H  H25  1  0.10860000  0.69500000  0.22820000  1
  H  H26  1  0.77780000  0.12270000  0.89790000  1
  H  H27  1  0.22220000  0.12010000  0.34490000  1
  H  H28  1  0.53730000  0.77630000  0.66300000  1
  H  H29  1  0.76700000  0.68690000  0.89590000  1
  H  H30  1  0.71290000  0.00680000  0.84390000  1
  H  H31  1  0.77330000  0.25960000  0.91890000  1
  H  H32  1  0.13100000  0.29390000  0.28710000  1
  H  H33  1  0.50770000  0.43650000  0.66380000  1
  H  H34  1  0.84390000  0.71290000  0.00680000  1
  H  H35  1  0.40530000  0.51050000  0.57740000  1
  H  H36  1  0.11690000  0.77900000  0.29710000  1
  H  H37  1  0.91990000  0.23300000  0.12890000  1
  H  H38  1  0.40680000  0.34050000  0.62030000  1
  H  H39  1  0.32590000  0.24530000  0.54440000  1
  H  H40  1  0.48190000  0.81980000  0.70290000  1
  H  H41  1  0.65510000  0.77520000  0.87730000  1
  H  H42  1  0.11330000  0.87430000  0.33700000  1
  H  H43  1  0.89790000  0.77780000  0.12270000  1
  H  H44  1  0.51370000  0.65930000  0.74040000  1
  H  H45  1  0.92880000  0.49230000  0.15610000  1
  H  H46  1  0.30500000  0.41360000  0.53320000  1
  H  H47  1  0.08010000  0.20900000  0.31310000  1
  H  H48  1  0.87430000  0.33700000  0.11330000  1
  H  H49  1  0.67410000  0.21850000  0.91940000  1
  H  H50  1  0.22670000  0.14560000  0.48630000  1
  H  H51  1  0.93370000  0.59320000  0.21350000  1
  H  H52  1  0.70610000  0.83710000  0.99320000  1
  H  H53  1  0.86900000  0.15610000  0.16290000  1
  H  H54  1  0.22100000  0.33790000  0.51810000  1
  H  H55  1  0.91940000  0.67410000  0.21850000  1
  H  H56  1  0.46680000  0.88040000  0.77180000  1
  H  H57  1  0.79100000  0.87110000  0.10410000  1
  H  H58  1  0.45560000  0.70090000  0.78150000  1
  H  H59  1  0.15610000  0.92880000  0.49230000  1
  H  H60  1  0.12570000  0.23900000  0.46270000  1
  H  H61  1  0.77900000  0.29710000  0.11690000  1
  H  H62  1  0.59320000  0.21350000  0.93370000  1
  H  H63  1  0.91890000  0.77330000  0.25960000  1
  H  H64  1  0.87990000  0.10210000  0.22480000  1
  H  H65  1  0.21350000  0.93370000  0.59320000  1
  H  H66  1  0.42260000  0.93310000  0.82790000  1
  H  H67  1  0.37970000  0.72020000  0.78650000  1
  H  H68  1  0.69500000  0.22820000  0.10860000  1
  H  H69  1  0.17210000  0.10520000  0.59470000  1
  H  H70  1  0.49230000  0.15610000  0.92880000  1
  H  H71  1  0.21850000  0.91940000  0.67410000  1
  H  H72  1  0.76100000  0.88670000  0.22370000  1
  H  H73  1  0.22820000  0.10860000  0.69500000  1
  H  H74  1  0.29710000  0.11690000  0.77900000  1
  H  H75  1  0.85440000  0.08110000  0.34070000  1
  H  H76  1  0.93310000  0.82790000  0.42260000  1
  H  H77  1  0.07120000  0.22730000  0.56350000  1
  H  H78  1  0.33620000  0.77270000  0.84390000  1
  H  H79  1  0.59470000  0.17210000  0.10520000  1
  H  H80  1  0.25960000  0.91890000  0.77330000  1
  H  H81  1  0.66210000  0.88310000  0.18020000  1
  H  H82  1  0.58640000  0.89140000  0.11960000  1
  H  H83  1  0.33700000  0.11330000  0.87430000  1
  H  H84  1  0.75470000  0.08060000  0.29910000  1
  H  H85  1  0.77270000  0.84390000  0.33620000  1
  H  H86  1  0.48950000  0.89480000  0.06690000  1
  H  H87  1  0.88040000  0.77180000  0.46680000  1
  H  H88  1  0.06630000  0.27980000  0.65950000  1
  H  H89  1  0.89480000  0.06690000  0.48950000  1
  H  H90  1  0.65950000  0.06630000  0.27980000  1
  H  H91  1  0.12270000  0.89790000  0.77780000  1
  H  H92  1  0.48630000  0.22670000  0.14560000  1
  H  H93  1  0.72020000  0.78650000  0.37970000  1
  H  H94  1  0.81980000  0.70290000  0.48190000  1
  H  H95  1  0.22370000  0.76100000  0.88670000  1
  H  H96  1  0.56350000  0.07120000  0.22730000  1
  H  H97  1  0.08060000  0.29910000  0.75470000  1
  H  H98  1  0.23300000  0.12890000  0.91990000  1
  H  H99  1  0.89140000  0.11960000  0.58640000  1
  H  H100  1  0.54440000  0.32590000  0.24530000  1
  H  H101  1  0.18020000  0.66210000  0.88310000  1
  H  H102  1  0.00680000  0.84390000  0.71290000  1
  H  H103  1  0.15610000  0.16290000  0.86900000  1
  H  H104  1  0.62030000  0.40680000  0.34050000  1
  H  H105  1  0.34070000  0.85440000  0.08110000  1
  H  H106  1  0.70090000  0.78150000  0.45560000  1
  H  H107  1  0.77630000  0.66300000  0.53730000  1
  H  H108  1  0.10410000  0.79100000  0.87110000  1
  H  H109  1  0.11960000  0.58640000  0.89140000  1
  H  H110  1  0.66380000  0.50770000  0.43650000  1
  H  H111  1  0.08110000  0.34070000  0.85440000  1
  H  H112  1  0.34490000  0.22220000  0.12010000  1
  H  H113  1  0.46270000  0.12570000  0.23900000  1
  H  H114  1  0.10210000  0.22480000  0.87990000  1
  H  H115  1  0.88310000  0.18020000  0.66210000  1
  H  H116  1  0.29910000  0.75470000  0.08060000  1
  H  H117  1  0.27980000  0.65950000  0.06630000  1
  H  H118  1  0.89590000  0.76700000  0.68690000  1
  H  H119  1  0.51810000  0.22100000  0.33790000  1
  H  H120  1  0.06690000  0.48950000  0.89480000  1
  H  H121  1  0.29390000  0.28710000  0.13100000  1
  H  H122  1  0.22730000  0.56350000  0.07120000  1
  H  H123  1  0.99320000  0.70610000  0.83710000  1
  H  H124  1  0.65930000  0.74040000  0.51370000  1
  H  H125  1  0.83710000  0.99320000  0.70610000  1
  H  H126  1  0.20900000  0.31310000  0.08010000  1
  H  H127  1  0.88670000  0.22370000  0.76100000  1
  H  H128  1  0.22480000  0.87990000  0.10210000  1
  H  H129  1  0.77520000  0.87730000  0.65510000  1
  H  H130  1  0.53320000  0.30500000  0.41360000  1
  H  H131  1  0.33790000  0.51810000  0.22100000  1
  H  H132  1  0.23900000  0.46270000  0.12570000  1
  H  H133  1  0.41360000  0.53320000  0.30500000  1
  H  H134  1  0.51050000  0.57740000  0.40530000  1
  H  H135  1  0.31310000  0.08010000  0.20900000  1
  H  H136  1  0.87730000  0.65510000  0.77520000  1
  H  H137  1  0.74040000  0.51370000  0.65930000  1
  H  H138  1  0.78150000  0.45560000  0.70090000  1
  H  H139  1  0.87110000  0.10410000  0.79100000  1
  H  H140  1  0.84390000  0.33620000  0.77270000  1
  H  H141  1  0.57740000  0.40530000  0.51050000  1
  H  H142  1  0.78650000  0.37970000  0.72020000  1
  H  H143  1  0.16290000  0.86900000  0.15610000  1
  C  C144  1  0.88011000  0.19869000  0.89090000  1
  C  C145  1  0.88205000  0.35223000  0.89504000  1
  C  C146  1  0.19894000  0.96810000  0.21318000  1
  C  C147  1  0.84187000  0.37548000  0.85799000  1
  C  C148  1  0.83328000  0.12430000  0.85144000  1
  C  C149  1  0.74612000  0.46272000  0.76576000  1
  C  C150  1  0.77462000  0.42719000  0.79477000  1
  C  C151  1  0.25431000  0.08816000  0.28063000  1
  C  C152  1  0.37483000  0.61102000  0.40625000  1
  C  C153  1  0.75492000  0.98576000  0.78682000  1
  C  C154  1  0.43235000  0.63729000  0.46684000  1
  C  C155  1  0.71826000  0.91575000  0.75563000  1
  C  C156  1  0.24437000  0.52731000  0.28474000  1
  C  C157  1  0.18524000  0.49236000  0.22564000  1
  C  C158  1  0.82002000  0.41404000  0.88986000  1
  C  C159  1  0.78642000  0.44029000  0.85851000  1
  C  C160  1  0.68840000  0.52150000  0.76122000  1
  C  C161  1  0.71132000  0.48791000  0.78671000  1
  C  C162  1  0.78440000  0.09528000  0.86608000  1
  C  C163  1  0.16012000  0.96263000  0.24437000  1
  C  C164  1  0.74569000  0.02632000  0.83385000  1
  C  C165  1  0.21560000  0.08168000  0.31088000  1
  C  C166  1  0.01299000  0.47018000  0.11795000  1
  C  C167  1  0.01079000  0.31858000  0.11989000  1
  C  C168  1  0.06984000  0.59402000  0.17998000  1
  C  C169  1  0.52982000  0.54281000  0.64777000  1
  C  C170  1  0.68142000  0.69221000  0.80131000  1
  C  C171  1  0.16672000  0.01816000  0.29102000  1
  C  C172  1  0.08168000  0.31088000  0.21560000  1
  C  C173  1  0.07209000  0.65387000  0.21358000  1
  C  C174  1  0.01612000  0.53361000  0.15813000  1
  C  C175  1  0.01816000  0.29102000  0.16672000  1
  C  C176  1  0.46639000  0.48251000  0.62452000  1
  C  C177  1  0.75563000  0.71826000  0.91575000  1
  C  C178  1  0.08816000  0.28063000  0.25431000  1
  C  C179  1  0.70898000  0.72714000  0.87570000  1
  C  C180  1  0.52150000  0.76122000  0.68840000  1
  C  C181  1  0.46684000  0.43235000  0.63729000  1
  C  C182  1  0.40598000  0.47582000  0.58596000  1
  C  C183  1  0.77436000  0.26672000  0.95960000  1
  C  C184  1  0.83385000  0.74569000  0.02632000  1
  C  C185  1  0.96263000  0.24437000  0.16012000  1
  C  C186  1  0.11989000  0.01079000  0.31858000  1
  C  C187  1  0.78682000  0.75492000  0.98576000  1
  C  C188  1  0.40625000  0.37483000  0.61102000  1
  C  C189  1  0.96551000  0.53316000  0.17045000  1
  C  C190  1  0.02015000  0.65257000  0.22538000  1
  C  C191  1  0.03190000  0.23084000  0.24508000  1
  C  C192  1  0.07539000  0.77659000  0.28868000  1
  C  C193  1  0.34613000  0.41822000  0.55971000  1
  C  C194  1  0.68912000  0.77080000  0.90472000  1
  C  C195  1  0.48791000  0.78671000  0.71132000  1
  C  C196  1  0.34743000  0.36758000  0.57281000  1
  C  C197  1  0.50764000  0.69288000  0.73328000  1
  C  C198  1  0.86608000  0.78440000  0.09528000  1
  C  C199  1  0.96810000  0.21318000  0.19894000  1
  C  C200  1  0.01964000  0.71660000  0.25388000  1
  C  C201  1  0.96858000  0.59375000  0.20477000  1
  C  C202  1  0.07282000  0.83310000  0.31160000  1
  C  C203  1  0.83310000  0.31160000  0.07282000  1
  C  C204  1  0.28474000  0.24437000  0.52731000  1
  C  C205  1  0.03737000  0.19749000  0.28174000  1
  C  C206  1  0.71526000  0.24257000  0.95963000  1
  C  C207  1  0.76916000  0.80106000  0.01424000  1
  C  C208  1  0.28340000  0.30304000  0.53728000  1
  C  C209  1  0.71937000  0.80753000  0.97368000  1
  C  C210  1  0.22564000  0.18524000  0.49236000  1
  C  C211  1  0.85144000  0.83328000  0.12430000  1
  C  C212  1  0.91184000  0.16615000  0.19247000  1
  C  C213  1  0.80251000  0.83988000  0.08425000  1
  C  C214  1  0.95963000  0.71526000  0.24257000  1
  C  C215  1  0.46272000  0.76576000  0.74612000  1
  C  C216  1  0.47269000  0.71706000  0.75743000  1
  C  C217  1  0.22341000  0.29880000  0.51209000  1
  C  C218  1  0.98184000  0.14856000  0.27286000  1
  C  C219  1  0.77659000  0.28868000  0.07539000  1
  C  C220  1  0.71660000  0.25388000  0.01964000  1
  C  C221  1  0.95960000  0.77436000  0.26672000  1
  C  C222  1  0.89090000  0.88011000  0.19869000  1
  C  C223  1  0.91832000  0.13392000  0.22920000  1
  C  C224  1  0.16690000  0.23972000  0.47850000  1
  C  C225  1  0.98921000  0.10910000  0.30779000  1
  C  C226  1  0.44029000  0.85851000  0.78642000  1
  C  C227  1  0.42719000  0.79477000  0.77462000  1
  C  C228  1  0.11795000  0.01299000  0.47018000  1
  C  C229  1  0.17045000  0.96551000  0.53316000  1
  C  C230  1  0.65257000  0.22538000  0.02015000  1
  C  C231  1  0.59375000  0.20477000  0.96858000  1
  C  C232  1  0.15813000  0.01612000  0.53361000  1
  C  C233  1  0.20477000  0.96858000  0.59375000  1
  C  C234  1  0.41404000  0.88986000  0.82002000  1
  C  C235  1  0.38898000  0.76381000  0.79523000  1
  C  C236  1  0.17998000  0.06984000  0.59402000  1
  C  C237  1  0.65387000  0.21358000  0.07209000  1
  C  C238  1  0.22538000  0.02015000  0.65257000  1
  C  C239  1  0.53316000  0.17045000  0.96551000  1
  C  C240  1  0.21358000  0.07209000  0.65387000  1
  C  C241  1  0.89504000  0.88205000  0.35223000  1
  C  C242  1  0.25388000  0.01964000  0.71660000  1
  C  C243  1  0.37548000  0.85799000  0.84187000  1
  C  C244  1  0.36271000  0.79506000  0.82955000  1
  C  C245  1  0.98701000  0.10496000  0.45719000  1
  C  C246  1  0.24257000  0.95963000  0.71526000  1
  C  C247  1  0.59402000  0.17998000  0.06984000  1
  C  C248  1  0.76028000  0.92718000  0.23878000  1
  C  C249  1  0.53361000  0.15813000  0.01612000  1
  C  C250  1  0.28868000  0.07539000  0.77659000  1
  C  C251  1  0.81476000  0.04040000  0.30712000  1
  C  C252  1  0.26672000  0.95960000  0.77436000  1
  C  C253  1  0.70120000  0.92461000  0.21329000  1
  C  C254  1  0.85799000  0.84187000  0.37548000  1
  C  C255  1  0.31160000  0.07282000  0.83310000  1
  C  C256  1  0.88986000  0.82002000  0.41404000  1
  C  C257  1  0.75563000  0.04037000  0.28294000  1
  C  C258  1  0.35223000  0.89504000  0.88205000  1
  C  C259  1  0.03449000  0.20494000  0.56765000  1
  C  C260  1  0.98388000  0.14201000  0.51749000  1
  C  C261  1  0.69696000  0.98036000  0.23424000  1
  C  C262  1  0.47018000  0.11795000  0.01299000  1
  C  C263  1  0.58178000  0.92791000  0.14149000  1
  C  C264  1  0.79506000  0.82955000  0.36271000  1
  C  C265  1  0.63242000  0.97985000  0.20523000  1
  C  C266  1  0.85851000  0.78642000  0.44029000  1
  C  C267  1  0.52418000  0.93016000  0.11014000  1
  C  C268  1  0.03142000  0.23619000  0.62517000  1
  C  C269  1  0.93016000  0.11014000  0.52418000  1
  C  C270  1  0.62517000  0.03142000  0.23619000  1
  C  C271  1  0.51749000  0.98388000  0.14201000  1
  C  C272  1  0.76381000  0.79523000  0.38898000  1
  C  C273  1  0.79477000  0.77462000  0.42719000  1
  C  C274  1  0.56765000  0.03449000  0.20494000  1
  C  C275  1  0.45719000  0.98701000  0.10496000  1
  C  C276  1  0.97985000  0.20523000  0.63242000  1
  C  C277  1  0.92791000  0.14149000  0.58178000  1
  C  C278  1  0.19869000  0.89090000  0.88011000  1
  C  C279  1  0.23878000  0.76028000  0.92718000  1
  C  C280  1  0.09528000  0.86608000  0.78440000  1
  C  C281  1  0.31858000  0.11989000  0.01079000  1
  C  C282  1  0.49236000  0.22564000  0.18524000  1
  C  C283  1  0.76576000  0.74612000  0.46272000  1
  C  C284  1  0.78671000  0.71132000  0.48791000  1
  C  C285  1  0.12430000  0.85144000  0.83328000  1
  C  C286  1  0.21329000  0.70120000  0.92461000  1
  C  C287  1  0.04037000  0.28294000  0.75563000  1
  C  C288  1  0.98036000  0.23424000  0.69696000  1
  C  C289  1  0.52731000  0.28474000  0.24437000  1
  C  C290  1  0.24437000  0.16012000  0.96263000  1
  C  C291  1  0.02632000  0.83385000  0.74569000  1
  C  C292  1  0.29102000  0.16672000  0.01816000  1
  C  C293  1  0.30712000  0.81476000  0.04040000  1
  C  C294  1  0.16615000  0.19247000  0.91184000  1
  C  C295  1  0.23424000  0.69696000  0.98036000  1
  C  C296  1  0.21318000  0.19894000  0.96810000  1
  C  C297  1  0.71706000  0.75743000  0.47269000  1
  C  C298  1  0.08425000  0.80251000  0.83988000  1
  C  C299  1  0.28294000  0.75563000  0.04037000  1
  C  C300  1  0.76122000  0.68840000  0.52150000  1
  C  C301  1  0.47850000  0.16690000  0.23972000  1
  C  C302  1  0.61102000  0.40625000  0.37483000  1
  C  C303  1  0.53728000  0.28340000  0.30304000  1
  C  C304  1  0.98576000  0.78682000  0.75492000  1
  C  C305  1  0.31088000  0.21560000  0.08168000  1
  C  C306  1  0.04040000  0.30712000  0.81476000  1
  C  C307  1  0.20523000  0.63242000  0.97985000  1
  C  C308  1  0.92461000  0.21329000  0.70120000  1
  C  C309  1  0.13392000  0.22920000  0.91832000  1
  C  C310  1  0.14149000  0.58178000  0.92791000  1
  C  C311  1  0.51209000  0.22341000  0.29880000  1
  C  C312  1  0.01424000  0.76916000  0.80106000  1
  C  C313  1  0.57281000  0.34743000  0.36758000  1
  C  C314  1  0.63729000  0.46684000  0.43235000  1
  C  C315  1  0.23619000  0.62517000  0.03142000  1
  C  C316  1  0.23084000  0.24508000  0.03190000  1
  C  C317  1  0.30779000  0.98921000  0.10910000  1
  C  C318  1  0.91575000  0.75563000  0.71826000  1
  C  C319  1  0.28063000  0.25431000  0.08816000  1
  C  C320  1  0.69288000  0.73328000  0.50764000  1
  C  C321  1  0.11014000  0.52418000  0.93016000  1
  C  C322  1  0.20494000  0.56765000  0.03449000  1
  C  C323  1  0.92718000  0.23878000  0.76028000  1
  C  C324  1  0.14856000  0.27286000  0.98184000  1
  C  C325  1  0.97368000  0.71937000  0.80753000  1
  C  C326  1  0.19749000  0.28174000  0.03737000  1
  C  C327  1  0.14201000  0.51749000  0.98388000  1
  C  C328  1  0.87570000  0.70898000  0.72714000  1
  C  C329  1  0.62452000  0.46639000  0.48251000  1
  C  C330  1  0.55971000  0.34613000  0.41822000  1
  C  C331  1  0.90472000  0.68912000  0.77080000  1
  C  C332  1  0.27286000  0.98184000  0.14856000  1
  C  C333  1  0.10910000  0.30779000  0.98921000  1
  C  C334  1  0.10496000  0.45719000  0.98701000  1
  C  C335  1  0.58596000  0.40598000  0.47582000  1
  C  C336  1  0.80131000  0.68142000  0.69221000  1
  C  C337  1  0.64777000  0.52982000  0.54281000  1
  C  C338  1  0.22920000  0.91832000  0.13392000  1
  C  C339  1  0.80753000  0.97368000  0.71937000  1
  C  C340  1  0.28174000  0.03737000  0.19749000  1
  C  C341  1  0.77080000  0.90472000  0.68912000  1
  C  C342  1  0.29880000  0.51209000  0.22341000  1
  C  C343  1  0.23972000  0.47850000  0.16690000  1
  C  C344  1  0.41822000  0.55971000  0.34613000  1
  C  C345  1  0.47582000  0.58596000  0.40598000  1
  C  C346  1  0.73328000  0.50764000  0.69288000  1
  C  C347  1  0.75743000  0.47269000  0.71706000  1
  C  C348  1  0.83988000  0.08425000  0.80251000  1
  C  C349  1  0.82955000  0.36271000  0.79506000  1
  C  C350  1  0.80106000  0.01424000  0.76916000  1
  C  C351  1  0.79523000  0.38898000  0.76381000  1
  C  C352  1  0.19247000  0.91184000  0.16615000  1
  C  C353  1  0.36758000  0.57281000  0.34743000  1
  C  C354  1  0.30304000  0.53728000  0.28340000  1
  C  C355  1  0.72714000  0.87570000  0.70898000  1
  C  C356  1  0.48251000  0.62452000  0.46639000  1
  C  C357  1  0.24508000  0.03190000  0.23084000  1
  C  C358  1  0.54281000  0.64777000  0.52982000  1
  C  C359  1  0.69221000  0.80131000  0.68142000  1
  N  N360  1  0.69947000  0.53370000  0.71587000  1
  N  N361  1  0.53370000  0.71587000  0.69947000  1
  N  N362  1  0.83423000  0.30053000  0.01640000  1
  N  N363  1  0.01640000  0.83423000  0.30053000  1
  N  N364  1  0.16577000  0.18217000  0.46630000  1
  N  N365  1  0.81783000  0.98360000  0.28413000  1
  N  N366  1  0.30053000  0.01640000  0.83423000  1
  N  N367  1  0.28413000  0.81783000  0.98360000  1
  N  N368  1  0.46630000  0.16577000  0.18217000  1
  N  N369  1  0.71587000  0.69947000  0.53370000  1
  N  N370  1  0.98360000  0.28413000  0.81783000  1
  N  N371  1  0.18217000  0.46630000  0.16577000  1
  O  O372  1  0.65122000  0.65122000  0.65122000  1
  O  O373  1  0.00000000  0.34878000  0.00000000  1
  O  O374  1  0.54041000  0.66937000  0.58062000  1
  O  O375  1  0.65808000  0.77945000  0.70427000  1
  O  O376  1  0.06522000  0.47630000  0.11768000  1
  O  O377  1  0.86974000  0.22979000  0.93295000  1
  O  O378  1  0.88232000  0.35862000  0.94754000  1
  O  O379  1  0.06321000  0.36005000  0.13026000  1
  O  O380  1  0.70427000  0.65808000  0.77945000  1
  O  O381  1  0.58062000  0.54041000  0.66937000  1
  O  O382  1  0.52370000  0.58892000  0.64138000  1
  O  O383  1  0.95381000  0.29573000  0.07518000  1
  O  O384  1  0.95979000  0.41938000  0.08875000  1
  O  O385  1  0.63995000  0.70316000  0.77021000  1
  O  O386  1  0.07518000  0.95381000  0.29573000  1
  O  O387  1  0.13026000  0.06321000  0.36005000  1
  O  O388  1  0.04619000  0.12137000  0.34192000  1
  O  O389  1  0.93295000  0.86974000  0.22979000  1
  O  O390  1  0.08875000  0.95979000  0.41938000  1
  O  O391  1  0.87863000  0.92482000  0.22055000  1
  O  O392  1  1.00000000  1.00000000  0.34878000  1
  O  O393  1  0.11768000  0.06522000  0.47630000  1
  O  O394  1  0.93679000  0.06705000  0.29684000  1
  O  O395  1  0.94754000  0.88232000  0.35862000  1
  O  O396  1  0.04021000  0.12896000  0.45959000  1
  O  O397  1  0.87104000  0.91125000  0.33063000  1
  O  O398  1  0.93478000  0.05246000  0.41108000  1
  O  O399  1  0.35862000  0.94754000  0.88232000  1
  O  O400  1  0.41938000  0.08875000  0.95979000  1
  O  O401  1  0.33063000  0.87104000  0.91125000  1
  O  O402  1  0.47630000  0.11768000  0.06522000  1
  O  O403  1  0.22979000  0.93295000  0.86974000  1
  O  O404  1  0.41108000  0.93478000  0.05246000  1
  O  O405  1  0.34878000  0.00000000  0.00000000  1
  O  O406  1  0.29573000  0.07518000  0.95381000  1
  O  O407  1  0.45959000  0.04021000  0.12896000  1
  O  O408  1  0.36005000  0.13026000  0.06321000  1
  O  O409  1  0.22055000  0.87863000  0.92482000  1
  O  O410  1  0.29684000  0.93679000  0.06705000  1
  O  O411  1  0.34192000  0.04619000  0.12137000  1
  O  O412  1  0.06705000  0.29684000  0.93679000  1
  O  O413  1  0.66937000  0.58062000  0.54041000  1
  O  O414  1  0.77945000  0.70427000  0.65808000  1
  O  O415  1  0.05246000  0.41108000  0.93478000  1
  O  O416  1  0.12896000  0.45959000  0.04021000  1
  O  O417  1  0.12137000  0.34192000  0.04619000  1
  O  O418  1  0.77021000  0.63995000  0.70316000  1
  O  O419  1  0.58892000  0.64138000  0.52370000  1
  O  O420  1  0.70316000  0.77021000  0.63995000  1
  O  O421  1  0.64138000  0.52370000  0.58892000  1
  O  O422  1  0.92482000  0.22055000  0.87863000  1
  O  O423  1  0.91125000  0.33063000  0.87104000  1
