# generated using pymatgen
data_Na2Mn2Zn3Mo12P8H16C12(NO8)8
_symmetry_space_group_name_H-M   'P 1'
_cell_length_a   14.57200105
_cell_length_b   17.04970000
_cell_length_c   22.03430306
_cell_angle_alpha   78.03285706
_cell_angle_beta   70.69078042
_cell_angle_gamma   64.70120000
_symmetry_Int_Tables_number   1
_chemical_formula_structural   Na2Mn2Zn3Mo12P8H16C12(NO8)8
_chemical_formula_sum   'Na4 Mn4 Zn6 Mo24 P16 H32 C24 N16 O128'
_cell_volume   4656.91843192
_cell_formula_units_Z   2
loop_
 _symmetry_equiv_pos_site_id
 _symmetry_equiv_pos_as_xyz
  1  'x, y, z'
loop_
 _atom_site_type_symbol
 _atom_site_label
 _atom_site_symmetry_multiplicity
 _atom_site_fract_x
 _atom_site_fract_y
 _atom_site_fract_z
 _atom_site_occupancy
  Na  Na0  1  0.27457000  0.14165000  0.79401000  1
  Na  Na1  1  0.21023000  0.35835000  0.70599000  1
  Na  Na2  1  0.78977000  0.64165000  0.29401000  1
  Na  Na3  1  0.72543000  0.85835000  0.20599000  1
  Mn  Mn4  1  0.50000000  0.00000000  0.50000000  1
  Mn  Mn5  1  0.41752000  0.25000000  0.75000000  1
  Mn  Mn6  1  0.00000000  0.50000000  0.00000000  1
  Mn  Mn7  1  0.58248000  0.75000000  0.25000000  1
  Zn  Zn8  1  0.14334000  0.75000000  0.25000000  1
  Zn  Zn9  1  0.52252000  0.50915000  0.40729000  1
  Zn  Zn10  1  0.56104000  0.00915000  0.90729000  1
  Zn  Zn11  1  0.43896000  0.99085000  0.09271000  1
  Zn  Zn12  1  0.47748000  0.49085000  0.59271000  1
  Zn  Zn13  1  0.85666000  0.25000000  0.75000000  1
  Mo  Mo14  1  0.74899000  0.78812000  0.48212000  1
  Mo  Mo15  1  0.74723000  0.95125000  0.35531000  1
  Mo  Mo16  1  0.42027000  0.96189000  0.68489000  1
  Mo  Mo17  1  0.41622000  0.24908000  0.46514000  1
  Mo  Mo18  1  0.98077000  0.28812000  0.98212000  1
  Mo  Mo19  1  0.94621000  0.45125000  0.85531000  1
  Mo  Mo20  1  0.64595000  0.01030000  0.61144000  1
  Mo  Mo21  1  0.64398000  0.13266000  0.51822000  1
  Mo  Mo22  1  0.73231000  0.51030000  0.11144000  1
  Mo  Mo23  1  0.70514000  0.63266000  0.01822000  1
  Mo  Mo24  1  0.13044000  0.25092000  0.03486000  1
  Mo  Mo25  1  0.06705000  0.53811000  0.81511000  1
  Mo  Mo26  1  0.93295000  0.46189000  0.18489000  1
  Mo  Mo27  1  0.86956000  0.74908000  0.96514000  1
  Mo  Mo28  1  0.29486000  0.36734000  0.98178000  1
  Mo  Mo29  1  0.26769000  0.48970000  0.88856000  1
  Mo  Mo30  1  0.35602000  0.86734000  0.48178000  1
  Mo  Mo31  1  0.35405000  0.98970000  0.38856000  1
  Mo  Mo32  1  0.05379000  0.54875000  0.14469000  1
  Mo  Mo33  1  0.01923000  0.71188000  0.01788000  1
  Mo  Mo34  1  0.58378000  0.75092000  0.53486000  1
  Mo  Mo35  1  0.57973000  0.03811000  0.31511000  1
  Mo  Mo36  1  0.25277000  0.04875000  0.64469000  1
  Mo  Mo37  1  0.25101000  0.21188000  0.51788000  1
  P  P38  1  0.93071000  0.75007000  0.34231000  1
  P  P39  1  0.97691000  0.25007000  0.84231000  1
  P  P40  1  0.39679000  0.16989000  0.62555000  1
  P  P41  1  0.53087000  0.01779000  0.76889000  1
  P  P42  1  0.53709000  0.34907000  0.50625000  1
  P  P43  1  0.19223000  0.33011000  0.87445000  1
  P  P44  1  0.60759000  0.84907000  0.00625000  1
  P  P45  1  0.68245000  0.51779000  0.26889000  1
  P  P46  1  0.31755000  0.48221000  0.73111000  1
  P  P47  1  0.39241000  0.15093000  0.99375000  1
  P  P48  1  0.80777000  0.66989000  0.12555000  1
  P  P49  1  0.46291000  0.65093000  0.49375000  1
  P  P50  1  0.46913000  0.98221000  0.23111000  1
  P  P51  1  0.60321000  0.83011000  0.37445000  1
  P  P52  1  0.02309000  0.74993000  0.15769000  1
  P  P53  1  0.06929000  0.24993000  0.65769000  1
  H  H54  1  0.24250000  0.56640000  0.19620000  1
  H  H55  1  0.43250000  0.46540000  0.17920000  1
  H  H56  1  0.20800000  0.51070000  0.37430000  1
  H  H57  1  0.20270000  0.84230000  0.09770000  1
  H  H58  1  0.40050000  0.43560000  0.35180000  1
  H  H59  1  0.14270000  0.65770000  0.40230000  1
  H  H60  1  0.09300000  0.98930000  0.12570000  1
  H  H61  1  0.00510000  0.93360000  0.30380000  1
  H  H62  1  0.51200000  0.54340000  0.21480000  1
  H  H63  1  0.38650000  0.83790000  0.07690000  1
  H  H64  1  0.37860000  0.67380000  0.25800000  1
  H  H65  1  0.31040000  0.82620000  0.24200000  1
  H  H66  1  0.30130000  0.66210000  0.42310000  1
  H  H67  1  0.18790000  0.06440000  0.14820000  1
  H  H68  1  0.07710000  0.03460000  0.32080000  1
  H  H69  1  0.72980000  0.04340000  0.71480000  1
  H  H70  1  0.27020000  0.95660000  0.28520000  1
  H  H71  1  0.92290000  0.96540000  0.67920000  1
  H  H72  1  0.81210000  0.93560000  0.85180000  1
  H  H73  1  0.69870000  0.33790000  0.57690000  1
  H  H74  1  0.68960000  0.17380000  0.75800000  1
  H  H75  1  0.62140000  0.32620000  0.74200000  1
  H  H76  1  0.61350000  0.16210000  0.92310000  1
  H  H77  1  0.48800000  0.45660000  0.78520000  1
  H  H78  1  0.99490000  0.06640000  0.69620000  1
  H  H79  1  0.90700000  0.01070000  0.87430000  1
  H  H80  1  0.85730000  0.34230000  0.59770000  1
  H  H81  1  0.59950000  0.56440000  0.64820000  1
  H  H82  1  0.79730000  0.15770000  0.90230000  1
  H  H83  1  0.79200000  0.48930000  0.62570000  1
  H  H84  1  0.56750000  0.53460000  0.82080000  1
  H  H85  1  0.75750000  0.43360000  0.80380000  1
  C  C86  1  0.29460000  0.57650000  0.20490000  1
  C  C87  1  0.40020000  0.51980000  0.19560000  1
  C  C88  1  0.22190000  0.88620000  0.10140000  1
  C  C89  1  0.35580000  0.48680000  0.37200000  1
  C  C90  1  0.20950000  0.61380000  0.39860000  1
  C  C91  1  0.36930000  0.63580000  0.23800000  1
  C  C92  1  0.07600000  0.92350000  0.29510000  1
  C  C93  1  0.32370000  0.88560000  0.08940000  1
  C  C94  1  0.29870000  0.61440000  0.41060000  1
  C  C95  1  0.21460000  0.01320000  0.12800000  1
  C  C96  1  0.24310000  0.86420000  0.26200000  1
  C  C97  1  0.11560000  0.98020000  0.30440000  1
  C  C98  1  0.88440000  0.01980000  0.69560000  1
  C  C99  1  0.75690000  0.13580000  0.73800000  1
  C  C100  1  0.78540000  0.98680000  0.87200000  1
  C  C101  1  0.70130000  0.38560000  0.58940000  1
  C  C102  1  0.67630000  0.11440000  0.91060000  1
  C  C103  1  0.92400000  0.07650000  0.70490000  1
  C  C104  1  0.63070000  0.36420000  0.76200000  1
  C  C105  1  0.79050000  0.38620000  0.60140000  1
  C  C106  1  0.64420000  0.51320000  0.62800000  1
  C  C107  1  0.77810000  0.11380000  0.89860000  1
  C  C108  1  0.59980000  0.48020000  0.80440000  1
  C  C109  1  0.70540000  0.42350000  0.79510000  1
  N  N110  1  0.28140000  0.64930000  0.22910000  1
  N  N111  1  0.24750000  0.53250000  0.38030000  1
  N  N112  1  0.44660000  0.56160000  0.21600000  1
  N  N113  1  0.16030000  0.96750000  0.11970000  1
  N  N114  1  0.15980000  0.85070000  0.27090000  1
  N  N115  1  0.37940000  0.53630000  0.40130000  1
  N  N116  1  0.31700000  0.96370000  0.09870000  1
  N  N117  1  0.22420000  0.93840000  0.28400000  1
  N  N118  1  0.77580000  0.06160000  0.71600000  1
  N  N119  1  0.68300000  0.03630000  0.90130000  1
  N  N120  1  0.62060000  0.46370000  0.59870000  1
  N  N121  1  0.84020000  0.14930000  0.72910000  1
  N  N122  1  0.83970000  0.03250000  0.88030000  1
  N  N123  1  0.55340000  0.43840000  0.78400000  1
  N  N124  1  0.75250000  0.46750000  0.61970000  1
  N  N125  1  0.71860000  0.35070000  0.77090000  1
  O  O126  1  0.59310000  0.13350000  0.28850000  1
  O  O127  1  0.39958000  0.13704000  0.48000000  1
  O  O128  1  0.60028000  0.01754000  0.40230000  1
  O  O129  1  0.89070000  0.73110000  0.41550000  1
  O  O130  1  0.08740000  0.78640000  0.17580000  1
  O  O131  1  0.28530000  0.05060000  0.72340000  1
  O  O132  1  0.88770000  0.84950000  0.32470000  1
  O  O133  1  0.40440000  0.28220000  0.38980000  1
  O  O134  1  0.30508000  0.16174000  0.60970000  1
  O  O135  1  0.04960000  0.71360000  0.32420000  1
  O  O136  1  0.10480000  0.29410000  0.69450000  1
  O  O137  1  0.09340000  0.20590000  0.80550000  1
  O  O138  1  0.96270000  0.23110000  0.91550000  1
  O  O139  1  0.80020000  0.76450000  0.54470000  1
  O  O140  1  0.27831000  0.31188000  0.52130000  1
  O  O141  1  0.93810000  0.34950000  0.82470000  1
  O  O142  1  0.77290000  0.90470000  0.44710000  1
  O  O143  1  0.58346000  0.91298000  0.63870000  1
  O  O144  1  0.79990000  0.02620000  0.33860000  1
  O  O145  1  0.60938000  0.02964000  0.52920000  1
  O  O146  1  0.57871000  0.17368000  0.44010000  1
  O  O147  1  0.46846000  0.07748000  0.64680000  1
  O  O148  1  0.46750000  0.96880000  0.76100000  1
  O  O149  1  0.89060000  0.26450000  0.04470000  1
  O  O150  1  0.83530000  0.52620000  0.83860000  1
  O  O151  1  0.46407000  0.19866000  0.56140000  1
  O  O152  1  0.69060000  0.44290000  0.09250000  1
  O  O153  1  0.87530000  0.40470000  0.94710000  1
  O  O154  1  0.65900000  0.59450000  0.97510000  1
  O  O155  1  0.35500000  0.23020000  0.67840000  1
  O  O156  1  0.11149000  0.18812000  0.97870000  1
  O  O157  1  0.46021000  0.34268000  0.47570000  1
  O  O158  1  0.05930000  0.44940000  0.77660000  1
  O  O159  1  0.07652000  0.33826000  0.89030000  1
  O  O160  1  0.77400000  0.94290000  0.59250000  1
  O  O161  1  0.77140000  0.09450000  0.47510000  1
  O  O162  1  0.62810000  0.00540000  0.70820000  1
  O  O163  1  0.46030000  0.11330000  0.77710000  1
  O  O164  1  0.62130000  0.62470000  0.10650000  1
  O  O165  1  0.26360000  0.26980000  0.82160000  1
  O  O166  1  0.65830000  0.50540000  0.20820000  1
  O  O167  1  0.60098000  0.75944000  0.01300000  1
  O  O168  1  0.57570000  0.97280000  0.82580000  1
  O  O169  1  0.64750000  0.12470000  0.60650000  1
  O  O170  1  0.83178000  0.52964000  0.02920000  1
  O  O171  1  0.62658000  0.25944000  0.51300000  1
  O  O172  1  0.01662000  0.36296000  0.02000000  1
  O  O173  1  0.97988000  0.51754000  0.90230000  1
  O  O174  1  0.07640000  0.21780000  0.11020000  1
  O  O175  1  0.98490000  0.63350000  0.78850000  1
  O  O176  1  0.53840000  0.91160000  0.96360000  1
  O  O177  1  0.86486000  0.41298000  0.13870000  1
  O  O178  1  0.80751000  0.67368000  0.94010000  1
  O  O179  1  0.62570000  0.47280000  0.32580000  1
  O  O180  1  0.47757000  0.38366000  0.57360000  1
  O  O181  1  0.51000000  0.76230000  0.17450000  1
  O  O182  1  0.27859000  0.15732000  0.02430000  1
  O  O183  1  0.35070000  0.38670000  0.72290000  1
  O  O184  1  0.58640000  0.41160000  0.46360000  1
  O  O185  1  0.22413000  0.30134000  0.93860000  1
  O  O186  1  0.19730000  0.53120000  0.73900000  1
  O  O187  1  0.19274000  0.42252000  0.85320000  1
  O  O188  1  0.43483000  0.11634000  0.92640000  1
  O  O189  1  0.55320000  0.26230000  0.67450000  1
  O  O190  1  0.44680000  0.73770000  0.32550000  1
  O  O191  1  0.56517000  0.88366000  0.07360000  1
  O  O192  1  0.80726000  0.57748000  0.14680000  1
  O  O193  1  0.80270000  0.46880000  0.26100000  1
  O  O194  1  0.77587000  0.69866000  0.06140000  1
  O  O195  1  0.41360000  0.58840000  0.53640000  1
  O  O196  1  0.64930000  0.61330000  0.27710000  1
  O  O197  1  0.72141000  0.84268000  0.97570000  1
  O  O198  1  0.49000000  0.23770000  0.82550000  1
  O  O199  1  0.52243000  0.61634000  0.42640000  1
  O  O200  1  0.37430000  0.52720000  0.67420000  1
  O  O201  1  0.19249000  0.32632000  0.05990000  1
  O  O202  1  0.13514000  0.58702000  0.86130000  1
  O  O203  1  0.46160000  0.08840000  0.03640000  1
  O  O204  1  0.01510000  0.36650000  0.21150000  1
  O  O205  1  0.92360000  0.78220000  0.88980000  1
  O  O206  1  0.02012000  0.48246000  0.09770000  1
  O  O207  1  0.98338000  0.63704000  0.98000000  1
  O  O208  1  0.37342000  0.74056000  0.48700000  1
  O  O209  1  0.16822000  0.47036000  0.97080000  1
  O  O210  1  0.35250000  0.87530000  0.39350000  1
  O  O211  1  0.42430000  0.02720000  0.17420000  1
  O  O212  1  0.39902000  0.24056000  0.98700000  1
  O  O213  1  0.34170000  0.49460000  0.79180000  1
  O  O214  1  0.73640000  0.73020000  0.17840000  1
  O  O215  1  0.37870000  0.37530000  0.89350000  1
  O  O216  1  0.53970000  0.88670000  0.22290000  1
  O  O217  1  0.37190000  0.99460000  0.29180000  1
  O  O218  1  0.22860000  0.90550000  0.52490000  1
  O  O219  1  0.22600000  0.05710000  0.40750000  1
  O  O220  1  0.92348000  0.66174000  0.10970000  1
  O  O221  1  0.94070000  0.55060000  0.22340000  1
  O  O222  1  0.53979000  0.65732000  0.52430000  1
  O  O223  1  0.88851000  0.81188000  0.02130000  1
  O  O224  1  0.64500000  0.76980000  0.32160000  1
  O  O225  1  0.34100000  0.40550000  0.02490000  1
  O  O226  1  0.12470000  0.59530000  0.05290000  1
  O  O227  1  0.30940000  0.55710000  0.90750000  1
  O  O228  1  0.53593000  0.80134000  0.43860000  1
  O  O229  1  0.16470000  0.47380000  0.16140000  1
  O  O230  1  0.10940000  0.73550000  0.95530000  1
  O  O231  1  0.53250000  0.03120000  0.23900000  1
  O  O232  1  0.53154000  0.92252000  0.35320000  1
  O  O233  1  0.42129000  0.82632000  0.55990000  1
  O  O234  1  0.39062000  0.97036000  0.47080000  1
  O  O235  1  0.20010000  0.97380000  0.66140000  1
  O  O236  1  0.41654000  0.08702000  0.36130000  1
  O  O237  1  0.22710000  0.09530000  0.55290000  1
  O  O238  1  0.06190000  0.65050000  0.17530000  1
  O  O239  1  0.72169000  0.68812000  0.47870000  1
  O  O240  1  0.19980000  0.23550000  0.45530000  1
  O  O241  1  0.03730000  0.76890000  0.08450000  1
  O  O242  1  0.90660000  0.79410000  0.19450000  1
  O  O243  1  0.89520000  0.70590000  0.30550000  1
  O  O244  1  0.95040000  0.28640000  0.67580000  1
  O  O245  1  0.69492000  0.83826000  0.39030000  1
  O  O246  1  0.59560000  0.71780000  0.61020000  1
  O  O247  1  0.11230000  0.15050000  0.67530000  1
  O  O248  1  0.71470000  0.94940000  0.27660000  1
  O  O249  1  0.91260000  0.21360000  0.82420000  1
  O  O250  1  0.10930000  0.26890000  0.58450000  1
  O  O251  1  0.39972000  0.98246000  0.59770000  1
  O  O252  1  0.60042000  0.86296000  0.52000000  1
  O  O253  1  0.40690000  0.86650000  0.71150000  1
