# generated using pymatgen
data_CuH12C11NO4
_symmetry_space_group_name_H-M   'P 1'
_cell_length_a   8.72500000
_cell_length_b   13.07600000
_cell_length_c   14.40292214
_cell_angle_alpha   116.99647375
_cell_angle_beta   94.51632698
_cell_angle_gamma   90.00000000
_symmetry_Int_Tables_number   1
_chemical_formula_structural   CuH12C11NO4
_chemical_formula_sum   'Cu4 H48 C44 N4 O16'
_cell_volume   1458.42110758
_cell_formula_units_Z   4
loop_
 _symmetry_equiv_pos_site_id
 _symmetry_equiv_pos_as_xyz
  1  'x, y, z'
loop_
 _atom_site_type_symbol
 _atom_site_label
 _atom_site_symmetry_multiplicity
 _atom_site_fract_x
 _atom_site_fract_y
 _atom_site_fract_z
 _atom_site_occupancy
  C  C0  1  0.53540000  0.96450000  0.94960000  1
  C  C1  1  0.03540000  0.98510000  0.94960000  1
  C  C2  1  0.37780000  0.77899000  0.86638000  1
  C  C3  1  0.87780000  0.08739000  0.86638000  1
  C  C4  1  0.42190000  0.87887000  0.86554000  1
  C  C5  1  0.92190000  0.98667000  0.86554000  1
  C  C6  1  0.27120000  0.70402000  0.79044000  1
  C  C7  1  0.77120000  0.08642000  0.79044000  1
  C  C8  1  0.85090000  0.88618000  0.78556000  1
  C  C9  1  0.35090000  0.89938000  0.78556000  1
  C  C10  1  0.24550000  0.82136000  0.71332000  1
  C  C11  1  0.74550000  0.89196000  0.71332000  1
  C  C12  1  0.60570000  0.53616000  0.64172000  1
  C  C13  1  0.10570000  0.10556000  0.64172000  1
  C  C14  1  0.63300000  0.33650000  0.62540000  1
  C  C15  1  0.13300000  0.28890000  0.62540000  1
  C  C16  1  0.52810000  0.41732000  0.60324000  1
  C  C17  1  0.02810000  0.18592000  0.60324000  1
  C  C18  1  0.75170000  0.53207000  0.58914000  1
  C  C19  1  0.25170000  0.05707000  0.58914000  1
  C  C20  1  0.07630000  0.36627000  0.57814000  1
  C  C21  1  0.57630000  0.21187000  0.57814000  1
  C  C22  1  0.92370000  0.63373000  0.42186000  1
  C  C23  1  0.42370000  0.78813000  0.42186000  1
  C  C24  1  0.24830000  0.46793000  0.41086000  1
  C  C25  1  0.74830000  0.94293000  0.41086000  1
  C  C26  1  0.47190000  0.58268000  0.39676000  1
  C  C27  1  0.97190000  0.81408000  0.39676000  1
  C  C28  1  0.36700000  0.66350000  0.37460000  1
  C  C29  1  0.86700000  0.71110000  0.37460000  1
  C  C30  1  0.39430000  0.46384000  0.35828000  1
  C  C31  1  0.89430000  0.89444000  0.35828000  1
  C  C32  1  0.75450000  0.17864000  0.28668000  1
  C  C33  1  0.25450000  0.10804000  0.28668000  1
  C  C34  1  0.14910000  0.11382000  0.21444000  1
  C  C35  1  0.64910000  0.10062000  0.21444000  1
  C  C36  1  0.72880000  0.29598000  0.20956000  1
  C  C37  1  0.22880000  0.91358000  0.20956000  1
  C  C38  1  0.57810000  0.12113000  0.13446000  1
  C  C39  1  0.07810000  0.01333000  0.13446000  1
  C  C40  1  0.62220000  0.22101000  0.13362000  1
  C  C41  1  0.12220000  0.91261000  0.13362000  1
  C  C42  1  0.46460000  0.03550000  0.05040000  1
  C  C43  1  0.96460000  0.01490000  0.05040000  1
  Cu  Cu44  1  0.06182000  0.58938000  0.58528000  1
  Cu  Cu45  1  0.56182000  0.99590000  0.58528000  1
  Cu  Cu46  1  0.93818000  0.41062000  0.41472000  1
  Cu  Cu47  1  0.43818000  0.00410000  0.41472000  1
  H  H48  1  0.62010000  0.92360000  0.96300000  1
  H  H49  1  0.12010000  0.03940000  0.96300000  1
  H  H50  1  0.07700000  0.90930000  0.92460000  1
  H  H51  1  0.57700000  0.01530000  0.92460000  1
  H  H52  1  0.42010000  0.76160000  0.91860000  1
  H  H53  1  0.92010000  0.15700000  0.91860000  1
  H  H54  1  0.24540000  0.63600000  0.79220000  1
  H  H55  1  0.74540000  0.15620000  0.79220000  1
  H  H56  1  0.87570000  0.81520000  0.78160000  1
  H  H57  1  0.37570000  0.96640000  0.78160000  1
  H  H58  1  0.63080000  0.56950000  0.71680000  1
  H  H59  1  0.13080000  0.14730000  0.71680000  1
  H  H60  1  0.64990000  0.36560000  0.70060000  1
  H  H61  1  0.14990000  0.33500000  0.70060000  1
  H  H62  1  0.70050000  0.82370000  0.66040000  1
  H  H63  1  0.20050000  0.83670000  0.66040000  1
  H  H64  1  0.43450000  0.42490000  0.63760000  1
  H  H65  1  0.93450000  0.21270000  0.63760000  1
  H  H66  1  0.53410000  0.58560000  0.62820000  1
  H  H67  1  0.03410000  0.04260000  0.62820000  1
  H  H68  1  0.73190000  0.33900000  0.59980000  1
  H  H69  1  0.23190000  0.26080000  0.59980000  1
  H  H70  1  0.50010000  0.38480000  0.52860000  1
  H  H71  1  0.00010000  0.14380000  0.52860000  1
  H  H72  1  0.49990000  0.61520000  0.47140000  1
  H  H73  1  0.99990000  0.85620000  0.47140000  1
  H  H74  1  0.26810000  0.66100000  0.40020000  1
  H  H75  1  0.76810000  0.73920000  0.40020000  1
  H  H76  1  0.46590000  0.41440000  0.37180000  1
  H  H77  1  0.96590000  0.95740000  0.37180000  1
  H  H78  1  0.56550000  0.57510000  0.36240000  1
  H  H79  1  0.06550000  0.78730000  0.36240000  1
  H  H80  1  0.29950000  0.17630000  0.33960000  1
  H  H81  1  0.79950000  0.16330000  0.33960000  1
  H  H82  1  0.35010000  0.63440000  0.29940000  1
  H  H83  1  0.85010000  0.66500000  0.29940000  1
  H  H84  1  0.36920000  0.43050000  0.28320000  1
  H  H85  1  0.86920000  0.85270000  0.28320000  1
  H  H86  1  0.12430000  0.18480000  0.21840000  1
  H  H87  1  0.62430000  0.03360000  0.21840000  1
  H  H88  1  0.75460000  0.36400000  0.20780000  1
  H  H89  1  0.25460000  0.84380000  0.20780000  1
  H  H90  1  0.57990000  0.23840000  0.08140000  1
  H  H91  1  0.07990000  0.84300000  0.08140000  1
  H  H92  1  0.92300000  0.09070000  0.07540000  1
  H  H93  1  0.42300000  0.98470000  0.07540000  1
  H  H94  1  0.37990000  0.07640000  0.03700000  1
  H  H95  1  0.87990000  0.96060000  0.03700000  1
  N  N96  1  0.20350000  0.72346000  0.71492000  1
  N  N97  1  0.70350000  0.99146000  0.71492000  1
  N  N98  1  0.79650000  0.27654000  0.28508000  1
  N  N99  1  0.29650000  0.00854000  0.28508000  1
  O  O100  1  0.85990000  0.60388000  0.64216000  1
  O  O101  1  0.35990000  0.03828000  0.64216000  1
  O  O102  1  0.10790000  0.47128000  0.63238000  1
  O  O103  1  0.60790000  0.16110000  0.63238000  1
  O  O104  1  0.99320000  0.67926000  0.51098000  1
  O  O105  1  0.49320000  0.83172000  0.51098000  1
  O  O106  1  0.24320000  0.54388000  0.50358000  1
  O  O107  1  0.74320000  0.95970000  0.50358000  1
  O  O108  1  0.75680000  0.45612000  0.49642000  1
  O  O109  1  0.25680000  0.04030000  0.49642000  1
  O  O110  1  0.00680000  0.32074000  0.48902000  1
  O  O111  1  0.50680000  0.16828000  0.48902000  1
  O  O112  1  0.89210000  0.52872000  0.36762000  1
  O  O113  1  0.39210000  0.83890000  0.36762000  1
  O  O114  1  0.14010000  0.39612000  0.35784000  1
  O  O115  1  0.64010000  0.96172000  0.35784000  1
