# generated using pymatgen
data_ZnH8C10NO4
_symmetry_space_group_name_H-M   'P 1'
_cell_length_a   10.16430000
_cell_length_b   15.02300000
_cell_length_c   18.19600000
_cell_angle_alpha   114.23300000
_cell_angle_beta   90.00000000
_cell_angle_gamma   90.00000000
_symmetry_Int_Tables_number   1
_chemical_formula_structural   ZnH8C10NO4
_chemical_formula_sum   'Zn8 H64 C80 N8 O32'
_cell_volume   2533.66739160
_cell_formula_units_Z   8
loop_
 _symmetry_equiv_pos_site_id
 _symmetry_equiv_pos_as_xyz
  1  'x, y, z'
loop_
 _atom_site_type_symbol
 _atom_site_label
 _atom_site_symmetry_multiplicity
 _atom_site_fract_x
 _atom_site_fract_y
 _atom_site_fract_z
 _atom_site_occupancy
  Zn  Zn0  1  0.77736000  0.88850000  0.26345000  1
  Zn  Zn1  1  0.72264000  0.88850000  0.76345000  1
  Zn  Zn2  1  0.44975000  0.84417000  0.54666000  1
  Zn  Zn3  1  0.05025000  0.84417000  0.04666000  1
  Zn  Zn4  1  0.94975000  0.15583000  0.95334000  1
  Zn  Zn5  1  0.55025000  0.15583000  0.45334000  1
  Zn  Zn6  1  0.27736000  0.11150000  0.23655000  1
  Zn  Zn7  1  0.22264000  0.11150000  0.73655000  1
  H  H8  1  0.85070000  0.98790000  0.64920000  1
  H  H9  1  0.64930000  0.98790000  0.14920000  1
  H  H10  1  0.37280000  0.92000000  0.92220000  1
  H  H11  1  0.12720000  0.92000000  0.42220000  1
  H  H12  1  0.33180000  0.86920000  0.25350000  1
  H  H13  1  0.16820000  0.86920000  0.75350000  1
  H  H14  1  0.93360000  0.83950000  0.64290000  1
  H  H15  1  0.56640000  0.83950000  0.14290000  1
  H  H16  1  0.29360000  0.76150000  0.78370000  1
  H  H17  1  0.20640000  0.76150000  0.28370000  1
  H  H18  1  0.41740000  0.71970000  0.07620000  1
  H  H19  1  0.08260000  0.71970000  0.57620000  1
  H  H20  1  0.94620000  0.69510000  0.09580000  1
  H  H21  1  0.55380000  0.69510000  0.59580000  1
  H  H22  1  0.97130000  0.69200000  0.88130000  1
  H  H23  1  0.52870000  0.69200000  0.38130000  1
  H  H24  1  0.79010000  0.68880000  0.75330000  1
  H  H25  1  0.70990000  0.68880000  0.25330000  1
  H  H26  1  0.29470000  0.61180000  0.58970000  1
  H  H27  1  0.20530000  0.61180000  0.08970000  1
  H  H28  1  0.26030000  0.58980000  0.66480000  1
  H  H29  1  0.23970000  0.58980000  0.16480000  1
  H  H30  1  0.93440000  0.56440000  0.68860000  1
  H  H31  1  0.56560000  0.56440000  0.18860000  1
  H  H32  1  0.83840000  0.54840000  0.04540000  1
  H  H33  1  0.66160000  0.54840000  0.54540000  1
  H  H34  1  0.86600000  0.54510000  0.82630000  1
  H  H35  1  0.63400000  0.54510000  0.32630000  1
  H  H36  1  0.38310000  0.52960000  0.02170000  1
  H  H37  1  0.11690000  0.52960000  0.52170000  1
  H  H38  1  0.90970000  0.51410000  0.41500000  1
  H  H39  1  0.59030000  0.51410000  0.91500000  1
  H  H40  1  0.40970000  0.48590000  0.08500000  1
  H  H41  1  0.09030000  0.48590000  0.58500000  1
  H  H42  1  0.88310000  0.47040000  0.47830000  1
  H  H43  1  0.61690000  0.47040000  0.97830000  1
  H  H44  1  0.36600000  0.45490000  0.67370000  1
  H  H45  1  0.13400000  0.45490000  0.17370000  1
  H  H46  1  0.33840000  0.45160000  0.45460000  1
  H  H47  1  0.16160000  0.45160000  0.95460000  1
  H  H48  1  0.43440000  0.43560000  0.81140000  1
  H  H49  1  0.06560000  0.43560000  0.31140000  1
  H  H50  1  0.76030000  0.41020000  0.83520000  1
  H  H51  1  0.73970000  0.41020000  0.33520000  1
  H  H52  1  0.79470000  0.38820000  0.91030000  1
  H  H53  1  0.70530000  0.38820000  0.41030000  1
  H  H54  1  0.29010000  0.31120000  0.74670000  1
  H  H55  1  0.20990000  0.31120000  0.24670000  1
  H  H56  1  0.47130000  0.30800000  0.61870000  1
  H  H57  1  0.02870000  0.30800000  0.11870000  1
  H  H58  1  0.44620000  0.30490000  0.40420000  1
  H  H59  1  0.05380000  0.30490000  0.90420000  1
  H  H60  1  0.91740000  0.28030000  0.42380000  1
  H  H61  1  0.58260000  0.28030000  0.92380000  1
  H  H62  1  0.79360000  0.23850000  0.71630000  1
  H  H63  1  0.70640000  0.23850000  0.21630000  1
  H  H64  1  0.43360000  0.16050000  0.85710000  1
  H  H65  1  0.06640000  0.16050000  0.35710000  1
  H  H66  1  0.83180000  0.13080000  0.24650000  1
  H  H67  1  0.66820000  0.13080000  0.74650000  1
  H  H68  1  0.87280000  0.08000000  0.57780000  1
  H  H69  1  0.62720000  0.08000000  0.07780000  1
  H  H70  1  0.35070000  0.01210000  0.85080000  1
  H  H71  1  0.14930000  0.01210000  0.35080000  1
  C  C72  1  0.26900000  0.97654000  0.84879000  1
  C  C73  1  0.23100000  0.97654000  0.34879000  1
  C  C74  1  0.84070000  0.95059000  0.12414000  1
  C  C75  1  0.65930000  0.95059000  0.62414000  1
  C  C76  1  0.31540000  0.90263000  0.69255000  1
  C  C77  1  0.18460000  0.90263000  0.19255000  1
  C  C78  1  0.29770000  0.90148000  0.88511000  1
  C  C79  1  0.20230000  0.90148000  0.38511000  1
  C  C80  1  0.25980000  0.89111000  0.76443000  1
  C  C81  1  0.24020000  0.89111000  0.26443000  1
  C  C82  1  0.32070000  0.86955000  0.41868000  1
  C  C83  1  0.17930000  0.86955000  0.91868000  1
  C  C84  1  0.33500000  0.82533000  0.79810000  1
  C  C85  1  0.16500000  0.82533000  0.29810000  1
  C  C86  1  0.48150000  0.81880000  0.78142000  1
  C  C87  1  0.01850000  0.81880000  0.28142000  1
  C  C88  1  0.93330000  0.78320000  0.65230000  1
  C  C89  1  0.56670000  0.78320000  0.15230000  1
  C  C90  1  0.47670000  0.71090000  0.11150000  1
  C  C91  1  0.02330000  0.71090000  0.61150000  1
  C  C92  1  0.84940000  0.69500000  0.71670000  1
  C  C93  1  0.65060000  0.69500000  0.21670000  1
  C  C94  1  0.92930000  0.66490000  0.04078000  1
  C  C95  1  0.57070000  0.66490000  0.54078000  1
  C  C96  1  0.94420000  0.66290000  0.91510000  1
  C  C97  1  0.55580000  0.66290000  0.41510000  1
  C  C98  1  0.47470000  0.62650000  0.12300000  1
  C  C99  1  0.02530000  0.62650000  0.62300000  1
  C  C100  1  0.93600000  0.61980000  0.67790000  1
  C  C101  1  0.56400000  0.61980000  0.17790000  1
  C  C102  1  0.86420000  0.57670000  0.01080000  1
  C  C103  1  0.63580000  0.57670000  0.51080000  1
  C  C104  1  0.88010000  0.57460000  0.88170000  1
  C  C105  1  0.61990000  0.57460000  0.38170000  1
  C  C106  1  0.25740000  0.56370000  0.60640000  1
  C  C107  1  0.24260000  0.56370000  0.10640000  1
  C  C108  1  0.38010000  0.54370000  0.07870000  1
  C  C109  1  0.11990000  0.54370000  0.57870000  1
  C  C110  1  0.83710000  0.53000000  0.92910000  1
  C  C111  1  0.66290000  0.53000000  0.42910000  1
  C  C112  1  0.33710000  0.47000000  0.57090000  1
  C  C113  1  0.16290000  0.47000000  0.07090000  1
  C  C114  1  0.88010000  0.45630000  0.42130000  1
  C  C115  1  0.61990000  0.45630000  0.92130000  1
  C  C116  1  0.75740000  0.43630000  0.89360000  1
  C  C117  1  0.74260000  0.43630000  0.39360000  1
  C  C118  1  0.38010000  0.42540000  0.61830000  1
  C  C119  1  0.11990000  0.42540000  0.11830000  1
  C  C120  1  0.36420000  0.42330000  0.48920000  1
  C  C121  1  0.13580000  0.42330000  0.98920000  1
  C  C122  1  0.43600000  0.38020000  0.82210000  1
  C  C123  1  0.06400000  0.38020000  0.32210000  1
  C  C124  1  0.97470000  0.37350000  0.37700000  1
  C  C125  1  0.52530000  0.37350000  0.87700000  1
  C  C126  1  0.44420000  0.33710000  0.58490000  1
  C  C127  1  0.05580000  0.33710000  0.08490000  1
  C  C128  1  0.42930000  0.33510000  0.45922000  1
  C  C129  1  0.07070000  0.33510000  0.95922000  1
  C  C130  1  0.34940000  0.30500000  0.78330000  1
  C  C131  1  0.15060000  0.30500000  0.28330000  1
  C  C132  1  0.97670000  0.28910000  0.38850000  1
  C  C133  1  0.52330000  0.28910000  0.88850000  1
  C  C134  1  0.43330000  0.21680000  0.84770000  1
  C  C135  1  0.06670000  0.21680000  0.34770000  1
  C  C136  1  0.98150000  0.18120000  0.71858000  1
  C  C137  1  0.51850000  0.18120000  0.21858000  1
  C  C138  1  0.83500000  0.17467000  0.70190000  1
  C  C139  1  0.66500000  0.17467000  0.20190000  1
  C  C140  1  0.82070000  0.13045000  0.08132000  1
  C  C141  1  0.67930000  0.13045000  0.58132000  1
  C  C142  1  0.75980000  0.10889000  0.73557000  1
  C  C143  1  0.74020000  0.10889000  0.23557000  1
  C  C144  1  0.79770000  0.09852000  0.61489000  1
  C  C145  1  0.70230000  0.09852000  0.11489000  1
  C  C146  1  0.81540000  0.09737000  0.80745000  1
  C  C147  1  0.68460000  0.09737000  0.30745000  1
  C  C148  1  0.34070000  0.04941000  0.37586000  1
  C  C149  1  0.15930000  0.04941000  0.87586000  1
  C  C150  1  0.76900000  0.02346000  0.65121000  1
  C  C151  1  0.73100000  0.02346000  0.15121000  1
  N  N152  1  0.84690000  0.77652000  0.70408000  1
  N  N153  1  0.65310000  0.77652000  0.20408000  1
  N  N154  1  0.96910000  0.70864000  0.99390000  1
  N  N155  1  0.53090000  0.70864000  0.49390000  1
  N  N156  1  0.46910000  0.29136000  0.50610000  1
  N  N157  1  0.03090000  0.29136000  0.00610000  1
  N  N158  1  0.34690000  0.22348000  0.79592000  1
  N  N159  1  0.15310000  0.22348000  0.29592000  1
  O  O160  1  0.32085000  0.98535000  0.69040000  1
  O  O161  1  0.17915000  0.98535000  0.19040000  1
  O  O162  1  0.91217000  0.94381000  0.06528000  1
  O  O163  1  0.58783000  0.94381000  0.56528000  1
  O  O164  1  0.95599000  0.90077000  0.30757000  1
  O  O165  1  0.54401000  0.90077000  0.80757000  1
  O  O166  1  0.85693000  0.89605000  0.16024000  1
  O  O167  1  0.64307000  0.89605000  0.66024000  1
  O  O168  1  0.30895000  0.88206000  0.49248000  1
  O  O169  1  0.19105000  0.88206000  0.99248000  1
  O  O170  1  0.41780000  0.83245000  0.37657000  1
  O  O171  1  0.08220000  0.83245000  0.87657000  1
  O  O172  1  0.35472000  0.82595000  0.63505000  1
  O  O173  1  0.14528000  0.82595000  0.13505000  1
  O  O174  1  0.96510000  0.73969000  0.24388000  1
  O  O175  1  0.53490000  0.73969000  0.74388000  1
  O  O176  1  0.46510000  0.26031000  0.25612000  1
  O  O177  1  0.03490000  0.26031000  0.75612000  1
  O  O178  1  0.85472000  0.17405000  0.86495000  1
  O  O179  1  0.64528000  0.17405000  0.36495000  1
  O  O180  1  0.91780000  0.16755000  0.12343000  1
  O  O181  1  0.58220000  0.16755000  0.62343000  1
  O  O182  1  0.80895000  0.11794000  0.00752000  1
  O  O183  1  0.69105000  0.11794000  0.50752000  1
  O  O184  1  0.35693000  0.10395000  0.33976000  1
  O  O185  1  0.14307000  0.10395000  0.83976000  1
  O  O186  1  0.45599000  0.09923000  0.19243000  1
  O  O187  1  0.04401000  0.09923000  0.69243000  1
  O  O188  1  0.41217000  0.05619000  0.43472000  1
  O  O189  1  0.08783000  0.05619000  0.93472000  1
  O  O190  1  0.82085000  0.01465000  0.80960000  1
  O  O191  1  0.67915000  0.01465000  0.30960000  1
