# generated using pymatgen
data_MnH4(C2O)4
_symmetry_space_group_name_H-M   'P 1'
_cell_length_a   10.69780000
_cell_length_b   13.49120000
_cell_length_c   14.38430000
_cell_angle_alpha   76.77080000
_cell_angle_beta   68.16990000
_cell_angle_gamma   66.64220000
_symmetry_Int_Tables_number   1
_chemical_formula_structural   MnH4(C2O)4
_chemical_formula_sum   'Mn6 H24 C48 O24'
_cell_volume   1761.13071781
_cell_formula_units_Z   6
loop_
 _symmetry_equiv_pos_site_id
 _symmetry_equiv_pos_as_xyz
  1  'x, y, z'
loop_
 _atom_site_type_symbol
 _atom_site_label
 _atom_site_symmetry_multiplicity
 _atom_site_fract_x
 _atom_site_fract_y
 _atom_site_fract_z
 _atom_site_occupancy
  Mn  Mn0  1  0.14291000  0.96089000  0.89049000  1
  Mn  Mn1  1  0.21798000  0.75000000  0.75000000  1
  Mn  Mn2  1  0.49429000  0.53911000  0.60951000  1
  Mn  Mn3  1  0.50571000  0.46089000  0.39049000  1
  Mn  Mn4  1  0.78202000  0.25000000  0.25000000  1
  Mn  Mn5  1  0.85709000  0.03911000  0.10951000  1
  H  H6  1  0.04560000  0.45840000  0.09240000  1
  H  H7  1  0.09640000  0.04160000  0.40760000  1
  H  H8  1  0.13540000  0.59110000  0.99070000  1
  H  H9  1  0.13690000  0.81340000  0.25260000  1
  H  H10  1  0.20120000  0.18140000  0.84660000  1
  H  H11  1  0.21720000  0.90890000  0.50930000  1
  H  H12  1  0.27080000  0.68140000  0.34660000  1
  H  H13  1  0.29710000  0.31340000  0.75260000  1
  H  H14  1  0.33980000  0.62470000  0.11490000  1
  H  H15  1  0.34500000  0.66160000  0.94820000  1
  H  H16  1  0.42060000  0.12470000  0.61490000  1
  H  H17  1  0.45480000  0.83840000  0.55180000  1
  H  H18  1  0.54520000  0.16160000  0.44820000  1
  H  H19  1  0.57940000  0.87530000  0.38510000  1
  H  H20  1  0.65500000  0.33840000  0.05180000  1
  H  H21  1  0.66020000  0.37530000  0.88510000  1
  H  H22  1  0.70290000  0.68660000  0.24740000  1
  H  H23  1  0.72920000  0.31860000  0.65340000  1
  H  H24  1  0.78280000  0.09110000  0.49070000  1
  H  H25  1  0.79880000  0.81860000  0.15340000  1
  H  H26  1  0.86310000  0.18660000  0.74740000  1
  H  H27  1  0.86460000  0.40890000  0.00930000  1
  H  H28  1  0.90360000  0.95840000  0.59240000  1
  H  H29  1  0.95440000  0.54160000  0.90760000  1
  C  C30  1  0.00546000  0.46900000  0.89668000  1
  C  C31  1  0.01370000  0.02544000  0.26016000  1
  C  C32  1  0.02480000  0.28152000  0.93908000  1
  C  C33  1  0.03190000  0.80446000  0.99594000  1
  C  C34  1  0.04928000  0.61046000  0.04298000  1
  C  C35  1  0.10360000  0.94070000  0.32050000  1
  C  C36  1  0.12886000  0.96900000  0.39668000  1
  C  C37  1  0.13520000  0.44070000  0.82050000  1
  C  C38  1  0.15300000  0.25335000  0.86065000  1
  C  C39  1  0.15488000  0.83287000  0.30317000  1
  C  C40  1  0.20070000  0.52544000  0.76016000  1
  C  C41  1  0.20272000  0.88954000  0.45702000  1
  C  C42  1  0.20908000  0.33287000  0.80317000  1
  C  C43  1  0.23300000  0.75335000  0.36065000  1
  C  C44  1  0.25460000  0.78152000  0.43908000  1
  C  C45  1  0.33230000  0.69554000  0.50406000  1
  C  C46  1  0.33952000  0.95567000  0.70629000  1
  C  C47  1  0.40436000  0.57470000  0.06878000  1
  C  C48  1  0.40711000  0.59662000  0.96896000  1
  C  C49  1  0.42422000  0.97802000  0.59974000  1
  C  C50  1  0.45216000  0.07470000  0.56878000  1
  C  C51  1  0.47269000  0.90338000  0.53104000  1
  C  C52  1  0.49802000  0.47802000  0.09974000  1
  C  C53  1  0.49852000  0.45567000  0.20629000  1
  C  C54  1  0.50148000  0.54433000  0.79371000  1
  C  C55  1  0.50198000  0.52198000  0.90026000  1
  C  C56  1  0.52731000  0.09662000  0.46896000  1
  C  C57  1  0.54784000  0.92530000  0.43122000  1
  C  C58  1  0.57578000  0.02198000  0.40026000  1
  C  C59  1  0.59289000  0.40338000  0.03104000  1
  C  C60  1  0.59564000  0.42530000  0.93122000  1
  C  C61  1  0.66048000  0.04433000  0.29371000  1
  C  C62  1  0.66770000  0.30446000  0.49594000  1
  C  C63  1  0.74540000  0.21848000  0.56092000  1
  C  C64  1  0.76700000  0.24665000  0.63935000  1
  C  C65  1  0.79092000  0.66713000  0.19683000  1
  C  C66  1  0.79728000  0.11046000  0.54298000  1
  C  C67  1  0.79930000  0.47456000  0.23984000  1
  C  C68  1  0.84512000  0.16713000  0.69683000  1
  C  C69  1  0.84700000  0.74665000  0.13935000  1
  C  C70  1  0.86480000  0.55930000  0.17950000  1
  C  C71  1  0.87114000  0.03100000  0.60332000  1
  C  C72  1  0.89640000  0.05930000  0.67950000  1
  C  C73  1  0.95072000  0.38954000  0.95702000  1
  C  C74  1  0.96810000  0.19554000  0.00406000  1
  C  C75  1  0.97520000  0.71848000  0.06092000  1
  C  C76  1  0.98630000  0.97456000  0.73984000  1
  C  C77  1  0.99454000  0.53100000  0.10332000  1
  O  O78  1  0.00097000  0.00842000  0.80804000  1
  O  O79  1  0.01819000  0.10117000  0.97605000  1
  O  O80  1  0.04210000  0.87861000  0.71639000  1
  O  O81  1  0.13180000  0.78348000  0.91372000  1
  O  O82  1  0.13710000  0.62139000  0.78361000  1
  O  O83  1  0.29017000  0.02733000  0.76553000  1
  O  O84  1  0.31743000  0.49158000  0.69196000  1
  O  O85  1  0.31927000  0.86638000  0.73448000  1
  O  O86  1  0.32900000  0.71652000  0.58628000  1
  O  O87  1  0.40459000  0.60117000  0.47605000  1
  O  O88  1  0.41697000  0.52733000  0.26553000  1
  O  O89  1  0.42013000  0.63362000  0.76552000  1
  O  O90  1  0.57987000  0.36638000  0.23448000  1
  O  O91  1  0.58303000  0.47267000  0.73447000  1
  O  O92  1  0.59541000  0.39883000  0.52395000  1
  O  O93  1  0.67100000  0.28348000  0.41372000  1
  O  O94  1  0.68073000  0.13362000  0.26552000  1
  O  O95  1  0.68257000  0.50842000  0.30804000  1
  O  O96  1  0.70983000  0.97267000  0.23447000  1
  O  O97  1  0.86290000  0.37861000  0.21639000  1
  O  O98  1  0.86820000  0.21652000  0.08628000  1
  O  O99  1  0.95790000  0.12139000  0.28361000  1
  O  O100  1  0.98181000  0.89883000  0.02395000  1
  O  O101  1  0.99903000  0.99158000  0.19196000  1
