# generated using pymatgen
data_Be3P3H2O13
_symmetry_space_group_name_H-M   'P 1'
_cell_length_a   4.86660000
_cell_length_b   12.78303092
_cell_length_c   21.57262321
_cell_angle_alpha   84.68804473
_cell_angle_beta   83.52349702
_cell_angle_gamma   79.02656092
_symmetry_Int_Tables_number   1
_chemical_formula_structural   Be3P3H2O13
_chemical_formula_sum   'Be12 P12 H8 O52'
_cell_volume   1305.60156486
_cell_formula_units_Z   4
loop_
 _symmetry_equiv_pos_site_id
 _symmetry_equiv_pos_as_xyz
  1  'x, y, z'
loop_
 _atom_site_type_symbol
 _atom_site_label
 _atom_site_symmetry_multiplicity
 _atom_site_fract_x
 _atom_site_fract_y
 _atom_site_fract_z
 _atom_site_occupancy
  Be  Be0  1  0.71310000  0.72070000  0.15950000  1
  Be  Be1  1  0.40670000  0.22070000  0.65950000  1
  Be  Be2  1  0.85345000  0.38363000  0.25067000  1
  Be  Be3  1  0.51225000  0.88363000  0.75067000  1
  Be  Be4  1  0.22190000  0.45049000  0.07071000  1
  Be  Be5  1  0.25690000  0.95049000  0.57071000  1
  Be  Be6  1  0.77810000  0.54951000  0.92929000  1
  Be  Be7  1  0.74310000  0.04951000  0.42929000  1
  Be  Be8  1  0.14655000  0.61637000  0.74933000  1
  Be  Be9  1  0.48775000  0.11637000  0.24933000  1
  Be  Be10  1  0.28690000  0.27930000  0.84050000  1
  Be  Be11  1  0.59330000  0.77930000  0.34050000  1
  H  H12  1  0.97840000  0.28500000  0.66720000  1
  H  H13  1  0.06940000  0.78500000  0.16720000  1
  H  H14  1  0.98490000  0.03090000  0.75910000  1
  H  H15  1  0.22510000  0.53090000  0.25910000  1
  H  H16  1  0.01510000  0.96910000  0.24090000  1
  H  H17  1  0.77490000  0.46910000  0.74090000  1
  H  H18  1  0.02160000  0.71500000  0.33280000  1
  H  H19  1  0.93060000  0.21500000  0.83280000  1
  O  O20  1  0.53934000  0.66427000  0.32885000  1
  O  O21  1  0.46754000  0.16427000  0.82885000  1
  O  O22  1  0.04557000  0.73742000  0.14644000  1
  O  O23  1  0.07057000  0.23742000  0.64644000  1
  O  O24  1  0.90275000  0.08660000  0.77390000  1
  O  O25  1  0.23675000  0.58660000  0.27390000  1
  O  O26  1  0.67511000  0.63312000  0.21466000  1
  O  O27  1  0.47711000  0.13312000  0.71466000  1
  O  O28  1  0.64557000  0.68409000  0.09477000  1
  O  O29  1  0.57557000  0.18409000  0.59477000  1
  O  O30  1  0.70708000  0.48012000  0.29472000  1
  O  O31  1  0.51808000  0.98012000  0.79472000  1
  O  O32  1  0.16671000  0.40702000  0.22596000  1
  O  O33  1  0.20031000  0.90702000  0.72596000  1
  O  O34  1  0.01010000  0.05348000  0.57332000  1
  O  O35  1  0.36310000  0.55348000  0.07332000  1
  O  O36  1  0.76198000  0.59708000  0.99616000  1
  O  O37  1  0.64478000  0.09708000  0.49616000  1
  O  O38  1  0.86631000  0.48733000  0.09445000  1
  O  O39  1  0.55191000  0.98733000  0.59445000  1
  O  O40  1  0.75133000  0.88251000  0.68923000  1
  O  O41  1  0.67693000  0.38251000  0.18923000  1
  O  O42  1  0.86179000  0.27667000  0.29415000  1
  O  O43  1  0.56739000  0.77667000  0.79415000  1
  O  O44  1  0.80819000  0.14630000  0.38292000  1
  O  O45  1  0.66259000  0.64630000  0.88292000  1
  O  O46  1  0.19181000  0.85370000  0.61708000  1
  O  O47  1  0.33741000  0.35370000  0.11708000  1
  O  O48  1  0.13821000  0.72333000  0.70585000  1
  O  O49  1  0.43261000  0.22333000  0.20585000  1
  O  O50  1  0.24867000  0.11749000  0.31077000  1
  O  O51  1  0.32307000  0.61749000  0.81077000  1
  O  O52  1  0.13369000  0.51267000  0.90555000  1
  O  O53  1  0.44809000  0.01267000  0.40555000  1
  O  O54  1  0.23802000  0.40292000  0.00384000  1
  O  O55  1  0.35522000  0.90292000  0.50384000  1
  O  O56  1  0.98990000  0.94652000  0.42668000  1
  O  O57  1  0.63690000  0.44652000  0.92668000  1
  O  O58  1  0.83329000  0.59298000  0.77404000  1
  O  O59  1  0.79969000  0.09298000  0.27404000  1
  O  O60  1  0.29292000  0.51988000  0.70528000  1
  O  O61  1  0.48192000  0.01988000  0.20528000  1
  O  O62  1  0.35443000  0.31591000  0.90523000  1
  O  O63  1  0.42443000  0.81591000  0.40523000  1
  O  O64  1  0.32489000  0.36688000  0.78534000  1
  O  O65  1  0.52289000  0.86688000  0.28534000  1
  O  O66  1  0.09725000  0.91340000  0.22610000  1
  O  O67  1  0.76325000  0.41340000  0.72610000  1
  O  O68  1  0.95443000  0.26258000  0.85356000  1
  O  O69  1  0.92943000  0.76258000  0.35356000  1
  O  O70  1  0.46066000  0.33573000  0.67115000  1
  O  O71  1  0.53246000  0.83573000  0.17115000  1
  P  P72  1  0.57840000  0.09202000  0.77668000  1
  P  P73  1  0.55290000  0.59202000  0.27668000  1
  P  P74  1  0.70262000  0.08327000  0.56355000  1
  P  P75  1  0.65056000  0.58327000  0.06355000  1
  P  P76  1  0.07481000  0.83993000  0.68513000  1
  P  P77  1  0.40013000  0.33993000  0.18513000  1
  P  P78  1  0.92519000  0.16007000  0.31487000  1
  P  P79  1  0.59987000  0.66007000  0.81487000  1
  P  P80  1  0.29738000  0.91673000  0.43645000  1
  P  P81  1  0.34944000  0.41673000  0.93645000  1
  P  P82  1  0.42160000  0.90798000  0.22332000  1
  P  P83  1  0.44710000  0.40798000  0.72332000  1
