# generated using pymatgen
data_ZnH9(C3O)5
_symmetry_space_group_name_H-M   'P 1'
_cell_length_a   9.32430000
_cell_length_b   14.45350000
_cell_length_c   26.93900000
_cell_angle_alpha   90.00000000
_cell_angle_beta   90.00000000
_cell_angle_gamma   93.06800000
_symmetry_Int_Tables_number   1
_chemical_formula_structural   ZnH9(C3O)5
_chemical_formula_sum   'Zn8 H72 C120 O40'
_cell_volume   3625.33231425
_cell_formula_units_Z   8
loop_
 _symmetry_equiv_pos_site_id
 _symmetry_equiv_pos_as_xyz
  1  'x, y, z'
loop_
 _atom_site_type_symbol
 _atom_site_label
 _atom_site_symmetry_multiplicity
 _atom_site_fract_x
 _atom_site_fract_y
 _atom_site_fract_z
 _atom_site_occupancy
  Zn  Zn0  1  0.03233000  0.38807000  0.87960000  1
  Zn  Zn1  1  0.03233000  0.88807000  0.62040000  1
  Zn  Zn2  1  0.35235000  0.37819000  0.82096000  1
  Zn  Zn3  1  0.35235000  0.87819000  0.67904000  1
  Zn  Zn4  1  0.64765000  0.12181000  0.32096000  1
  Zn  Zn5  1  0.64765000  0.62181000  0.17904000  1
  Zn  Zn6  1  0.96767000  0.11193000  0.37960000  1
  Zn  Zn7  1  0.96767000  0.61193000  0.12040000  1
  H  H8  1  0.00110000  0.26440000  0.96870000  1
  H  H9  1  0.00110000  0.76440000  0.53130000  1
  H  H10  1  0.00470000  0.02160000  0.08410000  1
  H  H11  1  0.00470000  0.52160000  0.41590000  1
  H  H12  1  0.10410000  0.34720000  0.36490000  1
  H  H13  1  0.10410000  0.84720000  0.13510000  1
  H  H14  1  0.16080000  0.06070000  0.23080000  1
  H  H15  1  0.16080000  0.56070000  0.26920000  1
  H  H16  1  0.18610000  0.03500000  0.88940000  1
  H  H17  1  0.18610000  0.53500000  0.61060000  1
  H  H18  1  0.19090000  0.03200000  0.50620000  1
  H  H19  1  0.19090000  0.53200000  0.99380000  1
  H  H20  1  0.19220000  0.11200000  0.76030000  1
  H  H21  1  0.19220000  0.61200000  0.73970000  1
  H  H22  1  0.20400000  0.11720000  0.06690000  1
  H  H23  1  0.20400000  0.61720000  0.43310000  1
  H  H24  1  0.21060000  0.30650000  0.49700000  1
  H  H25  1  0.21060000  0.80650000  0.00300000  1
  H  H26  1  0.25620000  0.26000000  0.95730000  1
  H  H27  1  0.25620000  0.76000000  0.54270000  1
  H  H28  1  0.25980000  0.43630000  0.40960000  1
  H  H29  1  0.25980000  0.93630000  0.09040000  1
  H  H30  1  0.33670000  0.37210000  0.37180000  1
  H  H31  1  0.33670000  0.87210000  0.12820000  1
  H  H32  1  0.34130000  0.18350000  0.98450000  1
  H  H33  1  0.34130000  0.68350000  0.51550000  1
  H  H34  1  0.39290000  0.34760000  0.53240000  1
  H  H35  1  0.39290000  0.84760000  0.96760000  1
  H  H36  1  0.39690000  0.10560000  0.86120000  1
  H  H37  1  0.39690000  0.60560000  0.63880000  1
  H  H38  1  0.41180000  0.05020000  0.04370000  1
  H  H39  1  0.41180000  0.55020000  0.45630000  1
  H  H40  1  0.44340000  0.41500000  0.08130000  1
  H  H41  1  0.44340000  0.91500000  0.41870000  1
  H  H42  1  0.48930000  0.21850000  0.45460000  1
  H  H43  1  0.48930000  0.71850000  0.04540000  1
  H  H44  1  0.51070000  0.28150000  0.95460000  1
  H  H45  1  0.51070000  0.78150000  0.54540000  1
  H  H46  1  0.55660000  0.08500000  0.58130000  1
  H  H47  1  0.55660000  0.58500000  0.91870000  1
  H  H48  1  0.58820000  0.44980000  0.54370000  1
  H  H49  1  0.58820000  0.94980000  0.95630000  1
  H  H50  1  0.60310000  0.39440000  0.36120000  1
  H  H51  1  0.60310000  0.89440000  0.13880000  1
  H  H52  1  0.60710000  0.15240000  0.03240000  1
  H  H53  1  0.60710000  0.65240000  0.46760000  1
  H  H54  1  0.65870000  0.31650000  0.48450000  1
  H  H55  1  0.65870000  0.81650000  0.01550000  1
  H  H56  1  0.66330000  0.12790000  0.87180000  1
  H  H57  1  0.66330000  0.62790000  0.62820000  1
  H  H58  1  0.74020000  0.06370000  0.90960000  1
  H  H59  1  0.74020000  0.56370000  0.59040000  1
  H  H60  1  0.74380000  0.24000000  0.45730000  1
  H  H61  1  0.74380000  0.74000000  0.04270000  1
  H  H62  1  0.78940000  0.19350000  0.99700000  1
  H  H63  1  0.78940000  0.69350000  0.50300000  1
  H  H64  1  0.79600000  0.38280000  0.56690000  1
  H  H65  1  0.79600000  0.88280000  0.93310000  1
  H  H66  1  0.80780000  0.38800000  0.26030000  1
  H  H67  1  0.80780000  0.88800000  0.23970000  1
  H  H68  1  0.80910000  0.46800000  0.00620000  1
  H  H69  1  0.80910000  0.96800000  0.49380000  1
  H  H70  1  0.81390000  0.46500000  0.38940000  1
  H  H71  1  0.81390000  0.96500000  0.11060000  1
  H  H72  1  0.83920000  0.43930000  0.73080000  1
  H  H73  1  0.83920000  0.93930000  0.76920000  1
  H  H74  1  0.89590000  0.15280000  0.86490000  1
  H  H75  1  0.89590000  0.65280000  0.63510000  1
  H  H76  1  0.99530000  0.47840000  0.58410000  1
  H  H77  1  0.99530000  0.97840000  0.91590000  1
  H  H78  1  0.99890000  0.23560000  0.46870000  1
  H  H79  1  0.99890000  0.73560000  0.03130000  1
  C  C80  1  0.00120000  0.07330000  0.06371000  1
  C  C81  1  0.00120000  0.57330000  0.43629000  1
  C  C82  1  0.00370000  0.21710000  0.99197000  1
  C  C83  1  0.00370000  0.71710000  0.50803000  1
  C  C84  1  0.02300000  0.01880000  0.75802000  1
  C  C85  1  0.02300000  0.51880000  0.74198000  1
  C  C86  1  0.05560000  0.14510000  0.81550000  1
  C  C87  1  0.05560000  0.64510000  0.68450000  1
  C  C88  1  0.07170000  0.38110000  0.33819000  1
  C  C89  1  0.07170000  0.88110000  0.16181000  1
  C  C90  1  0.07640000  0.46740000  0.78636000  1
  C  C91  1  0.07640000  0.96740000  0.71364000  1
  C  C92  1  0.10500000  0.09470000  0.77529000  1
  C  C93  1  0.10500000  0.59470000  0.72471000  1
  C  C94  1  0.10630000  0.00940000  0.21928000  1
  C  C95  1  0.10630000  0.50940000  0.28072000  1
  C  C96  1  0.12100000  0.12510000  0.04857000  1
  C  C97  1  0.12100000  0.62510000  0.45143000  1
  C  C98  1  0.12380000  0.32510000  0.50962000  1
  C  C99  1  0.12380000  0.82510000  0.99038000  1
  C  C100  1  0.12540000  0.39410000  0.54543000  1
  C  C101  1  0.12540000  0.89410000  0.95457000  1
  C  C102  1  0.13310000  0.23190000  0.83151000  1
  C  C103  1  0.13310000  0.73190000  0.66849000  1
  C  C104  1  0.13460000  0.18870000  0.00899000  1
  C  C105  1  0.13460000  0.68870000  0.49101000  1
  C  C106  1  0.15200000  0.45830000  0.32139000  1
  C  C107  1  0.15200000  0.95830000  0.17861000  1
  C  C108  1  0.23340000  0.14160000  0.42891000  1
  C  C109  1  0.23340000  0.64160000  0.07109000  1
  C  C110  1  0.26230000  0.43890000  0.56611000  1
  C  C111  1  0.26230000  0.93890000  0.93389000  1
  C  C112  1  0.27180000  0.01270000  0.90071000  1
  C  C113  1  0.27180000  0.51270000  0.59929000  1
  C  C114  1  0.27190000  0.23050000  0.98898000  1
  C  C115  1  0.27190000  0.73050000  0.51102000  1
  C  C116  1  0.28070000  0.06300000  0.50855000  1
  C  C117  1  0.28070000  0.56300000  0.99145000  1
  C  C118  1  0.31340000  0.48220000  0.91190000  1
  C  C119  1  0.31340000  0.98220000  0.58810000  1
  C  C120  1  0.32660000  0.12500000  0.47123000  1
  C  C121  1  0.32660000  0.62500000  0.02877000  1
  C  C122  1  0.32810000  0.43570000  0.38247000  1
  C  C123  1  0.32810000  0.93570000  0.11753000  1
  C  C124  1  0.36720000  0.04740000  0.54869000  1
  C  C125  1  0.36720000  0.54740000  0.95131000  1
  C  C126  1  0.38890000  0.40270000  0.55005000  1
  C  C127  1  0.38890000  0.90270000  0.94995000  1
  C  C128  1  0.39840000  0.05590000  0.88307000  1
  C  C129  1  0.39840000  0.55590000  0.61693000  1
  C  C130  1  0.45280000  0.34280000  0.01671000  1
  C  C131  1  0.45280000  0.84280000  0.48329000  1
  C  C132  1  0.46000000  0.17360000  0.47774000  1
  C  C133  1  0.46000000  0.67360000  0.02226000  1
  C  C134  1  0.47350000  0.47760000  0.39907000  1
  C  C135  1  0.47350000  0.97760000  0.10093000  1
  C  C136  1  0.49260000  0.04260000  0.06319000  1
  C  C137  1  0.49260000  0.54260000  0.43681000  1
  C  C138  1  0.49970000  0.09470000  0.55366000  1
  C  C139  1  0.49970000  0.59470000  0.94634000  1
  C  C140  1  0.50030000  0.40530000  0.05366000  1
  C  C141  1  0.50030000  0.90530000  0.44634000  1
  C  C142  1  0.50740000  0.45740000  0.56319000  1
  C  C143  1  0.50740000  0.95740000  0.93681000  1
  C  C144  1  0.52650000  0.02240000  0.89907000  1
  C  C145  1  0.52650000  0.52240000  0.60093000  1
  C  C146  1  0.54000000  0.32640000  0.97774000  1
  C  C147  1  0.54000000  0.82640000  0.52226000  1
  C  C148  1  0.54720000  0.15720000  0.51671000  1
  C  C149  1  0.54720000  0.65720000  0.98329000  1
  C  C150  1  0.60160000  0.44410000  0.38307000  1
  C  C151  1  0.60160000  0.94410000  0.11693000  1
  C  C152  1  0.61110000  0.09730000  0.05005000  1
  C  C153  1  0.61110000  0.59730000  0.44995000  1
  C  C154  1  0.63280000  0.45260000  0.04869000  1
  C  C155  1  0.63280000  0.95260000  0.45131000  1
  C  C156  1  0.67190000  0.06430000  0.88247000  1
  C  C157  1  0.67190000  0.56430000  0.61753000  1
  C  C158  1  0.67340000  0.37500000  0.97123000  1
  C  C159  1  0.67340000  0.87500000  0.52877000  1
  C  C160  1  0.68660000  0.01780000  0.41190000  1
  C  C161  1  0.68660000  0.51780000  0.08810000  1
  C  C162  1  0.71930000  0.43700000  0.00855000  1
  C  C163  1  0.71930000  0.93700000  0.49145000  1
  C  C164  1  0.72810000  0.26950000  0.48898000  1
  C  C165  1  0.72810000  0.76950000  0.01102000  1
  C  C166  1  0.72820000  0.48730000  0.40071000  1
  C  C167  1  0.72820000  0.98730000  0.09929000  1
  C  C168  1  0.73770000  0.06110000  0.06611000  1
  C  C169  1  0.73770000  0.56110000  0.43389000  1
  C  C170  1  0.76660000  0.35840000  0.92891000  1
  C  C171  1  0.76660000  0.85840000  0.57109000  1
  C  C172  1  0.84800000  0.04170000  0.82139000  1
  C  C173  1  0.84800000  0.54170000  0.67861000  1
  C  C174  1  0.86540000  0.31130000  0.50899000  1
  C  C175  1  0.86540000  0.81130000  0.99101000  1
  C  C176  1  0.86690000  0.26810000  0.33151000  1
  C  C177  1  0.86690000  0.76810000  0.16849000  1
  C  C178  1  0.87460000  0.10590000  0.04543000  1
  C  C179  1  0.87460000  0.60590000  0.45457000  1
  C  C180  1  0.87620000  0.17490000  0.00962000  1
  C  C181  1  0.87620000  0.67490000  0.49038000  1
  C  C182  1  0.87900000  0.37490000  0.54857000  1
  C  C183  1  0.87900000  0.87490000  0.95143000  1
  C  C184  1  0.89370000  0.49060000  0.71928000  1
  C  C185  1  0.89370000  0.99060000  0.78072000  1
  C  C186  1  0.89500000  0.40530000  0.27529000  1
  C  C187  1  0.89500000  0.90530000  0.22471000  1
  C  C188  1  0.92360000  0.03260000  0.28636000  1
  C  C189  1  0.92360000  0.53260000  0.21364000  1
  C  C190  1  0.92830000  0.11890000  0.83819000  1
  C  C191  1  0.92830000  0.61890000  0.66181000  1
  C  C192  1  0.94440000  0.35490000  0.31550000  1
  C  C193  1  0.94440000  0.85490000  0.18450000  1
  C  C194  1  0.97700000  0.48120000  0.25802000  1
  C  C195  1  0.97700000  0.98120000  0.24198000  1
  C  C196  1  0.99630000  0.28290000  0.49197000  1
  C  C197  1  0.99630000  0.78290000  0.00803000  1
  C  C198  1  0.99880000  0.42670000  0.56371000  1
  C  C199  1  0.99880000  0.92670000  0.93629000  1
  O  O200  1  0.02170000  0.07204000  0.31395000  1
  O  O201  1  0.02170000  0.57204000  0.18605000  1
  O  O202  1  0.09990000  0.26319000  0.87184000  1
  O  O203  1  0.09990000  0.76319000  0.62816000  1
  O  O204  1  0.11150000  0.09659000  0.42869000  1
  O  O205  1  0.11150000  0.59659000  0.07131000  1
  O  O206  1  0.18420000  0.45950000  0.91416000  1
  O  O207  1  0.18420000  0.95950000  0.58584000  1
  O  O208  1  0.20680000  0.47055000  0.79468000  1
  O  O209  1  0.20680000  0.97055000  0.70532000  1
  O  O210  1  0.22860000  0.26713000  0.80329000  1
  O  O211  1  0.22860000  0.76713000  0.69671000  1
  O  O212  1  0.26690000  0.19870000  0.39478000  1
  O  O213  1  0.26690000  0.69870000  0.10522000  1
  O  O214  1  0.28190000  0.48999000  0.34276000  1
  O  O215  1  0.28190000  0.98999000  0.15724000  1
  O  O216  1  0.32300000  0.29906000  0.02597000  1
  O  O217  1  0.32300000  0.79906000  0.47403000  1
  O  O218  1  0.39980000  0.45442000  0.87995000  1
  O  O219  1  0.39980000  0.95442000  0.62005000  1
  O  O220  1  0.60020000  0.04558000  0.37995000  1
  O  O221  1  0.60020000  0.54558000  0.12005000  1
  O  O222  1  0.67700000  0.20094000  0.52597000  1
  O  O223  1  0.67700000  0.70094000  0.97403000  1
  O  O224  1  0.71810000  0.01001000  0.84276000  1
  O  O225  1  0.71810000  0.51001000  0.65724000  1
  O  O226  1  0.73310000  0.30130000  0.89478000  1
  O  O227  1  0.73310000  0.80130000  0.60522000  1
  O  O228  1  0.77140000  0.23287000  0.30329000  1
  O  O229  1  0.77140000  0.73287000  0.19671000  1
  O  O230  1  0.79320000  0.02945000  0.29468000  1
  O  O231  1  0.79320000  0.52945000  0.20532000  1
  O  O232  1  0.81580000  0.04050000  0.41416000  1
  O  O233  1  0.81580000  0.54050000  0.08584000  1
  O  O234  1  0.88850000  0.40341000  0.92869000  1
  O  O235  1  0.88850000  0.90341000  0.57131000  1
  O  O236  1  0.90010000  0.23681000  0.37184000  1
  O  O237  1  0.90010000  0.73681000  0.12816000  1
  O  O238  1  0.97830000  0.42796000  0.81395000  1
  O  O239  1  0.97830000  0.92796000  0.68605000  1
