# generated using pymatgen
data_ZnH3C8SO7
_symmetry_space_group_name_H-M   'P 1'
_cell_length_a   11.28960000
_cell_length_b   12.10490000
_cell_length_c   12.42750072
_cell_angle_alpha   90.00000000
_cell_angle_beta   94.25512766
_cell_angle_gamma   90.00000000
_symmetry_Int_Tables_number   1
_chemical_formula_structural   ZnH3C8SO7
_chemical_formula_sum   'Zn4 H12 C32 S4 O28'
_cell_volume   1693.65439391
_cell_formula_units_Z   4
loop_
 _symmetry_equiv_pos_site_id
 _symmetry_equiv_pos_as_xyz
  1  'x, y, z'
loop_
 _atom_site_type_symbol
 _atom_site_label
 _atom_site_symmetry_multiplicity
 _atom_site_fract_x
 _atom_site_fract_y
 _atom_site_fract_z
 _atom_site_occupancy
  Zn  Zn0  1  0.84034000  0.47529000  0.01902000  1
  Zn  Zn1  1  0.34034000  0.02471000  0.51902000  1
  Zn  Zn2  1  0.65966000  0.97529000  0.48098000  1
  Zn  Zn3  1  0.15966000  0.52471000  0.98098000  1
  H  H4  1  0.32400000  0.27910000  0.34300000  1
  H  H5  1  0.82400000  0.22090000  0.84300000  1
  H  H6  1  0.04290000  0.97890000  0.37610000  1
  H  H7  1  0.54290000  0.52110000  0.87610000  1
  H  H8  1  0.34090000  0.76170000  0.73820000  1
  H  H9  1  0.84090000  0.73830000  0.23820000  1
  H  H10  1  0.15910000  0.26170000  0.76180000  1
  H  H11  1  0.65910000  0.23830000  0.26180000  1
  H  H12  1  0.45710000  0.47890000  0.12390000  1
  H  H13  1  0.95710000  0.02110000  0.62390000  1
  H  H14  1  0.17600000  0.77910000  0.15700000  1
  H  H15  1  0.67600000  0.72090000  0.65700000  1
  C  C16  1  0.11342000  0.79983000  0.19722000  1
  C  C17  1  0.61342000  0.70017000  0.69722000  1
  C  C18  1  0.49266000  0.85295000  0.61146000  1
  C  C19  1  0.99266000  0.64705000  0.11146000  1
  C  C20  1  0.12580000  0.88758000  0.26820000  1
  C  C21  1  0.62580000  0.61242000  0.76820000  1
  C  C22  1  0.50599000  0.75714000  0.68669000  1
  C  C23  1  0.00599000  0.74286000  0.18669000  1
  C  C24  1  0.03306000  0.92009000  0.32816000  1
  C  C25  1  0.53306000  0.57991000  0.82816000  1
  C  C26  1  0.91278000  0.77597000  0.24588000  1
  C  C27  1  0.41278000  0.72403000  0.74588000  1
  C  C28  1  0.92561000  0.86461000  0.31631000  1
  C  C29  1  0.42561000  0.63539000  0.81631000  1
  C  C30  1  0.67660000  0.40080000  0.12190000  1
  C  C31  1  0.17660000  0.09920000  0.62190000  1
  C  C32  1  0.82340000  0.90080000  0.37810000  1
  C  C33  1  0.32340000  0.59920000  0.87810000  1
  C  C34  1  0.57439000  0.36461000  0.18369000  1
  C  C35  1  0.07439000  0.13539000  0.68369000  1
  C  C36  1  0.58722000  0.27597000  0.25412000  1
  C  C37  1  0.08722000  0.22403000  0.75412000  1
  C  C38  1  0.46694000  0.42009000  0.17184000  1
  C  C39  1  0.96694000  0.07991000  0.67184000  1
  C  C40  1  0.99401000  0.25714000  0.81331000  1
  C  C41  1  0.49401000  0.24286000  0.31331000  1
  C  C42  1  0.37420000  0.38758000  0.23180000  1
  C  C43  1  0.87420000  0.11242000  0.73180000  1
  C  C44  1  0.00734000  0.35295000  0.88854000  1
  C  C45  1  0.50734000  0.14705000  0.38854000  1
  C  C46  1  0.38658000  0.29983000  0.30278000  1
  C  C47  1  0.88658000  0.20017000  0.80278000  1
  S  S48  1  0.26131000  0.96244000  0.28416000  1
  S  S49  1  0.76131000  0.53756000  0.78416000  1
  S  S50  1  0.23869000  0.46244000  0.21584000  1
  S  S51  1  0.73869000  0.03756000  0.71584000  1
  O  O52  1  0.93867000  0.35866000  0.96261000  1
  O  O53  1  0.43867000  0.14134000  0.46261000  1
  O  O54  1  0.73000000  0.42380000  0.78540000  1
  O  O55  1  0.23000000  0.07620000  0.28540000  1
  O  O56  1  0.31648000  0.92544000  0.38928000  1
  O  O57  1  0.81648000  0.57456000  0.88928000  1
  O  O58  1  0.16955000  0.42960000  0.30265000  1
  O  O59  1  0.66955000  0.07040000  0.80265000  1
  O  O60  1  0.41156000  0.92149000  0.62746000  1
  O  O61  1  0.91156000  0.57851000  0.12746000  1
  O  O62  1  0.77322000  0.35415000  0.13532000  1
  O  O63  1  0.27322000  0.14585000  0.63532000  1
  O  O64  1  0.66303000  0.48006000  0.05763000  1
  O  O65  1  0.16303000  0.01994000  0.55763000  1
  O  O66  1  0.83697000  0.98006000  0.44237000  1
  O  O67  1  0.33697000  0.51994000  0.94237000  1
  O  O68  1  0.72678000  0.85415000  0.36468000  1
  O  O69  1  0.22678000  0.64585000  0.86468000  1
  O  O70  1  0.08844000  0.42149000  0.87254000  1
  O  O71  1  0.58844000  0.07851000  0.37254000  1
  O  O72  1  0.33045000  0.92960000  0.19735000  1
  O  O73  1  0.83045000  0.57040000  0.69735000  1
  O  O74  1  0.18352000  0.42544000  0.11072000  1
  O  O75  1  0.68352000  0.07456000  0.61072000  1
  O  O76  1  0.77000000  0.92380000  0.71460000  1
  O  O77  1  0.27000000  0.57620000  0.21460000  1
  O  O78  1  0.56133000  0.85866000  0.53739000  1
  O  O79  1  0.06133000  0.64134000  0.03739000  1
