# generated using pymatgen
data_Ag5H28(C2N)14
_symmetry_space_group_name_H-M   'P 1'
_cell_length_a   12.54020000
_cell_length_b   15.59421519
_cell_length_c   15.59421519
_cell_angle_alpha   83.09285331
_cell_angle_beta   84.04359877
_cell_angle_gamma   84.04359877
_symmetry_Int_Tables_number   1
_chemical_formula_structural   Ag5H28(C2N)14
_chemical_formula_sum   'Ag10 H56 C56 N28'
_cell_volume   2998.14567322
_cell_formula_units_Z   2
loop_
 _symmetry_equiv_pos_site_id
 _symmetry_equiv_pos_as_xyz
  1  'x, y, z'
loop_
 _atom_site_type_symbol
 _atom_site_label
 _atom_site_symmetry_multiplicity
 _atom_site_fract_x
 _atom_site_fract_y
 _atom_site_fract_z
 _atom_site_occupancy
  Ag  Ag0  1  0.25000000  0.09000000  0.91000000  1
  Ag  Ag1  1  0.75000000  0.19250000  0.80750000  1
  Ag  Ag2  1  0.25000000  0.44590000  0.55410000  1
  Ag  Ag3  1  0.75000000  0.55410000  0.44590000  1
  Ag  Ag4  1  0.25000000  0.80750000  0.19250000  1
  Ag  Ag5  1  0.75000000  0.91000000  0.09000000  1
  Ag  Ag6  1  0.93500000  0.18670000  0.33970000  1
  Ag  Ag7  1  0.43500000  0.33970000  0.18670000  1
  Ag  Ag8  1  0.06500000  0.81330000  0.66030000  1
  Ag  Ag9  1  0.56500000  0.66030000  0.81330000  1
  C  C10  1  0.67000000  0.31800000  0.63800000  1
  C  C11  1  0.17000000  0.63800000  0.31800000  1
  C  C12  1  0.18000000  0.20600000  0.74600000  1
  C  C13  1  0.17900000  0.27400000  0.67800000  1
  C  C14  1  0.67900000  0.67800000  0.27400000  1
  C  C15  1  0.68000000  0.74600000  0.20600000  1
  C  C16  1  0.67200000  0.37500000  0.57100000  1
  C  C17  1  0.17200000  0.57100000  0.37500000  1
  C  C18  1  0.47300000  0.97900000  0.92700000  1
  C  C19  1  0.97300000  0.92700000  0.97900000  1
  C  C20  1  0.06800000  0.96100000  0.94300000  1
  C  C21  1  0.56800000  0.94300000  0.96100000  1
  C  C22  1  0.05300000  0.37200000  0.48800000  1
  C  C23  1  0.55300000  0.48800000  0.37200000  1
  C  C24  1  0.82600000  0.98900000  0.79500000  1
  C  C25  1  0.98400000  0.32900000  0.45500000  1
  C  C26  1  0.48400000  0.45500000  0.32900000  1
  C  C27  1  0.32600000  0.79500000  0.98900000  1
  C  C28  1  0.91500000  0.07700000  0.69100000  1
  C  C29  1  0.41500000  0.69100000  0.07700000  1
  C  C30  1  0.18500000  0.34900000  0.39100000  1
  C  C31  1  0.68500000  0.39100000  0.34900000  1
  C  C32  1  0.88700000  0.92600000  0.76800000  1
  C  C33  1  0.38700000  0.76800000  0.92600000  1
  C  C34  1  0.96800000  0.00700000  0.65700000  1
  C  C35  1  0.46800000  0.65700000  0.00700000  1
  C  C36  1  0.12300000  0.30600000  0.35400000  1
  C  C37  1  0.62300000  0.35400000  0.30600000  1
  C  C38  1  0.87700000  0.69400000  0.64600000  1
  C  C39  1  0.37700000  0.64600000  0.69400000  1
  C  C40  1  0.03200000  0.99300000  0.34300000  1
  C  C41  1  0.53200000  0.34300000  0.99300000  1
  C  C42  1  0.11300000  0.07400000  0.23200000  1
  C  C43  1  0.61300000  0.23200000  0.07400000  1
  C  C44  1  0.81500000  0.65100000  0.60900000  1
  C  C45  1  0.31500000  0.60900000  0.65100000  1
  C  C46  1  0.08500000  0.92300000  0.30900000  1
  C  C47  1  0.58500000  0.30900000  0.92300000  1
  C  C48  1  0.01600000  0.67100000  0.54500000  1
  C  C49  1  0.17400000  0.01100000  0.20500000  1
  C  C50  1  0.67400000  0.20500000  0.01100000  1
  C  C51  1  0.51600000  0.54500000  0.67100000  1
  C  C52  1  0.94700000  0.62800000  0.51200000  1
  C  C53  1  0.44700000  0.51200000  0.62800000  1
  C  C54  1  0.93200000  0.03900000  0.05700000  1
  C  C55  1  0.43200000  0.05700000  0.03900000  1
  C  C56  1  0.52700000  0.02100000  0.07300000  1
  C  C57  1  0.02700000  0.07300000  0.02100000  1
  C  C58  1  0.32800000  0.62500000  0.42900000  1
  C  C59  1  0.82800000  0.42900000  0.62500000  1
  C  C60  1  0.82100000  0.72600000  0.32200000  1
  C  C61  1  0.82000000  0.79400000  0.25400000  1
  C  C62  1  0.32000000  0.25400000  0.79400000  1
  C  C63  1  0.32100000  0.32200000  0.72600000  1
  C  C64  1  0.33000000  0.68200000  0.36200000  1
  C  C65  1  0.83000000  0.36200000  0.68200000  1
  H  H66  1  0.02440000  0.39690000  0.53790000  1
  H  H67  1  0.52440000  0.53790000  0.39690000  1
  H  H68  1  0.61180000  0.28450000  0.64770000  1
  H  H69  1  0.11180000  0.64770000  0.28450000  1
  H  H70  1  0.12810000  0.27960000  0.63840000  1
  H  H71  1  0.62810000  0.63840000  0.27960000  1
  H  H72  1  0.12850000  0.16650000  0.75050000  1
  H  H73  1  0.62850000  0.75050000  0.16650000  1
  H  H74  1  0.62310000  0.37510000  0.53070000  1
  H  H75  1  0.12310000  0.53070000  0.37510000  1
  H  H76  1  0.45730000  0.96330000  0.87450000  1
  H  H77  1  0.95730000  0.87450000  0.96330000  1
  H  H78  1  0.11310000  0.93260000  0.90180000  1
  H  H79  1  0.61310000  0.90180000  0.93260000  1
  H  H80  1  0.77000000  0.97960000  0.83720000  1
  H  H81  1  0.27000000  0.83720000  0.97960000  1
  H  H82  1  0.91360000  0.32910000  0.47910000  1
  H  H83  1  0.41360000  0.47910000  0.32910000  1
  H  H84  1  0.92810000  0.13140000  0.66320000  1
  H  H85  1  0.42810000  0.66320000  0.13140000  1
  H  H86  1  0.25500000  0.35570000  0.36690000  1
  H  H87  1  0.75500000  0.36690000  0.35570000  1
  H  H88  1  0.87750000  0.87130000  0.79670000  1
  H  H89  1  0.37750000  0.79670000  0.87130000  1
  H  H90  1  0.00810000  0.01280000  0.60340000  1
  H  H91  1  0.50810000  0.60340000  0.01280000  1
  H  H92  1  0.15170000  0.28740000  0.30020000  1
  H  H93  1  0.65170000  0.30020000  0.28740000  1
  H  H94  1  0.84830000  0.71260000  0.69980000  1
  H  H95  1  0.34830000  0.69980000  0.71260000  1
  H  H96  1  0.99190000  0.98720000  0.39660000  1
  H  H97  1  0.49190000  0.39660000  0.98720000  1
  H  H98  1  0.12250000  0.12870000  0.20330000  1
  H  H99  1  0.62250000  0.20330000  0.12870000  1
  H  H100  1  0.74500000  0.64430000  0.63310000  1
  H  H101  1  0.24500000  0.63310000  0.64430000  1
  H  H102  1  0.07190000  0.86860000  0.33680000  1
  H  H103  1  0.57190000  0.33680000  0.86860000  1
  H  H104  1  0.08640000  0.67090000  0.52090000  1
  H  H105  1  0.58640000  0.52090000  0.67090000  1
  H  H106  1  0.23000000  0.02040000  0.16280000  1
  H  H107  1  0.73000000  0.16280000  0.02040000  1
  H  H108  1  0.88690000  0.06740000  0.09820000  1
  H  H109  1  0.38690000  0.09820000  0.06740000  1
  H  H110  1  0.54270000  0.03670000  0.12550000  1
  H  H111  1  0.04270000  0.12550000  0.03670000  1
  H  H112  1  0.37690000  0.62490000  0.46930000  1
  H  H113  1  0.87690000  0.46930000  0.62490000  1
  H  H114  1  0.87150000  0.83350000  0.24950000  1
  H  H115  1  0.37150000  0.24950000  0.83350000  1
  H  H116  1  0.87190000  0.72040000  0.36160000  1
  H  H117  1  0.37190000  0.36160000  0.72040000  1
  H  H118  1  0.38820000  0.71550000  0.35230000  1
  H  H119  1  0.88820000  0.35230000  0.71550000  1
  H  H120  1  0.97560000  0.60310000  0.46210000  1
  H  H121  1  0.47560000  0.46210000  0.60310000  1
  N  N122  1  0.25000000  0.19700000  0.80300000  1
  N  N123  1  0.75000000  0.30200000  0.69800000  1
  N  N124  1  0.25000000  0.32900000  0.67100000  1
  N  N125  1  0.75000000  0.44300000  0.55700000  1
  N  N126  1  0.25000000  0.55700000  0.44300000  1
  N  N127  1  0.75000000  0.67100000  0.32900000  1
  N  N128  1  0.25000000  0.69800000  0.30200000  1
  N  N129  1  0.75000000  0.80300000  0.19700000  1
  N  N130  1  0.09500000  0.03320000  0.96560000  1
  N  N131  1  0.59500000  0.96560000  0.03320000  1
  N  N132  1  0.14700000  0.38600000  0.46400000  1
  N  N133  1  0.64700000  0.46400000  0.38600000  1
  N  N134  1  0.84500000  0.07400000  0.76200000  1
  N  N135  1  0.34500000  0.76200000  0.07400000  1
  N  N136  1  0.01700000  0.28300000  0.38300000  1
  N  N137  1  0.51700000  0.38300000  0.28300000  1
  N  N138  1  0.96200000  0.92920000  0.70320000  1
  N  N139  1  0.46200000  0.70320000  0.92920000  1
  N  N140  1  0.03800000  0.07080000  0.29680000  1
  N  N141  1  0.53800000  0.29680000  0.07080000  1
  N  N142  1  0.98300000  0.71700000  0.61700000  1
  N  N143  1  0.48300000  0.61700000  0.71700000  1
  N  N144  1  0.15500000  0.92600000  0.23800000  1
  N  N145  1  0.65500000  0.23800000  0.92600000  1
  N  N146  1  0.85300000  0.61400000  0.53600000  1
  N  N147  1  0.35300000  0.53600000  0.61400000  1
  N  N148  1  0.90500000  0.96680000  0.03440000  1
  N  N149  1  0.40500000  0.03440000  0.96680000  1
