# generated using pymatgen
data_DyH9(C3O2)3
_symmetry_space_group_name_H-M   'P 1'
_cell_length_a   9.59830000
_cell_length_b   13.87890000
_cell_length_c   15.34430000
_cell_angle_alpha   90.00000000
_cell_angle_beta   93.45100000
_cell_angle_gamma   90.00000000
_symmetry_Int_Tables_number   1
_chemical_formula_structural   DyH9(C3O2)3
_chemical_formula_sum   'Dy4 H36 C36 O24'
_cell_volume   2040.36658032
_cell_formula_units_Z   4
loop_
 _symmetry_equiv_pos_site_id
 _symmetry_equiv_pos_as_xyz
  1  'x, y, z'
loop_
 _atom_site_type_symbol
 _atom_site_label
 _atom_site_symmetry_multiplicity
 _atom_site_fract_x
 _atom_site_fract_y
 _atom_site_fract_z
 _atom_site_occupancy
  Dy  Dy0  1  0.04247000  0.88872000  0.91421000  1
  Dy  Dy1  1  0.45753000  0.38872000  0.58579000  1
  Dy  Dy2  1  0.54247000  0.61128000  0.41421000  1
  Dy  Dy3  1  0.95753000  0.11128000  0.08579000  1
  H  H4  1  0.01540000  0.26480000  0.35530000  1
  H  H5  1  0.05210000  0.53660000  0.32580000  1
  H  H6  1  0.05220000  0.53820000  0.42810000  1
  H  H7  1  0.09060000  0.59660000  0.57450000  1
  H  H8  1  0.10450000  0.59110000  0.75690000  1
  H  H9  1  0.16270000  0.38960000  0.43630000  1
  H  H10  1  0.16830000  0.39290000  0.25200000  1
  H  H11  1  0.18970000  0.66220000  0.70100000  1
  H  H12  1  0.23580000  0.31180000  0.31220000  1
  H  H13  1  0.26420000  0.81180000  0.18780000  1
  H  H14  1  0.31030000  0.16220000  0.79900000  1
  H  H15  1  0.33170000  0.89290000  0.24800000  1
  H  H16  1  0.33730000  0.88960000  0.06370000  1
  H  H17  1  0.39550000  0.09110000  0.74310000  1
  H  H18  1  0.40940000  0.09660000  0.92550000  1
  H  H19  1  0.44780000  0.03820000  0.07190000  1
  H  H20  1  0.44790000  0.03660000  0.17420000  1
  H  H21  1  0.48460000  0.76480000  0.14470000  1
  H  H22  1  0.51540000  0.23520000  0.85530000  1
  H  H23  1  0.55210000  0.96340000  0.82580000  1
  H  H24  1  0.55220000  0.96180000  0.92810000  1
  H  H25  1  0.59060000  0.90340000  0.07450000  1
  H  H26  1  0.60450000  0.90890000  0.25690000  1
  H  H27  1  0.66270000  0.11040000  0.93630000  1
  H  H28  1  0.66830000  0.10710000  0.75200000  1
  H  H29  1  0.68970000  0.83780000  0.20100000  1
  H  H30  1  0.73580000  0.18820000  0.81220000  1
  H  H31  1  0.76420000  0.68820000  0.68780000  1
  H  H32  1  0.81030000  0.33780000  0.29900000  1
  H  H33  1  0.83170000  0.60710000  0.74800000  1
  H  H34  1  0.83730000  0.61040000  0.56370000  1
  H  H35  1  0.89550000  0.40890000  0.24310000  1
  H  H36  1  0.90940000  0.40340000  0.42550000  1
  H  H37  1  0.94780000  0.46180000  0.57190000  1
  H  H38  1  0.94790000  0.46340000  0.67420000  1
  H  H39  1  0.98460000  0.73520000  0.64470000  1
  C  C40  1  0.00370000  0.23460000  0.22440000  1
  C  C41  1  0.01960000  0.30290000  0.30180000  1
  C  C42  1  0.04670000  0.49650000  0.37720000  1
  C  C43  1  0.09210000  0.55680000  0.62730000  1
  C  C44  1  0.10300000  0.62650000  0.70240000  1
  C  C45  1  0.15940000  0.35750000  0.30600000  1
  C  C46  1  0.16810000  0.42730000  0.38260000  1
  C  C47  1  0.19410000  0.98130000  0.11180000  1
  C  C48  1  0.21910000  0.49110000  0.62230000  1
  C  C49  1  0.28090000  0.99110000  0.87770000  1
  C  C50  1  0.30590000  0.48130000  0.38820000  1
  C  C51  1  0.33190000  0.92730000  0.11740000  1
  C  C52  1  0.34060000  0.85750000  0.19400000  1
  C  C53  1  0.39700000  0.12650000  0.79760000  1
  C  C54  1  0.40790000  0.05680000  0.87270000  1
  C  C55  1  0.45330000  0.99650000  0.12280000  1
  C  C56  1  0.48040000  0.80290000  0.19820000  1
  C  C57  1  0.49630000  0.73460000  0.27560000  1
  C  C58  1  0.50370000  0.26540000  0.72440000  1
  C  C59  1  0.51960000  0.19710000  0.80180000  1
  C  C60  1  0.54670000  0.00350000  0.87720000  1
  C  C61  1  0.59210000  0.94320000  0.12730000  1
  C  C62  1  0.60300000  0.87350000  0.20240000  1
  C  C63  1  0.65940000  0.14250000  0.80600000  1
  C  C64  1  0.66810000  0.07270000  0.88260000  1
  C  C65  1  0.69410000  0.51870000  0.61180000  1
  C  C66  1  0.71910000  0.00890000  0.12230000  1
  C  C67  1  0.78090000  0.50890000  0.37770000  1
  C  C68  1  0.80590000  0.01870000  0.88820000  1
  C  C69  1  0.83190000  0.57270000  0.61740000  1
  C  C70  1  0.84060000  0.64250000  0.69400000  1
  C  C71  1  0.89700000  0.37350000  0.29760000  1
  C  C72  1  0.90790000  0.44320000  0.37270000  1
  C  C73  1  0.95330000  0.50350000  0.62280000  1
  C  C74  1  0.98040000  0.69710000  0.69820000  1
  C  C75  1  0.99630000  0.76540000  0.77560000  1
  O  O76  1  0.06610000  0.24790000  0.15780000  1
  O  O77  1  0.07710000  0.83620000  0.76760000  1
  O  O78  1  0.10620000  0.96250000  0.04930000  1
  O  O79  1  0.16090000  0.02980000  0.86470000  1
  O  O80  1  0.16740000  0.04440000  0.16520000  1
  O  O81  1  0.20500000  0.40550000  0.60250000  1
  O  O82  1  0.29500000  0.90550000  0.89750000  1
  O  O83  1  0.33260000  0.54440000  0.33480000  1
  O  O84  1  0.33910000  0.52980000  0.63530000  1
  O  O85  1  0.39380000  0.46250000  0.45070000  1
  O  O86  1  0.42290000  0.33620000  0.73240000  1
  O  O87  1  0.43390000  0.74790000  0.34220000  1
  O  O88  1  0.56610000  0.25210000  0.65780000  1
  O  O89  1  0.57710000  0.66380000  0.26760000  1
  O  O90  1  0.60620000  0.53750000  0.54930000  1
  O  O91  1  0.66090000  0.47020000  0.36470000  1
  O  O92  1  0.66740000  0.45560000  0.66520000  1
  O  O93  1  0.70500000  0.09450000  0.10250000  1
  O  O94  1  0.79500000  0.59450000  0.39750000  1
  O  O95  1  0.83260000  0.95560000  0.83480000  1
  O  O96  1  0.83910000  0.97020000  0.13530000  1
  O  O97  1  0.89380000  0.03750000  0.95070000  1
  O  O98  1  0.92290000  0.16380000  0.23240000  1
  O  O99  1  0.93390000  0.75210000  0.84220000  1
