# generated using pymatgen
data_TmH3(C3O2)3
_symmetry_space_group_name_H-M   'P 1'
_cell_length_a   10.86620000
_cell_length_b   10.86620000
_cell_length_c   19.63200000
_cell_angle_alpha   75.61050000
_cell_angle_beta   75.61050000
_cell_angle_gamma   64.47650000
_symmetry_Int_Tables_number   1
_chemical_formula_structural   TmH3(C3O2)3
_chemical_formula_sum   'Tm4 H12 C36 O24'
_cell_volume   1999.49219733
_cell_formula_units_Z   4
loop_
 _symmetry_equiv_pos_site_id
 _symmetry_equiv_pos_as_xyz
  1  'x, y, z'
loop_
 _atom_site_type_symbol
 _atom_site_label
 _atom_site_symmetry_multiplicity
 _atom_site_fract_x
 _atom_site_fract_y
 _atom_site_fract_z
 _atom_site_occupancy
  Tm  Tm0  1  0.24564000  0.90420000  0.41693000  1
  Tm  Tm1  1  0.09580000  0.75436000  0.08307000  1
  Tm  Tm2  1  0.90420000  0.24564000  0.91693000  1
  Tm  Tm3  1  0.75436000  0.09580000  0.58307000  1
  H  H4  1  0.15480000  0.98140000  0.17250000  1
  H  H5  1  0.66760000  0.90160000  0.46800000  1
  H  H6  1  0.01860000  0.84520000  0.32750000  1
  H  H7  1  0.70170000  0.80770000  0.27690000  1
  H  H8  1  0.80770000  0.70170000  0.77690000  1
  H  H9  1  0.90160000  0.66760000  0.96800000  1
  H  H10  1  0.09840000  0.33240000  0.03200000  1
  H  H11  1  0.19230000  0.29830000  0.22310000  1
  H  H12  1  0.29830000  0.19230000  0.72310000  1
  H  H13  1  0.98140000  0.15480000  0.67250000  1
  H  H14  1  0.33240000  0.09840000  0.53200000  1
  H  H15  1  0.84520000  0.01860000  0.82750000  1
  C  C16  1  0.79560000  0.95520000  0.71700000  1
  C  C17  1  0.84820000  0.92900000  0.83920000  1
  C  C18  1  0.90870000  0.91510000  0.95620000  1
  C  C19  1  0.91510000  0.90870000  0.45620000  1
  C  C20  1  0.71870000  0.88230000  0.42350000  1
  C  C21  1  0.85240000  0.87820000  0.40480000  1
  C  C22  1  0.82200000  0.87180000  0.78960000  1
  C  C23  1  0.51540000  0.86820000  0.39210000  1
  C  C24  1  0.66340000  0.85700000  0.37460000  1
  C  C25  1  0.87820000  0.85240000  0.90480000  1
  C  C26  1  0.92900000  0.84820000  0.33920000  1
  C  C27  1  0.74020000  0.82600000  0.30870000  1
  C  C28  1  0.87180000  0.82200000  0.28960000  1
  C  C29  1  0.95520000  0.79560000  0.21700000  1
  C  C30  1  0.82600000  0.74020000  0.80870000  1
  C  C31  1  0.88230000  0.71870000  0.92350000  1
  C  C32  1  0.85700000  0.66340000  0.87460000  1
  C  C33  1  0.86820000  0.51540000  0.89210000  1
  C  C34  1  0.13180000  0.48460000  0.10790000  1
  C  C35  1  0.14300000  0.33660000  0.12540000  1
  C  C36  1  0.11770000  0.28130000  0.07650000  1
  C  C37  1  0.17400000  0.25980000  0.19130000  1
  C  C38  1  0.04480000  0.20440000  0.78300000  1
  C  C39  1  0.12820000  0.17800000  0.71040000  1
  C  C40  1  0.25980000  0.17400000  0.69130000  1
  C  C41  1  0.07100000  0.15180000  0.66080000  1
  C  C42  1  0.12180000  0.14760000  0.09520000  1
  C  C43  1  0.33660000  0.14300000  0.62540000  1
  C  C44  1  0.48460000  0.13180000  0.60790000  1
  C  C45  1  0.17800000  0.12820000  0.21040000  1
  C  C46  1  0.14760000  0.12180000  0.59520000  1
  C  C47  1  0.28130000  0.11770000  0.57650000  1
  C  C48  1  0.08490000  0.09130000  0.54380000  1
  C  C49  1  0.09130000  0.08490000  0.04380000  1
  C  C50  1  0.15180000  0.07100000  0.16080000  1
  C  C51  1  0.20440000  0.04480000  0.28300000  1
  O  O52  1  0.07970000  0.97250000  0.06630000  1
  O  O53  1  0.21640000  0.92320000  0.29660000  1
  O  O54  1  0.02750000  0.92030000  0.43370000  1
  O  O55  1  0.85030000  0.91870000  0.51900000  1
  O  O56  1  0.44270000  0.90910000  0.44720000  1
  O  O57  1  0.79180000  0.89620000  0.66980000  1
  O  O58  1  0.91870000  0.85030000  0.01900000  1
  O  O59  1  0.47060000  0.83120000  0.35120000  1
  O  O60  1  0.89620000  0.79180000  0.16980000  1
  O  O61  1  0.07680000  0.78360000  0.20340000  1
  O  O62  1  0.09090000  0.55730000  0.05280000  1
  O  O63  1  0.16880000  0.52940000  0.14880000  1
  O  O64  1  0.83120000  0.47060000  0.85120000  1
  O  O65  1  0.90910000  0.44270000  0.94720000  1
  O  O66  1  0.92320000  0.21640000  0.79660000  1
  O  O67  1  0.10380000  0.20820000  0.83020000  1
  O  O68  1  0.52940000  0.16880000  0.64880000  1
  O  O69  1  0.08130000  0.14970000  0.98100000  1
  O  O70  1  0.20820000  0.10380000  0.33020000  1
  O  O71  1  0.55730000  0.09090000  0.55280000  1
  O  O72  1  0.14970000  0.08130000  0.48100000  1
  O  O73  1  0.97250000  0.07970000  0.56630000  1
  O  O74  1  0.78360000  0.07680000  0.70340000  1
  O  O75  1  0.92030000  0.02750000  0.93370000  1
