# generated using pymatgen
data_Co3H16C30(NO)8
_symmetry_space_group_name_H-M   'P 1'
_cell_length_a   9.25290000
_cell_length_b   10.63550000
_cell_length_c   11.04930000
_cell_angle_alpha   63.62200000
_cell_angle_beta   86.48900000
_cell_angle_gamma   74.90700000
_symmetry_Int_Tables_number   1
_chemical_formula_structural   Co3H16C30(NO)8
_chemical_formula_sum   'Co3 H16 C30 N8 O8'
_cell_volume   938.67173381
_cell_formula_units_Z   1
loop_
 _symmetry_equiv_pos_site_id
 _symmetry_equiv_pos_as_xyz
  1  'x, y, z'
loop_
 _atom_site_type_symbol
 _atom_site_label
 _atom_site_symmetry_multiplicity
 _atom_site_fract_x
 _atom_site_fract_y
 _atom_site_fract_z
 _atom_site_occupancy
  Co  Co0  1  0.22196000  0.27529000  0.48166000  1
  Co  Co1  1  0.50000000  0.50000000  0.50000000  1
  Co  Co2  1  0.77804000  0.72471000  0.51834000  1
  H  H3  1  0.11480000  0.78660000  0.68380000  1
  H  H4  1  0.14850000  0.99820000  0.67270000  1
  H  H5  1  0.27550000  0.89070000  0.31690000  1
  H  H6  1  0.30000000  0.10160000  0.31340000  1
  H  H7  1  0.30980000  0.38410000  0.06970000  1
  H  H8  1  0.33760000  0.96310000  0.87480000  1
  H  H9  1  0.37300000  0.46820000  0.84510000  1
  H  H10  1  0.40600000  0.79760000  0.09920000  1
  H  H11  1  0.59400000  0.20240000  0.90080000  1
  H  H12  1  0.62700000  0.53180000  0.15490000  1
  H  H13  1  0.66240000  0.03690000  0.12520000  1
  H  H14  1  0.69020000  0.61590000  0.93030000  1
  H  H15  1  0.70000000  0.89840000  0.68660000  1
  H  H16  1  0.72450000  0.10930000  0.68310000  1
  H  H17  1  0.85150000  0.00180000  0.32730000  1
  H  H18  1  0.88520000  0.21340000  0.31620000  1
  C  C19  1  0.05460000  0.53680000  0.49820000  1
  C  C20  1  0.15240000  0.84960000  0.60750000  1
  C  C21  1  0.16080000  0.68760000  0.49760000  1
  C  C22  1  0.17250000  0.97700000  0.59960000  1
  C  C23  1  0.18970000  0.81720000  0.49830000  1
  C  C24  1  0.24700000  0.91120000  0.38970000  1
  C  C25  1  0.26230000  0.03740000  0.38880000  1
  C  C26  1  0.38660000  0.43060000  0.04170000  1
  C  C27  1  0.40310000  0.97790000  0.92470000  1
  C  C28  1  0.41660000  0.20560000  0.71800000  1
  C  C29  1  0.42120000  0.39740000  0.27990000  1
  C  C30  1  0.42410000  0.48130000  0.90670000  1
  C  C31  1  0.44350000  0.87910000  0.05960000  1
  C  C32  1  0.46080000  0.09850000  0.86480000  1
  C  C33  1  0.46290000  0.44920000  0.13430000  1
  C  C34  1  0.53710000  0.55080000  0.86570000  1
  C  C35  1  0.53920000  0.90150000  0.13520000  1
  C  C36  1  0.55650000  0.12090000  0.94040000  1
  C  C37  1  0.57590000  0.51870000  0.09330000  1
  C  C38  1  0.57880000  0.60260000  0.72010000  1
  C  C39  1  0.58340000  0.79440000  0.28200000  1
  C  C40  1  0.59690000  0.02210000  0.07530000  1
  C  C41  1  0.61340000  0.56940000  0.95830000  1
  C  C42  1  0.73770000  0.96260000  0.61120000  1
  C  C43  1  0.75300000  0.08880000  0.61030000  1
  C  C44  1  0.81030000  0.18280000  0.50170000  1
  C  C45  1  0.82750000  0.02300000  0.40040000  1
  C  C46  1  0.83920000  0.31240000  0.50240000  1
  C  C47  1  0.84760000  0.15040000  0.39250000  1
  C  C48  1  0.94540000  0.46320000  0.50180000  1
  N  N49  1  0.02210000  0.66150000  0.50950000  1
  N  N50  1  0.19450000  0.48750000  0.47870000  1
  N  N51  1  0.22510000  0.07140000  0.49160000  1
  N  N52  1  0.26560000  0.58590000  0.47870000  1
  N  N53  1  0.73440000  0.41410000  0.52130000  1
  N  N54  1  0.77490000  0.92860000  0.50840000  1
  N  N55  1  0.80550000  0.51250000  0.52130000  1
  N  N56  1  0.97790000  0.33850000  0.49050000  1
  O  O57  1  0.31630000  0.33390000  0.30890000  1
  O  O58  1  0.32420000  0.17650000  0.66080000  1
  O  O59  1  0.47340000  0.30900000  0.66770000  1
  O  O60  1  0.49040000  0.41710000  0.35920000  1
  O  O61  1  0.50960000  0.58290000  0.64080000  1
  O  O62  1  0.52660000  0.69100000  0.33230000  1
  O  O63  1  0.67580000  0.82350000  0.33920000  1
  O  O64  1  0.68370000  0.66610000  0.69110000  1
