# generated using pymatgen
data_Na2Cd5H48C84(NO6)4
_symmetry_space_group_name_H-M   'P 1'
_cell_length_a   11.92800000
_cell_length_b   25.45000000
_cell_length_c   25.83500000
_cell_angle_alpha   116.77700000
_cell_angle_beta   90.00000000
_cell_angle_gamma   90.00000000
_symmetry_Int_Tables_number   1
_chemical_formula_structural   Na2Cd5H48C84(NO6)4
_chemical_formula_sum   'Na4 Cd10 H96 C168 N8 O48'
_cell_volume   7001.67399076
_cell_formula_units_Z   2
loop_
 _symmetry_equiv_pos_site_id
 _symmetry_equiv_pos_as_xyz
  1  'x, y, z'
loop_
 _atom_site_type_symbol
 _atom_site_label
 _atom_site_symmetry_multiplicity
 _atom_site_fract_x
 _atom_site_fract_y
 _atom_site_fract_z
 _atom_site_occupancy
  Na  Na0  1  0.51250000  0.97939000  0.92696000  1
  Na  Na1  1  0.48750000  0.97939000  0.42696000  1
  Na  Na2  1  0.51250000  0.02061000  0.57304000  1
  Na  Na3  1  0.48750000  0.02061000  0.07304000  1
  Cd  Cd4  1  0.74728000  0.92987000  0.98905000  1
  Cd  Cd5  1  0.25272000  0.92987000  0.48905000  1
  Cd  Cd6  1  0.82465000  0.52250000  0.90909000  1
  Cd  Cd7  1  0.17535000  0.52250000  0.40909000  1
  Cd  Cd8  1  0.76590000  0.50000000  0.75000000  1
  Cd  Cd9  1  0.23410000  0.50000000  0.25000000  1
  Cd  Cd10  1  0.82465000  0.47750000  0.59091000  1
  Cd  Cd11  1  0.17535000  0.47750000  0.09091000  1
  Cd  Cd12  1  0.74728000  0.07013000  0.51095000  1
  Cd  Cd13  1  0.25272000  0.07013000  0.01095000  1
  H  H14  1  0.54600000  0.93000000  0.61860000  1
  H  H15  1  0.45400000  0.93000000  0.11860000  1
  H  H16  1  0.68580000  0.88980000  0.64940000  1
  H  H17  1  0.31420000  0.88980000  0.14940000  1
  H  H18  1  0.89250000  0.87340000  0.44110000  1
  H  H19  1  0.10750000  0.87340000  0.94110000  1
  H  H20  1  0.56270000  0.86720000  0.43800000  1
  H  H21  1  0.43730000  0.86720000  0.93800000  1
  H  H22  1  0.56770000  0.86440000  0.79950000  1
  H  H23  1  0.43230000  0.86440000  0.29950000  1
  H  H24  1  0.89560000  0.83220000  0.79270000  1
  H  H25  1  0.10440000  0.83220000  0.29270000  1
  H  H26  1  0.56240000  0.81820000  0.70240000  1
  H  H27  1  0.43760000  0.81820000  0.20240000  1
  H  H28  1  0.88950000  0.79130000  0.69460000  1
  H  H29  1  0.11050000  0.79130000  0.19460000  1
  H  H30  1  0.90570000  0.77360000  0.39070000  1
  H  H31  1  0.09430000  0.77360000  0.89070000  1
  H  H32  1  0.55880000  0.76870000  0.00760000  1
  H  H33  1  0.44120000  0.76870000  0.50760000  1
  H  H34  1  0.56690000  0.76510000  0.38530000  1
  H  H35  1  0.43310000  0.76510000  0.88530000  1
  H  H36  1  0.79630000  0.76230000  0.52770000  1
  H  H37  1  0.20370000  0.76230000  0.02770000  1
  H  H38  1  0.56650000  0.72800000  0.54800000  1
  H  H39  1  0.43350000  0.72800000  0.04800000  1
  H  H40  1  0.83960000  0.71470000  0.27190000  1
  H  H41  1  0.16040000  0.71470000  0.77190000  1
  H  H42  1  0.63350000  0.70160000  0.44240000  1
  H  H43  1  0.36650000  0.70160000  0.94240000  1
  H  H44  1  0.92010000  0.69450000  0.46650000  1
  H  H45  1  0.07990000  0.69450000  0.96650000  1
  H  H46  1  0.79990000  0.68700000  0.63250000  1
  H  H47  1  0.20010000  0.68700000  0.13250000  1
  H  H48  1  0.97630000  0.65990000  0.20760000  1
  H  H49  1  0.02370000  0.65990000  0.70760000  1
  H  H50  1  0.51880000  0.64840000  0.94760000  1
  H  H51  1  0.48120000  0.64840000  0.44760000  1
  H  H52  1  0.92770000  0.61730000  0.57240000  1
  H  H53  1  0.07230000  0.61730000  0.07240000  1
  H  H54  1  0.84920000  0.60720000  0.34330000  1
  H  H55  1  0.15080000  0.60720000  0.84330000  1
  H  H56  1  0.64430000  0.60600000  0.27200000  1
  H  H57  1  0.35570000  0.60600000  0.77200000  1
  H  H58  1  0.98710000  0.55210000  0.28120000  1
  H  H59  1  0.01290000  0.55210000  0.78120000  1
  H  H60  1  0.50360000  0.55160000  0.77590000  1
  H  H61  1  0.49640000  0.55160000  0.27590000  1
  H  H62  1  0.50360000  0.44840000  0.72410000  1
  H  H63  1  0.49640000  0.44840000  0.22410000  1
  H  H64  1  0.98710000  0.44790000  0.21880000  1
  H  H65  1  0.01290000  0.44790000  0.71880000  1
  H  H66  1  0.64430000  0.39400000  0.22800000  1
  H  H67  1  0.35570000  0.39400000  0.72800000  1
  H  H68  1  0.84920000  0.39280000  0.15670000  1
  H  H69  1  0.15080000  0.39280000  0.65670000  1
  H  H70  1  0.92770000  0.38270000  0.92760000  1
  H  H71  1  0.07230000  0.38270000  0.42760000  1
  H  H72  1  0.51880000  0.35160000  0.55240000  1
  H  H73  1  0.48120000  0.35160000  0.05240000  1
  H  H74  1  0.97630000  0.34010000  0.29240000  1
  H  H75  1  0.02370000  0.34010000  0.79240000  1
  H  H76  1  0.79990000  0.31300000  0.86750000  1
  H  H77  1  0.20010000  0.31300000  0.36750000  1
  H  H78  1  0.92010000  0.30550000  0.03350000  1
  H  H79  1  0.07990000  0.30550000  0.53350000  1
  H  H80  1  0.63350000  0.29840000  0.05760000  1
  H  H81  1  0.36650000  0.29840000  0.55760000  1
  H  H82  1  0.83960000  0.28530000  0.22810000  1
  H  H83  1  0.16040000  0.28530000  0.72810000  1
  H  H84  1  0.56650000  0.27200000  0.95200000  1
  H  H85  1  0.43350000  0.27200000  0.45200000  1
  H  H86  1  0.79630000  0.23770000  0.97230000  1
  H  H87  1  0.20370000  0.23770000  0.47230000  1
  H  H88  1  0.56690000  0.23490000  0.11470000  1
  H  H89  1  0.43310000  0.23490000  0.61470000  1
  H  H90  1  0.55880000  0.23130000  0.49240000  1
  H  H91  1  0.44120000  0.23130000  0.99240000  1
  H  H92  1  0.90570000  0.22640000  0.10930000  1
  H  H93  1  0.09430000  0.22640000  0.60930000  1
  H  H94  1  0.88950000  0.20870000  0.80540000  1
  H  H95  1  0.11050000  0.20870000  0.30540000  1
  H  H96  1  0.56240000  0.18180000  0.79760000  1
  H  H97  1  0.43760000  0.18180000  0.29760000  1
  H  H98  1  0.89560000  0.16780000  0.70730000  1
  H  H99  1  0.10440000  0.16780000  0.20730000  1
  H  H100  1  0.56770000  0.13560000  0.70050000  1
  H  H101  1  0.43230000  0.13560000  0.20050000  1
  H  H102  1  0.56270000  0.13280000  0.06200000  1
  H  H103  1  0.43730000  0.13280000  0.56200000  1
  H  H104  1  0.89250000  0.12660000  0.05890000  1
  H  H105  1  0.10750000  0.12660000  0.55890000  1
  H  H106  1  0.68580000  0.11020000  0.85060000  1
  H  H107  1  0.31420000  0.11020000  0.35060000  1
  H  H108  1  0.54600000  0.07000000  0.88140000  1
  H  H109  1  0.45400000  0.07000000  0.38140000  1
  C  C110  1  0.71760000  0.94740000  0.47290000  1
  C  C111  1  0.28240000  0.94740000  0.97290000  1
  C  C112  1  0.55400000  0.88940000  0.60260000  1
  C  C113  1  0.44600000  0.88940000  0.10260000  1
  C  C114  1  0.73710000  0.88050000  0.87250000  1
  C  C115  1  0.26290000  0.88050000  0.37250000  1
  C  C116  1  0.72760000  0.88040000  0.44190000  1
  C  C117  1  0.27240000  0.88040000  0.94190000  1
  C  C118  1  0.59820000  0.88000000  0.03260000  1
  C  C119  1  0.40180000  0.88000000  0.53260000  1
  C  C120  1  0.63370000  0.86540000  0.62250000  1
  C  C121  1  0.36630000  0.86540000  0.12250000  1
  C  C122  1  0.51570000  0.85260000  0.05810000  1
  C  C123  1  0.48430000  0.85260000  0.55810000  1
  C  C124  1  0.73300000  0.85210000  0.80850000  1
  C  C125  1  0.26700000  0.85210000  0.30850000  1
  C  C126  1  0.82700000  0.85130000  0.42890000  1
  C  C127  1  0.17300000  0.85130000  0.92890000  1
  C  C128  1  0.63310000  0.84830000  0.77870000  1
  C  C129  1  0.36690000  0.84830000  0.27870000  1
  C  C130  1  0.63130000  0.84800000  0.42700000  1
  C  C131  1  0.36870000  0.84800000  0.92700000  1
  C  C132  1  0.82710000  0.83000000  0.77460000  1
  C  C133  1  0.17290000  0.83000000  0.27460000  1
  C  C134  1  0.63070000  0.82190000  0.72110000  1
  C  C135  1  0.36930000  0.82190000  0.22110000  1
  C  C136  1  0.82380000  0.80500000  0.71580000  1
  C  C137  1  0.17620000  0.80500000  0.21580000  1
  C  C138  1  0.63940000  0.80440000  0.60330000  1
  C  C139  1  0.36060000  0.80440000  0.10330000  1
  C  C140  1  0.72550000  0.80010000  0.68810000  1
  C  C141  1  0.27450000  0.80010000  0.18810000  1
  C  C142  1  0.51110000  0.79280000  0.03730000  1
  C  C143  1  0.48890000  0.79280000  0.53730000  1
  C  C144  1  0.83620000  0.79210000  0.39920000  1
  C  C145  1  0.16380000  0.79210000  0.89920000  1
  C  C146  1  0.63300000  0.78670000  0.39590000  1
  C  C147  1  0.36700000  0.78670000  0.89590000  1
  C  C148  1  0.56510000  0.76850000  0.56080000  1
  C  C149  1  0.43490000  0.76850000  0.06080000  1
  C  C150  1  0.73500000  0.75960000  0.38150000  1
  C  C151  1  0.26500000  0.75960000  0.88150000  1
  C  C152  1  0.82490000  0.73360000  0.53710000  1
  C  C153  1  0.17510000  0.73360000  0.03710000  1
  C  C154  1  0.79390000  0.73350000  0.58780000  1
  C  C155  1  0.20610000  0.73350000  0.08780000  1
  C  C156  1  0.89680000  0.69260000  0.50000000  1
  C  C157  1  0.10320000  0.69260000  0.00000000  1
  C  C158  1  0.82710000  0.68900000  0.59970000  1
  C  C159  1  0.17290000  0.68900000  0.09970000  1
  C  C160  1  0.86840000  0.68160000  0.27360000  1
  C  C161  1  0.13160000  0.68160000  0.77360000  1
  C  C162  1  0.60440000  0.67190000  0.40840000  1
  C  C163  1  0.39560000  0.67190000  0.90840000  1
  C  C164  1  0.83130000  0.66640000  0.31400000  1
  C  C165  1  0.16870000  0.66640000  0.81400000  1
  C  C166  1  0.65080000  0.66230000  0.35740000  1
  C  C167  1  0.34920000  0.66230000  0.85740000  1
  C  C168  1  0.93540000  0.64820000  0.51180000  1
  C  C169  1  0.06460000  0.64820000  0.01180000  1
  C  C170  1  0.94940000  0.64800000  0.23440000  1
  C  C171  1  0.05060000  0.64800000  0.73440000  1
  C  C172  1  0.90110000  0.64650000  0.56320000  1
  C  C173  1  0.09890000  0.64650000  0.06320000  1
  C  C174  1  0.51480000  0.63910000  0.41200000  1
  C  C175  1  0.48520000  0.63910000  0.91200000  1
  C  C176  1  0.87530000  0.61780000  0.31540000  1
  C  C177  1  0.12470000  0.61780000  0.81540000  1
  C  C178  1  0.61090000  0.61500000  0.30750000  1
  C  C179  1  0.38910000  0.61500000  0.80750000  1
  C  C180  1  0.98260000  0.60190000  0.97150000  1
  C  C181  1  0.01740000  0.60190000  0.47150000  1
  C  C182  1  0.99120000  0.59760000  0.23400000  1
  C  C183  1  0.00880000  0.59760000  0.73400000  1
  C  C184  1  0.52480000  0.59140000  0.86090000  1
  C  C185  1  0.47520000  0.59140000  0.36090000  1
  C  C186  1  0.95610000  0.58390000  0.27760000  1
  C  C187  1  0.04390000  0.58390000  0.77760000  1
  C  C188  1  0.52360000  0.58180000  0.31010000  1
  C  C189  1  0.47640000  0.58180000  0.81010000  1
  C  C190  1  0.93450000  0.55630000  0.68840000  1
  C  C191  1  0.06550000  0.55630000  0.18840000  1
  C  C192  1  0.61890000  0.55490000  0.86540000  1
  C  C193  1  0.38110000  0.55490000  0.36540000  1
  C  C194  1  0.61890000  0.44510000  0.63460000  1
  C  C195  1  0.38110000  0.44510000  0.13460000  1
  C  C196  1  0.93450000  0.44370000  0.81160000  1
  C  C197  1  0.06550000  0.44370000  0.31160000  1
  C  C198  1  0.52360000  0.41820000  0.18990000  1
  C  C199  1  0.47640000  0.41820000  0.68990000  1
  C  C200  1  0.95610000  0.41610000  0.22240000  1
  C  C201  1  0.04390000  0.41610000  0.72240000  1
  C  C202  1  0.52480000  0.40860000  0.63910000  1
  C  C203  1  0.47520000  0.40860000  0.13910000  1
  C  C204  1  0.99120000  0.40240000  0.26600000  1
  C  C205  1  0.00880000  0.40240000  0.76600000  1
  C  C206  1  0.98260000  0.39810000  0.52850000  1
  C  C207  1  0.01740000  0.39810000  0.02850000  1
  C  C208  1  0.61090000  0.38500000  0.19250000  1
  C  C209  1  0.38910000  0.38500000  0.69250000  1
  C  C210  1  0.87530000  0.38220000  0.18460000  1
  C  C211  1  0.12470000  0.38220000  0.68460000  1
  C  C212  1  0.51480000  0.36090000  0.08800000  1
  C  C213  1  0.48520000  0.36090000  0.58800000  1
  C  C214  1  0.90110000  0.35350000  0.93680000  1
  C  C215  1  0.09890000  0.35350000  0.43680000  1
  C  C216  1  0.94940000  0.35200000  0.26560000  1
  C  C217  1  0.05060000  0.35200000  0.76560000  1
  C  C218  1  0.93540000  0.35180000  0.98820000  1
  C  C219  1  0.06460000  0.35180000  0.48820000  1
  C  C220  1  0.65080000  0.33770000  0.14260000  1
  C  C221  1  0.34920000  0.33770000  0.64260000  1
  C  C222  1  0.83130000  0.33360000  0.18600000  1
  C  C223  1  0.16870000  0.33360000  0.68600000  1
  C  C224  1  0.60440000  0.32810000  0.09160000  1
  C  C225  1  0.39560000  0.32810000  0.59160000  1
  C  C226  1  0.86840000  0.31840000  0.22640000  1
  C  C227  1  0.13160000  0.31840000  0.72640000  1
  C  C228  1  0.82710000  0.31100000  0.90030000  1
  C  C229  1  0.17290000  0.31100000  0.40030000  1
  C  C230  1  0.89680000  0.30740000  1.00000000  1
  C  C231  1  0.10320000  0.30740000  0.50000000  1
  C  C232  1  0.79390000  0.26650000  0.91220000  1
  C  C233  1  0.20610000  0.26650000  0.41220000  1
  C  C234  1  0.82490000  0.26640000  0.96290000  1
  C  C235  1  0.17510000  0.26640000  0.46290000  1
  C  C236  1  0.73500000  0.24040000  0.11850000  1
  C  C237  1  0.26500000  0.24040000  0.61850000  1
  C  C238  1  0.56510000  0.23150000  0.93920000  1
  C  C239  1  0.43490000  0.23150000  0.43920000  1
  C  C240  1  0.63300000  0.21330000  0.10410000  1
  C  C241  1  0.36700000  0.21330000  0.60410000  1
  C  C242  1  0.83620000  0.20790000  0.10080000  1
  C  C243  1  0.16380000  0.20790000  0.60080000  1
  C  C244  1  0.51110000  0.20720000  0.46270000  1
  C  C245  1  0.48890000  0.20720000  0.96270000  1
  C  C246  1  0.72550000  0.19990000  0.81190000  1
  C  C247  1  0.27450000  0.19990000  0.31190000  1
  C  C248  1  0.63940000  0.19560000  0.89670000  1
  C  C249  1  0.36060000  0.19560000  0.39670000  1
  C  C250  1  0.82380000  0.19500000  0.78420000  1
  C  C251  1  0.17620000  0.19500000  0.28420000  1
  C  C252  1  0.63070000  0.17810000  0.77890000  1
  C  C253  1  0.36930000  0.17810000  0.27890000  1
  C  C254  1  0.82710000  0.17000000  0.72540000  1
  C  C255  1  0.17290000  0.17000000  0.22540000  1
  C  C256  1  0.63130000  0.15200000  0.07300000  1
  C  C257  1  0.36870000  0.15200000  0.57300000  1
  C  C258  1  0.63310000  0.15170000  0.72130000  1
  C  C259  1  0.36690000  0.15170000  0.22130000  1
  C  C260  1  0.82700000  0.14870000  0.07110000  1
  C  C261  1  0.17300000  0.14870000  0.57110000  1
  C  C262  1  0.73300000  0.14790000  0.69150000  1
  C  C263  1  0.26700000  0.14790000  0.19150000  1
  C  C264  1  0.51570000  0.14740000  0.44190000  1
  C  C265  1  0.48430000  0.14740000  0.94190000  1
  C  C266  1  0.63370000  0.13460000  0.87750000  1
  C  C267  1  0.36630000  0.13460000  0.37750000  1
  C  C268  1  0.59820000  0.12000000  0.46740000  1
  C  C269  1  0.40180000  0.12000000  0.96740000  1
  C  C270  1  0.72760000  0.11960000  0.05810000  1
  C  C271  1  0.27240000  0.11960000  0.55810000  1
  C  C272  1  0.73710000  0.11950000  0.62750000  1
  C  C273  1  0.26290000  0.11950000  0.12750000  1
  C  C274  1  0.55400000  0.11060000  0.89740000  1
  C  C275  1  0.44600000  0.11060000  0.39740000  1
  C  C276  1  0.71760000  0.05260000  0.02710000  1
  C  C277  1  0.28240000  0.05260000  0.52710000  1
  N  N278  1  0.71900000  0.77820000  0.62510000  1
  N  N279  1  0.28100000  0.77820000  0.12510000  1
  N  N280  1  0.74060000  0.69560000  0.35390000  1
  N  N281  1  0.25940000  0.69560000  0.85390000  1
  N  N282  1  0.74060000  0.30440000  0.14610000  1
  N  N283  1  0.25940000  0.30440000  0.64610000  1
  N  N284  1  0.71900000  0.22180000  0.87490000  1
  N  N285  1  0.28100000  0.22180000  0.37490000  1
  O  O286  1  0.80970000  0.97690000  0.47840000  1
  O  O287  1  0.19030000  0.97690000  0.97840000  1
  O  O288  1  0.62500000  0.97140000  0.49050000  1
  O  O289  1  0.37500000  0.97140000  0.99050000  1
  O  O290  1  0.60040000  0.93470000  0.05230000  1
  O  O291  1  0.39960000  0.93470000  0.55230000  1
  O  O292  1  0.65110000  0.90600000  0.90060000  1
  O  O293  1  0.34890000  0.90600000  0.40060000  1
  O  O294  1  0.82630000  0.87950000  0.89800000  1
  O  O295  1  0.17370000  0.87950000  0.39800000  1
  O  O296  1  0.66430000  0.84750000  0.99490000  1
  O  O297  1  0.33570000  0.84750000  0.49490000  1
  O  O298  1  0.94370000  0.60550000  0.92820000  1
  O  O299  1  0.05630000  0.60550000  0.42820000  1
  O  O300  1  0.67220000  0.57260000  0.91140000  1
  O  O301  1  0.32780000  0.57260000  0.41140000  1
  O  O302  1  0.90980000  0.56740000  0.64610000  1
  O  O303  1  0.09020000  0.56740000  0.14610000  1
  O  O304  1  0.95080000  0.56190000  0.98440000  1
  O  O305  1  0.04920000  0.56190000  0.48440000  1
  O  O306  1  0.89560000  0.51050000  0.68970000  1
  O  O307  1  0.10440000  0.51050000  0.18970000  1
  O  O308  1  0.64190000  0.50740000  0.81970000  1
  O  O309  1  0.35810000  0.50740000  0.31970000  1
  O  O310  1  0.64190000  0.49260000  0.68030000  1
  O  O311  1  0.35810000  0.49260000  0.18030000  1
  O  O312  1  0.89560000  0.48950000  0.81030000  1
  O  O313  1  0.10440000  0.48950000  0.31030000  1
  O  O314  1  0.95080000  0.43810000  0.51560000  1
  O  O315  1  0.04920000  0.43810000  0.01560000  1
  O  O316  1  0.90980000  0.43260000  0.85390000  1
  O  O317  1  0.09020000  0.43260000  0.35390000  1
  O  O318  1  0.67220000  0.42740000  0.58860000  1
  O  O319  1  0.32780000  0.42740000  0.08860000  1
  O  O320  1  0.94370000  0.39450000  0.57180000  1
  O  O321  1  0.05630000  0.39450000  0.07180000  1
  O  O322  1  0.66430000  0.15250000  0.50510000  1
  O  O323  1  0.33570000  0.15250000  0.00510000  1
  O  O324  1  0.82630000  0.12050000  0.60200000  1
  O  O325  1  0.17370000  0.12050000  0.10200000  1
  O  O326  1  0.65110000  0.09400000  0.59940000  1
  O  O327  1  0.34890000  0.09400000  0.09940000  1
  O  O328  1  0.60040000  0.06530000  0.44770000  1
  O  O329  1  0.39960000  0.06530000  0.94770000  1
  O  O330  1  0.62500000  0.02860000  0.00950000  1
  O  O331  1  0.37500000  0.02860000  0.50950000  1
  O  O332  1  0.80970000  0.02310000  0.02160000  1
  O  O333  1  0.19030000  0.02310000  0.52160000  1
