# generated using pymatgen
data_Co3H9C10SN5O9
_symmetry_space_group_name_H-M   'P 1'
_cell_length_a   8.01730000
_cell_length_b   15.50520000
_cell_length_c   18.32320000
_cell_angle_alpha   74.63110000
_cell_angle_beta   77.36290000
_cell_angle_gamma   75.01680000
_symmetry_Int_Tables_number   1
_chemical_formula_structural   Co3H9C10SN5O9
_chemical_formula_sum   'Co12 H36 C40 S4 N20 O36'
_cell_volume   2093.84387322
_cell_formula_units_Z   4
loop_
 _symmetry_equiv_pos_site_id
 _symmetry_equiv_pos_as_xyz
  1  'x, y, z'
loop_
 _atom_site_type_symbol
 _atom_site_label
 _atom_site_symmetry_multiplicity
 _atom_site_fract_x
 _atom_site_fract_y
 _atom_site_fract_z
 _atom_site_occupancy
  Co  Co0  1  0.08394000  0.37324000  0.39760000  1
  Co  Co1  1  0.11726000  0.25115000  0.01317000  1
  Co  Co2  1  0.14522000  0.87324000  0.89760000  1
  Co  Co3  1  0.17797000  0.02194000  0.00646000  1
  Co  Co4  1  0.20637000  0.47806000  0.49354000  1
  Co  Co5  1  0.38158000  0.24885000  0.48683000  1
  Co  Co6  1  0.61842000  0.75115000  0.51317000  1
  Co  Co7  1  0.79363000  0.52194000  0.50646000  1
  Co  Co8  1  0.82203000  0.97806000  0.99354000  1
  Co  Co9  1  0.85478000  0.12676000  0.10240000  1
  Co  Co10  1  0.88274000  0.74885000  0.98683000  1
  Co  Co11  1  0.91606000  0.62676000  0.60240000  1
  H  H12  1  0.02120000  0.55500000  0.37860000  1
  H  H13  1  0.04240000  0.82180000  0.04760000  1
  H  H14  1  0.04520000  0.05500000  0.87860000  1
  H  H15  1  0.08820000  0.32180000  0.54760000  1
  H  H16  1  0.09270000  0.77500000  0.63420000  1
  H  H17  1  0.11120000  0.51060000  0.90060000  1
  H  H18  1  0.17030000  0.17490000  0.25070000  1
  H  H19  1  0.25850000  0.80840000  0.60500000  1
  H  H20  1  0.32810000  0.30840000  0.10500000  1
  H  H21  1  0.35740000  0.14160000  0.89980000  1
  H  H22  1  0.39880000  0.35840000  0.60020000  1
  H  H23  1  0.40410000  0.67490000  0.75070000  1
  H  H24  1  0.42030000  0.92370000  0.22110000  1
  H  H25  1  0.43490000  0.42370000  0.72110000  1
  H  H26  1  0.45610000  0.44400000  0.58520000  1
  H  H27  1  0.47760000  0.01060000  0.40060000  1
  H  H28  1  0.48530000  0.05600000  0.91480000  1
  H  H29  1  0.49810000  0.27500000  0.13420000  1
  H  H30  1  0.50190000  0.72500000  0.86580000  1
  H  H31  1  0.51470000  0.94400000  0.08520000  1
  H  H32  1  0.52240000  0.98940000  0.59940000  1
  H  H33  1  0.54390000  0.55600000  0.41480000  1
  H  H34  1  0.56510000  0.57630000  0.27890000  1
  H  H35  1  0.57970000  0.07630000  0.77890000  1
  H  H36  1  0.59590000  0.32510000  0.24930000  1
  H  H37  1  0.60120000  0.64160000  0.39980000  1
  H  H38  1  0.64260000  0.85840000  0.10020000  1
  H  H39  1  0.67190000  0.69160000  0.89500000  1
  H  H40  1  0.74150000  0.19160000  0.39500000  1
  H  H41  1  0.82970000  0.82510000  0.74930000  1
  H  H42  1  0.88880000  0.48940000  0.09940000  1
  H  H43  1  0.90730000  0.22500000  0.36580000  1
  H  H44  1  0.91180000  0.67820000  0.45240000  1
  H  H45  1  0.95480000  0.94500000  0.12140000  1
  H  H46  1  0.95760000  0.17820000  0.95240000  1
  H  H47  1  0.97880000  0.44500000  0.62140000  1
  C  C48  1  0.15924000  0.67772000  0.87580000  1
  C  C49  1  0.19333000  0.52114000  0.85660000  1
  C  C50  1  0.20699000  0.06882000  0.15300000  1
  C  C51  1  0.24471000  0.60378000  0.83220000  1
  C  C52  1  0.24544000  0.11942000  0.26650000  1
  C  C53  1  0.24972000  0.70946000  0.56030000  1
  C  C54  1  0.26540000  0.45380000  0.81480000  1
  C  C55  1  0.28432000  0.05176000  0.22440000  1
  C  C56  1  0.28724000  0.17772000  0.37580000  1
  C  C57  1  0.31931000  0.10378000  0.33220000  1
  C  C58  1  0.36864000  0.61942000  0.76650000  1
  C  C59  1  0.38784000  0.46912000  0.74880000  1
  C  C60  1  0.39424000  0.96912000  0.24880000  1
  C  C61  1  0.41453000  0.63144000  0.48290000  1
  C  C62  1  0.42881000  0.43118000  0.34700000  1
  C  C63  1  0.42893000  0.02114000  0.35660000  1
  C  C64  1  0.43952000  0.55176000  0.72440000  1
  C  C65  1  0.46600000  0.95380000  0.31480000  1
  C  C66  1  0.47113000  0.13144000  0.98290000  1
  C  C67  1  0.48052000  0.20946000  0.06030000  1
  C  C68  1  0.51948000  0.79054000  0.93970000  1
  C  C69  1  0.52887000  0.86856000  0.01710000  1
  C  C70  1  0.53400000  0.04620000  0.68520000  1
  C  C71  1  0.56048000  0.44824000  0.27560000  1
  C  C72  1  0.57107000  0.97886000  0.64340000  1
  C  C73  1  0.57119000  0.56882000  0.65300000  1
  C  C74  1  0.58547000  0.36856000  0.51710000  1
  C  C75  1  0.60576000  0.03088000  0.75120000  1
  C  C76  1  0.61216000  0.53088000  0.25120000  1
  C  C77  1  0.63136000  0.38058000  0.23350000  1
  C  C78  1  0.68069000  0.89622000  0.66780000  1
  C  C79  1  0.71276000  0.82228000  0.62420000  1
  C  C80  1  0.71568000  0.94824000  0.77560000  1
  C  C81  1  0.73460000  0.54620000  0.18520000  1
  C  C82  1  0.75028000  0.29054000  0.43970000  1
  C  C83  1  0.75456000  0.88058000  0.73350000  1
  C  C84  1  0.75529000  0.39622000  0.16780000  1
  C  C85  1  0.79301000  0.93118000  0.84700000  1
  C  C86  1  0.80667000  0.47886000  0.14340000  1
  C  C87  1  0.84076000  0.32228000  0.12420000  1
  S  S88  1  0.18040000  0.35430000  0.83746000  1
  S  S89  1  0.37216000  0.14570000  0.66254000  1
  S  S90  1  0.62784000  0.85430000  0.33746000  1
  S  S91  1  0.81960000  0.64570000  0.16254000  1
  N  N92  1  0.16095000  0.65024000  0.55626000  1
  N  N93  1  0.19333000  0.77194000  0.60540000  1
  N  N94  1  0.27045000  0.59915000  0.50395000  1
  N  N95  1  0.36745000  0.84976000  0.94374000  1
  N  N96  1  0.37355000  0.90085000  0.99605000  1
  N  N97  1  0.37365000  0.20115000  0.01555000  1
  N  N98  1  0.40000000  0.09579000  0.93721000  1
  N  N99  1  0.40965000  0.70115000  0.51555000  1
  N  N100  1  0.42933000  0.27194000  0.10540000  1
  N  N101  1  0.43300000  0.40421000  0.56279000  1
  N  N102  1  0.56700000  0.59579000  0.43721000  1
  N  N103  1  0.57067000  0.72806000  0.89460000  1
  N  N104  1  0.59035000  0.29885000  0.48445000  1
  N  N105  1  0.60000000  0.90421000  0.06279000  1
  N  N106  1  0.62635000  0.79885000  0.98445000  1
  N  N107  1  0.62645000  0.09915000  0.00395000  1
  N  N108  1  0.63255000  0.15024000  0.05626000  1
  N  N109  1  0.72955000  0.40085000  0.49605000  1
  N  N110  1  0.80667000  0.22806000  0.39460000  1
  N  N111  1  0.83905000  0.34976000  0.44374000  1
  O  O112  1  0.01514000  0.50365000  0.42307000  1
  O  O113  1  0.01583000  0.66769000  0.91945000  1
  O  O114  1  0.01921000  0.15797000  0.99661000  1
  O  O115  1  0.05814000  0.00365000  0.92307000  1
  O  O116  1  0.06504000  0.37207000  0.78245000  1
  O  O117  1  0.08228000  0.13675000  0.14189000  1
  O  O118  1  0.08305000  0.35040000  0.91590000  1
  O  O119  1  0.15862000  0.24321000  0.36615000  1
  O  O120  1  0.17379000  0.34203000  0.50339000  1
  O  O121  1  0.21956000  0.12793000  0.71755000  1
  O  O122  1  0.23202000  0.74321000  0.86615000  1
  O  O123  1  0.27290000  0.01622000  0.10778000  1
  O  O124  1  0.32281000  0.27746000  0.83232000  1
  O  O125  1  0.34935000  0.14960000  0.58410000  1
  O  O126  1  0.36092000  0.36325000  0.35811000  1
  O  O127  1  0.39690000  0.48378000  0.39222000  1
  O  O128  1  0.39703000  0.16769000  0.41945000  1
  O  O129  1  0.43259000  0.22254000  0.66768000  1
  O  O130  1  0.56741000  0.77746000  0.33232000  1
  O  O131  1  0.60297000  0.83231000  0.58055000  1
  O  O132  1  0.60310000  0.51622000  0.60778000  1
  O  O133  1  0.63908000  0.63675000  0.64189000  1
  O  O134  1  0.65065000  0.85040000  0.41590000  1
  O  O135  1  0.67719000  0.72254000  0.16768000  1
  O  O136  1  0.72710000  0.98378000  0.89222000  1
  O  O137  1  0.76798000  0.25679000  0.13385000  1
  O  O138  1  0.78044000  0.87207000  0.28245000  1
  O  O139  1  0.82621000  0.65797000  0.49661000  1
  O  O140  1  0.84138000  0.75679000  0.63385000  1
  O  O141  1  0.91695000  0.64960000  0.08410000  1
  O  O142  1  0.91772000  0.86325000  0.85811000  1
  O  O143  1  0.93496000  0.62793000  0.21755000  1
  O  O144  1  0.94186000  0.99635000  0.07693000  1
  O  O145  1  0.98079000  0.84203000  0.00339000  1
  O  O146  1  0.98417000  0.33231000  0.08055000  1
  O  O147  1  0.98486000  0.49635000  0.57693000  1
