# generated using pymatgen
data_PrH4C7SO7
_symmetry_space_group_name_H-M   'P 1'
_cell_length_a   8.13500000
_cell_length_b   8.61900000
_cell_length_c   17.95900000
_cell_angle_alpha   90.00000000
_cell_angle_beta   90.00000000
_cell_angle_gamma   110.82800000
_symmetry_Int_Tables_number   1
_chemical_formula_structural   PrH4C7SO7
_chemical_formula_sum   'Pr4 H16 C28 S4 O28'
_cell_volume   1176.91890899
_cell_formula_units_Z   4
loop_
 _symmetry_equiv_pos_site_id
 _symmetry_equiv_pos_as_xyz
  1  'x, y, z'
loop_
 _atom_site_type_symbol
 _atom_site_label
 _atom_site_symmetry_multiplicity
 _atom_site_fract_x
 _atom_site_fract_y
 _atom_site_fract_z
 _atom_site_occupancy
  Pr  Pr0  1  0.74888000  0.21346000  0.52231000  1
  Pr  Pr1  1  0.24888000  0.21346000  0.97769000  1
  Pr  Pr2  1  0.75112000  0.78654000  0.02231000  1
  Pr  Pr3  1  0.25112000  0.78654000  0.47769000  1
  H  H4  1  0.32670000  0.40590000  0.73820000  1
  H  H5  1  0.82670000  0.40590000  0.76180000  1
  H  H6  1  0.23160000  0.41770000  0.50060000  1
  H  H7  1  0.73160000  0.41770000  0.99940000  1
  H  H8  1  0.13050000  0.43470000  0.12340000  1
  H  H9  1  0.63050000  0.43470000  0.37660000  1
  H  H10  1  0.67780000  0.47320000  0.55370000  1
  H  H11  1  0.17780000  0.47320000  0.94630000  1
  H  H12  1  0.82220000  0.52680000  0.05370000  1
  H  H13  1  0.32220000  0.52680000  0.44630000  1
  H  H14  1  0.36950000  0.56530000  0.62340000  1
  H  H15  1  0.86950000  0.56530000  0.87660000  1
  H  H16  1  0.26840000  0.58230000  0.00060000  1
  H  H17  1  0.76840000  0.58230000  0.49940000  1
  H  H18  1  0.17330000  0.59410000  0.23820000  1
  H  H19  1  0.67330000  0.59410000  0.26180000  1
  C  C20  1  0.07480000  0.06600000  0.52150000  1
  C  C21  1  0.57480000  0.06600000  0.97850000  1
  C  C22  1  0.90140000  0.10190000  0.11850000  1
  C  C23  1  0.40140000  0.10190000  0.38150000  1
  C  C24  1  0.95520000  0.23290000  0.17510000  1
  C  C25  1  0.45520000  0.23290000  0.32490000  1
  C  C26  1  0.07340000  0.39200000  0.16780000  1
  C  C27  1  0.57340000  0.39200000  0.33220000  1
  C  C28  1  0.50340000  0.39360000  0.20820000  1
  C  C29  1  0.00340000  0.39360000  0.29180000  1
  C  C30  1  0.50330000  0.45290000  0.13070000  1
  C  C31  1  0.00330000  0.45290000  0.36930000  1
  C  C32  1  0.09910000  0.48390000  0.23410000  1
  C  C33  1  0.59910000  0.48390000  0.26590000  1
  C  C34  1  0.40090000  0.51610000  0.73410000  1
  C  C35  1  0.90090000  0.51610000  0.76590000  1
  C  C36  1  0.99670000  0.54710000  0.63070000  1
  C  C37  1  0.49670000  0.54710000  0.86930000  1
  C  C38  1  0.99660000  0.60640000  0.70820000  1
  C  C39  1  0.49660000  0.60640000  0.79180000  1
  C  C40  1  0.42660000  0.60800000  0.66780000  1
  C  C41  1  0.92660000  0.60800000  0.83220000  1
  C  C42  1  0.54480000  0.76710000  0.67510000  1
  C  C43  1  0.04480000  0.76710000  0.82490000  1
  C  C44  1  0.59860000  0.89810000  0.61850000  1
  C  C45  1  0.09860000  0.89810000  0.88150000  1
  C  C46  1  0.42520000  0.93400000  0.02150000  1
  C  C47  1  0.92520000  0.93400000  0.47850000  1
  S  S48  1  0.37490000  0.19582000  0.23515000  1
  S  S49  1  0.87490000  0.19582000  0.26485000  1
  S  S50  1  0.12510000  0.80418000  0.73515000  1
  S  S51  1  0.62510000  0.80418000  0.76485000  1
  O  O52  1  0.73860000  0.02370000  0.62880000  1
  O  O53  1  0.23860000  0.02370000  0.87120000  1
  O  O54  1  0.20370000  0.02770000  0.54010000  1
  O  O55  1  0.70370000  0.02770000  0.95990000  1
  O  O56  1  0.99510000  0.11450000  0.06130000  1
  O  O57  1  0.49510000  0.11450000  0.43870000  1
  O  O58  1  0.05400000  0.20070000  0.53520000  1
  O  O59  1  0.55400000  0.20070000  0.96480000  1
  O  O60  1  0.41090000  0.35250000  0.08290000  1
  O  O61  1  0.91090000  0.35250000  0.41710000  1
  O  O62  1  0.90620000  0.39890000  0.61820000  1
  O  O63  1  0.40620000  0.39890000  0.88180000  1
  O  O64  1  0.68640000  0.48960000  0.50700000  1
  O  O65  1  0.18640000  0.48960000  0.99300000  1
  O  O66  1  0.81360000  0.51040000  0.00700000  1
  O  O67  1  0.31360000  0.51040000  0.49300000  1
  O  O68  1  0.59380000  0.60110000  0.11820000  1
  O  O69  1  0.09380000  0.60110000  0.38180000  1
  O  O70  1  0.08910000  0.64750000  0.58290000  1
  O  O71  1  0.58910000  0.64750000  0.91710000  1
  O  O72  1  0.44600000  0.79930000  0.03520000  1
  O  O73  1  0.94600000  0.79930000  0.46480000  1
  O  O74  1  0.50490000  0.88550000  0.56130000  1
  O  O75  1  0.00490000  0.88550000  0.93870000  1
  O  O76  1  0.29630000  0.97230000  0.04010000  1
  O  O77  1  0.79630000  0.97230000  0.45990000  1
  O  O78  1  0.76140000  0.97630000  0.12880000  1
  O  O79  1  0.26140000  0.97630000  0.37120000  1
