# generated using pymatgen
data_Ti2P4H3O16
_symmetry_space_group_name_H-M   'P 1'
_cell_length_a   6.34690000
_cell_length_b   10.74550000
_cell_length_c   20.48000000
_cell_angle_alpha   104.28600000
_cell_angle_beta   90.00000000
_cell_angle_gamma   90.00000000
_symmetry_Int_Tables_number   1
_chemical_formula_structural   Ti2P4H3O16
_chemical_formula_sum   'Ti8 P16 H12 O64'
_cell_volume   1353.55559863
_cell_formula_units_Z   4
loop_
 _symmetry_equiv_pos_site_id
 _symmetry_equiv_pos_as_xyz
  1  'x, y, z'
loop_
 _atom_site_type_symbol
 _atom_site_label
 _atom_site_symmetry_multiplicity
 _atom_site_fract_x
 _atom_site_fract_y
 _atom_site_fract_z
 _atom_site_occupancy
  Ti  Ti0  1  0.45700000  0.90330000  0.60650000  1
  Ti  Ti1  1  0.03510000  0.89060000  0.20030000  1
  Ti  Ti2  1  0.53510000  0.60940000  0.29970000  1
  Ti  Ti3  1  0.95700000  0.59670000  0.89350000  1
  Ti  Ti4  1  0.04300000  0.40330000  0.10650000  1
  Ti  Ti5  1  0.46490000  0.39060000  0.70030000  1
  Ti  Ti6  1  0.96490000  0.10940000  0.79970000  1
  Ti  Ti7  1  0.54300000  0.09670000  0.39350000  1
  P  P8  1  0.95120000  0.97480000  0.63350000  1
  P  P9  1  0.53770000  0.88380000  0.24300000  1
  P  P10  1  0.82840000  0.82770000  0.82230000  1
  P  P11  1  0.58160000  0.82020000  0.44680000  1
  P  P12  1  0.08160000  0.67980000  0.05320000  1
  P  P13  1  0.32840000  0.67230000  0.67770000  1
  P  P14  1  0.03770000  0.61620000  0.25700000  1
  P  P15  1  0.45120000  0.52520000  0.86650000  1
  P  P16  1  0.54880000  0.47480000  0.13350000  1
  P  P17  1  0.96230000  0.38380000  0.74300000  1
  P  P18  1  0.67160000  0.32770000  0.32230000  1
  P  P19  1  0.91840000  0.32020000  0.94680000  1
  P  P20  1  0.41840000  0.17980000  0.55320000  1
  P  P21  1  0.17160000  0.17230000  0.17770000  1
  P  P22  1  0.46230000  0.11620000  0.75700000  1
  P  P23  1  0.04880000  0.02520000  0.36650000  1
  H  H24  1  0.19330000  0.86380000  0.36950000  1
  H  H25  1  0.88340000  0.85030000  0.43440000  1
  H  H26  1  0.25530000  0.81880000  0.75310000  1
  H  H27  1  0.75530000  0.68120000  0.74690000  1
  H  H28  1  0.38340000  0.64970000  0.06560000  1
  H  H29  1  0.69330000  0.63620000  0.13050000  1
  H  H30  1  0.30670000  0.36380000  0.86950000  1
  H  H31  1  0.61660000  0.35030000  0.93440000  1
  H  H32  1  0.24470000  0.31880000  0.25310000  1
  H  H33  1  0.74470000  0.18120000  0.24690000  1
  H  H34  1  0.11660000  0.14970000  0.56560000  1
  H  H35  1  0.80670000  0.13620000  0.63050000  1
  O  O36  1  0.45970000  0.99750000  0.69720000  1
  O  O37  1  0.03100000  0.99710000  0.29150000  1
  O  O38  1  0.95400000  0.95030000  0.82900000  1
  O  O39  1  0.51320000  0.93440000  0.42180000  1
  O  O40  1  0.15170000  0.91350000  0.59880000  1
  O  O41  1  0.08450000  0.89760000  0.38700000  1
  O  O42  1  0.72960000  0.88840000  0.19900000  1
  O  O43  1  0.34290000  0.88770000  0.20050000  1
  O  O44  1  0.76440000  0.88620000  0.60810000  1
  O  O45  1  0.59870000  0.85420000  0.84280000  1
  O  O46  1  0.81840000  0.82450000  0.46310000  1
  O  O47  1  0.46810000  0.81220000  0.51110000  1
  O  O48  1  0.02890000  0.80220000  0.10560000  1
  O  O49  1  0.53800000  0.76530000  0.27000000  1
  O  O50  1  0.93010000  0.75570000  0.87010000  1
  O  O51  1  0.32430000  0.75340000  0.75090000  1
  O  O52  1  0.82430000  0.74660000  0.74910000  1
  O  O53  1  0.43010000  0.74430000  0.62990000  1
  O  O54  1  0.03800000  0.73470000  0.23000000  1
  O  O55  1  0.52890000  0.69780000  0.39440000  1
  O  O56  1  0.96810000  0.68780000  0.98890000  1
  O  O57  1  0.31840000  0.67550000  0.03690000  1
  O  O58  1  0.09870000  0.64580000  0.65720000  1
  O  O59  1  0.26440000  0.61380000  0.89190000  1
  O  O60  1  0.84290000  0.61230000  0.29950000  1
  O  O61  1  0.22960000  0.61160000  0.30100000  1
  O  O62  1  0.58450000  0.60240000  0.11300000  1
  O  O63  1  0.65170000  0.58650000  0.90120000  1
  O  O64  1  0.01320000  0.56560000  0.07820000  1
  O  O65  1  0.45400000  0.54970000  0.67100000  1
  O  O66  1  0.53100000  0.50290000  0.20850000  1
  O  O67  1  0.95970000  0.50250000  0.80280000  1
  O  O68  1  0.04030000  0.49750000  0.19720000  1
  O  O69  1  0.46900000  0.49710000  0.79150000  1
  O  O70  1  0.54600000  0.45030000  0.32900000  1
  O  O71  1  0.98680000  0.43440000  0.92180000  1
  O  O72  1  0.34830000  0.41350000  0.09880000  1
  O  O73  1  0.41550000  0.39760000  0.88700000  1
  O  O74  1  0.77040000  0.38840000  0.69900000  1
  O  O75  1  0.15710000  0.38770000  0.70050000  1
  O  O76  1  0.73560000  0.38620000  0.10810000  1
  O  O77  1  0.90130000  0.35420000  0.34280000  1
  O  O78  1  0.68160000  0.32450000  0.96310000  1
  O  O79  1  0.03190000  0.31220000  0.01110000  1
  O  O80  1  0.47110000  0.30220000  0.60560000  1
  O  O81  1  0.96200000  0.26530000  0.77000000  1
  O  O82  1  0.56990000  0.25570000  0.37010000  1
  O  O83  1  0.17570000  0.25340000  0.25090000  1
  O  O84  1  0.67570000  0.24660000  0.24910000  1
  O  O85  1  0.06990000  0.24430000  0.12990000  1
  O  O86  1  0.46200000  0.23470000  0.73000000  1
  O  O87  1  0.97110000  0.19780000  0.89440000  1
  O  O88  1  0.53190000  0.18780000  0.48890000  1
  O  O89  1  0.18160000  0.17550000  0.53690000  1
  O  O90  1  0.40130000  0.14580000  0.15720000  1
  O  O91  1  0.23560000  0.11380000  0.39190000  1
  O  O92  1  0.65710000  0.11230000  0.79950000  1
  O  O93  1  0.27040000  0.11160000  0.80100000  1
  O  O94  1  0.91550000  0.10240000  0.61300000  1
  O  O95  1  0.84830000  0.08650000  0.40120000  1
  O  O96  1  0.48680000  0.06560000  0.57820000  1
  O  O97  1  0.04600000  0.04970000  0.17100000  1
  O  O98  1  0.96900000  0.00290000  0.70850000  1
  O  O99  1  0.54030000  0.00250000  0.30280000  1
