# generated using pymatgen
data_CuH10C10NO4
_symmetry_space_group_name_H-M   'P 1'
_cell_length_a   8.52120000
_cell_length_b   12.48030000
_cell_length_c   12.48030000
_cell_angle_alpha   63.79900000
_cell_angle_beta   81.25700000
_cell_angle_gamma   81.25700000
_symmetry_Int_Tables_number   1
_chemical_formula_structural   CuH10C10NO4
_chemical_formula_sum   'Cu4 H40 C40 N4 O16'
_cell_volume   1171.62784285
_cell_formula_units_Z   4
loop_
 _symmetry_equiv_pos_site_id
 _symmetry_equiv_pos_as_xyz
  1  'x, y, z'
loop_
 _atom_site_type_symbol
 _atom_site_label
 _atom_site_symmetry_multiplicity
 _atom_site_fract_x
 _atom_site_fract_y
 _atom_site_fract_z
 _atom_site_occupancy
  Cu  Cu0  1  0.92470000  0.59676000  0.00840000  1
  Cu  Cu1  1  0.57530000  0.99160000  0.40324000  1
  Cu  Cu2  1  0.42470000  0.00840000  0.59676000  1
  Cu  Cu3  1  0.07530000  0.40324000  0.99160000  1
  H  H4  1  0.99950000  0.82370000  0.16650000  1
  H  H5  1  0.99420000  0.84800000  0.61900000  1
  H  H6  1  0.96200000  0.06070000  0.59230000  1
  H  H7  1  0.94890000  0.76010000  0.56830000  1
  H  H8  1  0.85000000  0.17190000  0.97950000  1
  H  H9  1  0.84800000  0.17560000  0.59120000  1
  H  H10  1  0.82720000  0.85750000  0.83890000  1
  H  H11  1  0.81980000  0.82300000  0.32460000  1
  H  H12  1  0.80480000  0.35630000  0.38630000  1
  H  H13  1  0.75150000  0.65520000  0.73480000  1
  H  H14  1  0.74850000  0.26520000  0.34480000  1
  H  H15  1  0.69520000  0.61370000  0.64370000  1
  H  H16  1  0.68020000  0.67540000  0.17700000  1
  H  H17  1  0.67280000  0.16110000  0.14250000  1
  H  H18  1  0.65200000  0.40880000  0.82440000  1
  H  H19  1  0.65000000  0.02050000  0.82810000  1
  H  H20  1  0.55110000  0.43170000  0.23990000  1
  H  H21  1  0.53800000  0.40770000  0.93930000  1
  H  H22  1  0.50580000  0.38100000  0.15200000  1
  H  H23  1  0.50050000  0.83350000  0.17630000  1
  H  H24  1  0.49950000  0.16650000  0.82370000  1
  H  H25  1  0.49420000  0.61900000  0.84800000  1
  H  H26  1  0.46200000  0.59230000  0.06070000  1
  H  H27  1  0.44890000  0.56830000  0.76010000  1
  H  H28  1  0.35000000  0.97950000  0.17190000  1
  H  H29  1  0.34800000  0.59120000  0.17560000  1
  H  H30  1  0.32720000  0.83890000  0.85750000  1
  H  H31  1  0.31980000  0.32460000  0.82300000  1
  H  H32  1  0.30480000  0.38630000  0.35630000  1
  H  H33  1  0.25150000  0.73480000  0.65520000  1
  H  H34  1  0.24850000  0.34480000  0.26520000  1
  H  H35  1  0.19520000  0.64370000  0.61370000  1
  H  H36  1  0.18020000  0.17700000  0.67540000  1
  H  H37  1  0.17280000  0.14250000  0.16110000  1
  H  H38  1  0.15200000  0.82440000  0.40880000  1
  H  H39  1  0.15000000  0.82810000  0.02050000  1
  H  H40  1  0.05110000  0.23990000  0.43170000  1
  H  H41  1  0.03800000  0.93930000  0.40770000  1
  H  H42  1  0.00580000  0.15200000  0.38100000  1
  H  H43  1  0.00050000  0.17630000  0.83350000  1
  C  C44  1  0.96160000  0.20331000  0.42251000  1
  C  C45  1  0.94400000  0.99824000  0.05224000  1
  C  C46  1  0.93300000  0.89460000  0.15860000  1
  C  C47  1  0.90630000  0.37731000  0.21871000  1
  C  C48  1  0.88270000  0.12569000  0.54689000  1
  C  C49  1  0.84530000  0.09803000  0.04943000  1
  C  C50  1  0.84220000  0.30242000  0.34662000  1
  C  C51  1  0.82520000  0.89510000  0.25270000  1
  C  C52  1  0.76020000  0.85255000  0.90875000  1
  C  C53  1  0.75970000  0.46072000  0.92896000  1
  C  C54  1  0.74030000  0.07104000  0.53928000  1
  C  C55  1  0.73980000  0.09125000  0.14745000  1
  C  C56  1  0.67480000  0.74730000  0.10490000  1
  C  C57  1  0.65780000  0.65338000  0.69758000  1
  C  C58  1  0.65470000  0.95057000  0.90197000  1
  C  C59  1  0.61730000  0.45311000  0.87431000  1
  C  C60  1  0.59370000  0.78129000  0.62269000  1
  C  C61  1  0.56700000  0.84140000  0.10540000  1
  C  C62  1  0.55600000  0.94776000  0.00176000  1
  C  C63  1  0.53840000  0.57749000  0.79669000  1
  C  C64  1  0.46160000  0.42251000  0.20331000  1
  C  C65  1  0.44400000  0.05224000  0.99824000  1
  C  C66  1  0.43300000  0.15860000  0.89460000  1
  C  C67  1  0.40630000  0.21871000  0.37731000  1
  C  C68  1  0.38270000  0.54689000  0.12569000  1
  C  C69  1  0.34530000  0.04943000  0.09803000  1
  C  C70  1  0.34220000  0.34662000  0.30242000  1
  C  C71  1  0.32520000  0.25270000  0.89510000  1
  C  C72  1  0.26020000  0.90875000  0.85255000  1
  C  C73  1  0.25970000  0.92896000  0.46072000  1
  C  C74  1  0.24030000  0.53928000  0.07104000  1
  C  C75  1  0.23980000  0.14745000  0.09125000  1
  C  C76  1  0.17480000  0.10490000  0.74730000  1
  C  C77  1  0.15780000  0.69758000  0.65338000  1
  C  C78  1  0.15470000  0.90197000  0.95057000  1
  C  C79  1  0.11730000  0.87431000  0.45311000  1
  C  C80  1  0.09370000  0.62269000  0.78129000  1
  C  C81  1  0.06700000  0.10540000  0.84140000  1
  C  C82  1  0.05600000  0.00176000  0.94776000  1
  C  C83  1  0.03840000  0.79669000  0.57749000  1
  N  N84  1  0.77200000  0.75138000  0.00898000  1
  N  N85  1  0.72800000  0.99102000  0.24862000  1
  N  N86  1  0.27200000  0.00898000  0.75138000  1
  N  N87  1  0.22800000  0.24862000  0.99102000  1
  O  O88  1  0.98950000  0.32432000  0.16142000  1
  O  O89  1  0.87900000  0.38480000  0.93732000  1
  O  O90  1  0.86730000  0.48885000  0.17733000  1
  O  O91  1  0.75040000  0.54354000  0.96174000  1
  O  O92  1  0.74960000  0.03826000  0.45646000  1
  O  O93  1  0.63270000  0.82267000  0.51115000  1
  O  O94  1  0.62100000  0.06268000  0.61520000  1
  O  O95  1  0.51050000  0.83858000  0.67568000  1
  O  O96  1  0.48950000  0.16142000  0.32432000  1
  O  O97  1  0.37900000  0.93732000  0.38480000  1
  O  O98  1  0.36730000  0.17733000  0.48885000  1
  O  O99  1  0.25040000  0.96174000  0.54354000  1
  O  O100  1  0.24960000  0.45646000  0.03826000  1
  O  O101  1  0.13270000  0.51115000  0.82267000  1
  O  O102  1  0.12100000  0.61520000  0.06268000  1
  O  O103  1  0.01050000  0.67568000  0.83858000  1
