# generated using pymatgen
data_CdH3C2SN3O4
_symmetry_space_group_name_H-M   'P 1'
_cell_length_a   5.51440000
_cell_length_b   8.00210000
_cell_length_c   9.24670000
_cell_angle_alpha   78.48700000
_cell_angle_beta   72.86900000
_cell_angle_gamma   87.20000000
_symmetry_Int_Tables_number   1
_chemical_formula_structural   CdH3C2SN3O4
_chemical_formula_sum   'Cd2 H6 C4 S2 N6 O8'
_cell_volume   382.05745186
_cell_formula_units_Z   2
loop_
 _symmetry_equiv_pos_site_id
 _symmetry_equiv_pos_as_xyz
  1  'x, y, z'
loop_
 _atom_site_type_symbol
 _atom_site_label
 _atom_site_symmetry_multiplicity
 _atom_site_fract_x
 _atom_site_fract_y
 _atom_site_fract_z
 _atom_site_occupancy
  Cd  Cd0  1  0.00000000  0.00000000  0.00000000  1
  Cd  Cd1  1  0.50000000  0.50000000  0.50000000  1
  H  H2  1  0.07880000  0.51970000  0.24060000  1
  H  H3  1  0.23920000  0.34290000  0.06260000  1
  H  H4  1  0.44410000  0.79920000  0.73220000  1
  H  H5  1  0.55590000  0.20080000  0.26780000  1
  H  H6  1  0.76080000  0.65710000  0.93740000  1
  H  H7  1  0.92120000  0.48030000  0.75940000  1
  C  C8  1  0.00890000  0.56770000  0.77590000  1
  C  C9  1  0.29000000  0.74080000  0.76270000  1
  C  C10  1  0.71000000  0.25920000  0.23730000  1
  C  C11  1  0.99110000  0.43230000  0.22410000  1
  S  S12  1  0.42056000  0.79238000  0.19269000  1
  S  S13  1  0.57944000  0.20762000  0.80731000  1
  N  N14  1  0.08650000  0.33580000  0.12320000  1
  N  N15  1  0.09100000  0.77660000  0.87150000  1
  N  N16  1  0.24790000  0.61130000  0.70030000  1
  N  N17  1  0.75210000  0.38870000  0.29970000  1
  N  N18  1  0.90900000  0.22340000  0.12850000  1
  N  N19  1  0.91350000  0.66420000  0.87680000  1
  O  O20  1  0.24860000  0.93140000  0.16390000  1
  O  O21  1  0.30520000  0.69180000  0.34970000  1
  O  O22  1  0.33470000  0.13660000  0.80900000  1
  O  O23  1  0.46200000  0.68180000  0.08040000  1
  O  O24  1  0.53800000  0.31820000  0.91960000  1
  O  O25  1  0.66530000  0.86340000  0.19100000  1
  O  O26  1  0.69480000  0.30820000  0.65030000  1
  O  O27  1  0.75140000  0.06860000  0.83610000  1
