# generated using pymatgen
data_Cu2H16C20N4Cl
_symmetry_space_group_name_H-M   'P 1'
_cell_length_a   3.66560000
_cell_length_b   12.73792418
_cell_length_c   12.73792418
_cell_angle_alpha   107.39463065
_cell_angle_beta   90.00000000
_cell_angle_gamma   90.00000000
_symmetry_Int_Tables_number   1
_chemical_formula_structural   Cu2H16C20N4Cl
_chemical_formula_sum   'Cu2 H16 C20 N4 Cl1'
_cell_volume   567.56147699
_cell_formula_units_Z   1
loop_
 _symmetry_equiv_pos_site_id
 _symmetry_equiv_pos_as_xyz
  1  'x, y, z'
loop_
 _atom_site_type_symbol
 _atom_site_label
 _atom_site_symmetry_multiplicity
 _atom_site_fract_x
 _atom_site_fract_y
 _atom_site_fract_z
 _atom_site_occupancy
  C  C0  1  0.64260000  0.74330000  0.02010000  1
  C  C1  1  0.35740000  0.02010000  0.74330000  1
  C  C2  1  0.65370000  0.65140000  0.05440000  1
  C  C3  1  0.34630000  0.05440000  0.65140000  1
  C  C4  1  0.43210000  0.44990000  0.12190000  1
  C  C5  1  0.56790000  0.12190000  0.44990000  1
  C  C6  1  0.54400000  0.55180000  0.98440000  1
  C  C7  1  0.45600000  0.98440000  0.55180000  1
  C  C8  1  0.42550000  0.35360000  0.14880000  1
  C  C9  1  0.57450000  0.14880000  0.35360000  1
  C  C10  1  0.42550000  0.64640000  0.85120000  1
  C  C11  1  0.57450000  0.85120000  0.64640000  1
  C  C12  1  0.54400000  0.44820000  0.01560000  1
  C  C13  1  0.45600000  0.01560000  0.44820000  1
  C  C14  1  0.43210000  0.55010000  0.87810000  1
  C  C15  1  0.56790000  0.87810000  0.55010000  1
  C  C16  1  0.65370000  0.34860000  0.94560000  1
  C  C17  1  0.34630000  0.94560000  0.34860000  1
  C  C18  1  0.64260000  0.25670000  0.97990000  1
  C  C19  1  0.35740000  0.97990000  0.25670000  1
  Cl  Cl20  1  0.00000000  0.00000000  0.00000000  1
  Cu  Cu21  1  0.50000000  0.87822000  0.87822000  1
  Cu  Cu22  1  0.50000000  0.12178000  0.12178000  1
  H  H23  1  0.71430000  0.81010000  0.06910000  1
  H  H24  1  0.28570000  0.06910000  0.81010000  1
  H  H25  1  0.73510000  0.65620000  0.12480000  1
  H  H26  1  0.26490000  0.12480000  0.65620000  1
  H  H27  1  0.36350000  0.51580000  0.17320000  1
  H  H28  1  0.63650000  0.17320000  0.51580000  1
  H  H29  1  0.34130000  0.35490000  0.21810000  1
  H  H30  1  0.65870000  0.21810000  0.35490000  1
  H  H31  1  0.34130000  0.64510000  0.78190000  1
  H  H32  1  0.65870000  0.78190000  0.64510000  1
  H  H33  1  0.36350000  0.48420000  0.82680000  1
  H  H34  1  0.63650000  0.82680000  0.48420000  1
  H  H35  1  0.73510000  0.34380000  0.87520000  1
  H  H36  1  0.26490000  0.87520000  0.34380000  1
  H  H37  1  0.71430000  0.18990000  0.93090000  1
  H  H38  1  0.28570000  0.93090000  0.18990000  1
  N  N39  1  0.53420000  0.74200000  0.91980000  1
  N  N40  1  0.46580000  0.91980000  0.74200000  1
  N  N41  1  0.53420000  0.25800000  0.08020000  1
  N  N42  1  0.46580000  0.08020000  0.25800000  1
