# generated using pymatgen
data_ZnH8C14SO6
_symmetry_space_group_name_H-M   'P 1'
_cell_length_a   16.33030000
_cell_length_b   16.98010000
_cell_length_c   20.68470000
_cell_angle_alpha   90.00000000
_cell_angle_beta   90.00000000
_cell_angle_gamma   98.47200000
_symmetry_Int_Tables_number   1
_chemical_formula_structural   ZnH8C14SO6
_chemical_formula_sum   'Zn12 H96 C168 S12 O72'
_cell_volume   5673.07541199
_cell_formula_units_Z   12
loop_
 _symmetry_equiv_pos_site_id
 _symmetry_equiv_pos_as_xyz
  1  'x, y, z'
loop_
 _atom_site_type_symbol
 _atom_site_label
 _atom_site_symmetry_multiplicity
 _atom_site_fract_x
 _atom_site_fract_y
 _atom_site_fract_z
 _atom_site_occupancy
  Zn  Zn0  1  0.97966000  0.74922000  0.32584000  1
  Zn  Zn1  1  0.89719000  0.06049000  0.65028000  1
  Zn  Zn2  1  0.88786000  0.55566000  0.36197000  1
  Zn  Zn3  1  0.61214000  0.94434000  0.86197000  1
  Zn  Zn4  1  0.60281000  0.43951000  0.15028000  1
  Zn  Zn5  1  0.52034000  0.75078000  0.82584000  1
  Zn  Zn6  1  0.47966000  0.24922000  0.17416000  1
  Zn  Zn7  1  0.39719000  0.56049000  0.84972000  1
  Zn  Zn8  1  0.38786000  0.05566000  0.13803000  1
  Zn  Zn9  1  0.11214000  0.44434000  0.63803000  1
  Zn  Zn10  1  0.10281000  0.93951000  0.34972000  1
  Zn  Zn11  1  0.02034000  0.25078000  0.67416000  1
  H  H12  1  0.99600000  0.39100000  0.33130000  1
  H  H13  1  0.98980000  0.44070000  0.21180000  1
  H  H14  1  0.98820000  0.21160000  0.49910000  1
  H  H15  1  0.97090000  0.56350000  0.56500000  1
  H  H16  1  0.96970000  0.78050000  0.14490000  1
  H  H17  1  0.96780000  0.89670000  0.74760000  1
  H  H18  1  0.96600000  0.77830000  0.03370000  1
  H  H19  1  0.96280000  0.60890000  0.88330000  1
  H  H20  1  0.95950000  0.16700000  0.39540000  1
  H  H21  1  0.93430000  0.33740000  0.85060000  1
  H  H22  1  0.92570000  0.28640000  0.06650000  1
  H  H23  1  0.90470000  0.04690000  0.46370000  1
  H  H24  1  0.89650000  0.66200000  0.76520000  1
  H  H25  1  0.88760000  0.38670000  0.94550000  1
  H  H26  1  0.87510000  0.01780000  0.97150000  1
  H  H27  1  0.87430000  0.01620000  0.85980000  1
  H  H28  1  0.83730000  0.91930000  0.78050000  1
  H  H29  1  0.82650000  0.82060000  0.41340000  1
  H  H30  1  0.82240000  0.36040000  0.62190000  1
  H  H31  1  0.81250000  0.34900000  0.08560000  1
  H  H32  1  0.80560000  0.66700000  0.94580000  1
  H  H33  1  0.78960000  0.07750000  0.09650000  1
  H  H34  1  0.77190000  0.05850000  0.49990000  1
  H  H35  1  0.76620000  0.68310000  0.79650000  1
  H  H36  1  0.73380000  0.81690000  0.29650000  1
  H  H37  1  0.72810000  0.44150000  0.99990000  1
  H  H38  1  0.71040000  0.42250000  0.59650000  1
  H  H39  1  0.69440000  0.83300000  0.44580000  1
  H  H40  1  0.68750000  0.15100000  0.58560000  1
  H  H41  1  0.67760000  0.13960000  0.12190000  1
  H  H42  1  0.67350000  0.67940000  0.91340000  1
  H  H43  1  0.66270000  0.58070000  0.28050000  1
  H  H44  1  0.62570000  0.48380000  0.35980000  1
  H  H45  1  0.62490000  0.48220000  0.47150000  1
  H  H46  1  0.61240000  0.11330000  0.44550000  1
  H  H47  1  0.60350000  0.83800000  0.26520000  1
  H  H48  1  0.59530000  0.45310000  0.96370000  1
  H  H49  1  0.57430000  0.21360000  0.56650000  1
  H  H50  1  0.56570000  0.16260000  0.35060000  1
  H  H51  1  0.54050000  0.33300000  0.89540000  1
  H  H52  1  0.53720000  0.89110000  0.38330000  1
  H  H53  1  0.53400000  0.72170000  0.53370000  1
  H  H54  1  0.53220000  0.60330000  0.24760000  1
  H  H55  1  0.53030000  0.71950000  0.64490000  1
  H  H56  1  0.52910000  0.93650000  0.06500000  1
  H  H57  1  0.51180000  0.28840000  0.99910000  1
  H  H58  1  0.51020000  0.05930000  0.71180000  1
  H  H59  1  0.50400000  0.10900000  0.83130000  1
  H  H60  1  0.49600000  0.89100000  0.16870000  1
  H  H61  1  0.48980000  0.94070000  0.28820000  1
  H  H62  1  0.48820000  0.71160000  0.00090000  1
  H  H63  1  0.47090000  0.06350000  0.93500000  1
  H  H64  1  0.46970000  0.28050000  0.35510000  1
  H  H65  1  0.46780000  0.39670000  0.75240000  1
  H  H66  1  0.46600000  0.27830000  0.46630000  1
  H  H67  1  0.46280000  0.10890000  0.61670000  1
  H  H68  1  0.45950000  0.66700000  0.10460000  1
  H  H69  1  0.43430000  0.83740000  0.64940000  1
  H  H70  1  0.42570000  0.78640000  0.43350000  1
  H  H71  1  0.40470000  0.54690000  0.03630000  1
  H  H72  1  0.39650000  0.16200000  0.73480000  1
  H  H73  1  0.38760000  0.88670000  0.55450000  1
  H  H74  1  0.37510000  0.51780000  0.52850000  1
  H  H75  1  0.37430000  0.51620000  0.64020000  1
  H  H76  1  0.33730000  0.41930000  0.71950000  1
  H  H77  1  0.32650000  0.32060000  0.08660000  1
  H  H78  1  0.32240000  0.86040000  0.87810000  1
  H  H79  1  0.31250000  0.84900000  0.41440000  1
  H  H80  1  0.30560000  0.16700000  0.55420000  1
  H  H81  1  0.28960000  0.57750000  0.40350000  1
  H  H82  1  0.27190000  0.55850000  0.00010000  1
  H  H83  1  0.26620000  0.18310000  0.70350000  1
  H  H84  1  0.23380000  0.31690000  0.20350000  1
  H  H85  1  0.22810000  0.94150000  0.50010000  1
  H  H86  1  0.21040000  0.92250000  0.90350000  1
  H  H87  1  0.19440000  0.33300000  0.05420000  1
  H  H88  1  0.18750000  0.65100000  0.91440000  1
  H  H89  1  0.17760000  0.63960000  0.37810000  1
  H  H90  1  0.17350000  0.17940000  0.58660000  1
  H  H91  1  0.16270000  0.08070000  0.21950000  1
  H  H92  1  0.12570000  0.98380000  0.14020000  1
  H  H93  1  0.12490000  0.98220000  0.02850000  1
  H  H94  1  0.11240000  0.61330000  0.05450000  1
  H  H95  1  0.10350000  0.33800000  0.23480000  1
  H  H96  1  0.09530000  0.95310000  0.53630000  1
  H  H97  1  0.07430000  0.71360000  0.93350000  1
  H  H98  1  0.06570000  0.66260000  0.14940000  1
  H  H99  1  0.04050000  0.83300000  0.60460000  1
  H  H100  1  0.03720000  0.39110000  0.11670000  1
  H  H101  1  0.03400000  0.22170000  0.96630000  1
  H  H102  1  0.03220000  0.10330000  0.25240000  1
  H  H103  1  0.03030000  0.21950000  0.85510000  1
  H  H104  1  0.02910000  0.43650000  0.43500000  1
  H  H105  1  0.01180000  0.78840000  0.50090000  1
  H  H106  1  0.01020000  0.55930000  0.78820000  1
  H  H107  1  0.00400000  0.60900000  0.66870000  1
  C  C108  1  0.99960000  0.17840000  0.87830000  1
  C  C109  1  0.99860000  0.81950000  0.05540000  1
  C  C110  1  0.99580000  0.35500000  0.36520000  1
  C  C111  1  0.99110000  0.24780000  0.46520000  1
  C  C112  1  0.99040000  0.58900000  0.25120000  1
  C  C113  1  0.98680000  0.67150000  0.52270000  1
  C  C114  1  0.98580000  0.52440000  0.81980000  1
  C  C115  1  0.98500000  0.61780000  0.57280000  1
  C  C116  1  0.97830000  0.44310000  0.80980000  1
  C  C117  1  0.97650000  0.27540000  0.35400000  1
  C  C118  1  0.97340000  0.22120000  0.40360000  1
  C  C119  1  0.96230000  0.92320000  0.40410000  1
  C  C120  1  0.96130000  0.64370000  0.45500000  1
  C  C121  1  0.95690000  0.55420000  0.87650000  1
  C  C122  1  0.95400000  0.11780000  0.84570000  1
  C  C123  1  0.95370000  0.11790000  0.77430000  1
  C  C124  1  0.95330000  0.11970000  0.97870000  1
  C  C125  1  0.94380000  0.77700000  0.75270000  1
  C  C126  1  0.94040000  0.39210000  0.85730000  1
  C  C127  1  0.92710000  0.85410000  0.75740000  1
  C  C128  1  0.92020000  0.50330000  0.92190000  1
  C  C129  1  0.91190000  0.42110000  0.91370000  1
  C  C130  1  0.90660000  0.05760000  0.88150000  1
  C  C131  1  0.90650000  0.05830000  0.94820000  1
  C  C132  1  0.88410000  0.71370000  0.76780000  1
  C  C133  1  0.87780000  0.93260000  0.43300000  1
  C  C134  1  0.87520000  0.25660000  0.07760000  1
  C  C135  1  0.86780000  0.17680000  0.08140000  1
  C  C136  1  0.86220000  0.00420000  0.46000000  1
  C  C137  1  0.84890000  0.86740000  0.77700000  1
  C  C138  1  0.83760000  0.20770000  0.62710000  1
  C  C139  1  0.81520000  0.86900000  0.42940000  1
  C  C140  1  0.80800000  0.29400000  0.08990000  1
  C  C141  1  0.80630000  0.72620000  0.78680000  1
  C  C142  1  0.79720000  0.68100000  0.31220000  1
  C  C143  1  0.79470000  0.13280000  0.09620000  1
  C  C144  1  0.78780000  0.80360000  0.79150000  1
  C  C145  1  0.78300000  0.01140000  0.48110000  1
  C  C146  1  0.77940000  0.55320000  0.97380000  1
  C  C147  1  0.77220000  0.33010000  0.61060000  1
  C  C148  1  0.76560000  0.24880000  0.60860000  1
  C  C149  1  0.76340000  0.62400000  0.94920000  1
  C  C150  1  0.73660000  0.87600000  0.44920000  1
  C  C151  1  0.73440000  0.25120000  0.10860000  1
  C  C152  1  0.72780000  0.16990000  0.11060000  1
  C  C153  1  0.72060000  0.94680000  0.47380000  1
  C  C154  1  0.71700000  0.48860000  0.98110000  1
  C  C155  1  0.71220000  0.69640000  0.29150000  1
  C  C156  1  0.70530000  0.36720000  0.59620000  1
  C  C157  1  0.70280000  0.81900000  0.81220000  1
  C  C158  1  0.69370000  0.77380000  0.28680000  1
  C  C159  1  0.69200000  0.20600000  0.58990000  1
  C  C160  1  0.68480000  0.63100000  0.92940000  1
  C  C161  1  0.66240000  0.29230000  0.12710000  1
  C  C162  1  0.65110000  0.63260000  0.27700000  1
  C  C163  1  0.63780000  0.49580000  0.96000000  1
  C  C164  1  0.63220000  0.32320000  0.58140000  1
  C  C165  1  0.62480000  0.24340000  0.57760000  1
  C  C166  1  0.62220000  0.56740000  0.93300000  1
  C  C167  1  0.61590000  0.78630000  0.26780000  1
  C  C168  1  0.59350000  0.44170000  0.44820000  1
  C  C169  1  0.59340000  0.44240000  0.38150000  1
  C  C170  1  0.58810000  0.07890000  0.41370000  1
  C  C171  1  0.57980000  0.99670000  0.42190000  1
  C  C172  1  0.57290000  0.64590000  0.25740000  1
  C  C173  1  0.55960000  0.10790000  0.35730000  1
  C  C174  1  0.55620000  0.72300000  0.25270000  1
  C  C175  1  0.54670000  0.38030000  0.47870000  1
  C  C176  1  0.54630000  0.38210000  0.27430000  1
  C  C177  1  0.54600000  0.38220000  0.34570000  1
  C  C178  1  0.54310000  0.94580000  0.37650000  1
  C  C179  1  0.53870000  0.85630000  0.95500000  1
  C  C180  1  0.53770000  0.57680000  0.90410000  1
  C  C181  1  0.52660000  0.27880000  0.90360000  1
  C  C182  1  0.52350000  0.22460000  0.85400000  1
  C  C183  1  0.52170000  0.05690000  0.30980000  1
  C  C184  1  0.51500000  0.88220000  0.07280000  1
  C  C185  1  0.51420000  0.97560000  0.31980000  1
  C  C186  1  0.51320000  0.82850000  0.02270000  1
  C  C187  1  0.50960000  0.91100000  0.75120000  1
  C  C188  1  0.50890000  0.25220000  0.96520000  1
  C  C189  1  0.50420000  0.14500000  0.86520000  1
  C  C190  1  0.50140000  0.68050000  0.55540000  1
  C  C191  1  0.50040000  0.32160000  0.37830000  1
  C  C192  1  0.49960000  0.67840000  0.62170000  1
  C  C193  1  0.49860000  0.31950000  0.44460000  1
  C  C194  1  0.49580000  0.85500000  0.13480000  1
  C  C195  1  0.49110000  0.74780000  0.03480000  1
  C  C196  1  0.49040000  0.08900000  0.24880000  1
  C  C197  1  0.48680000  0.17150000  0.97730000  1
  C  C198  1  0.48580000  0.02440000  0.68020000  1
  C  C199  1  0.48500000  0.11780000  0.92720000  1
  C  C200  1  0.47830000  0.94310000  0.69020000  1
  C  C201  1  0.47650000  0.77540000  0.14600000  1
  C  C202  1  0.47340000  0.72120000  0.09640000  1
  C  C203  1  0.46230000  0.42320000  0.09590000  1
  C  C204  1  0.46130000  0.14370000  0.04500000  1
  C  C205  1  0.45690000  0.05420000  0.62350000  1
  C  C206  1  0.45400000  0.61780000  0.65430000  1
  C  C207  1  0.45370000  0.61790000  0.72570000  1
  C  C208  1  0.45330000  0.61970000  0.52130000  1
  C  C209  1  0.44380000  0.27700000  0.74730000  1
  C  C210  1  0.44040000  0.89210000  0.64270000  1
  C  C211  1  0.42710000  0.35410000  0.74260000  1
  C  C212  1  0.42020000  0.00330000  0.57810000  1
  C  C213  1  0.41190000  0.92110000  0.58630000  1
  C  C214  1  0.40660000  0.55760000  0.61850000  1
  C  C215  1  0.40650000  0.55830000  0.55180000  1
  C  C216  1  0.38410000  0.21370000  0.73220000  1
  C  C217  1  0.37780000  0.43260000  0.06700000  1
  C  C218  1  0.37520000  0.75660000  0.42240000  1
  C  C219  1  0.36780000  0.67680000  0.41860000  1
  C  C220  1  0.36220000  0.50420000  0.04000000  1
  C  C221  1  0.34890000  0.36740000  0.72300000  1
  C  C222  1  0.33760000  0.70770000  0.87290000  1
  C  C223  1  0.31520000  0.36900000  0.07060000  1
  C  C224  1  0.30800000  0.79400000  0.41010000  1
  C  C225  1  0.30630000  0.22620000  0.71320000  1
  C  C226  1  0.29720000  0.18100000  0.18780000  1
  C  C227  1  0.29470000  0.63280000  0.40380000  1
  C  C228  1  0.28780000  0.30360000  0.70850000  1
  C  C229  1  0.28300000  0.51140000  0.01890000  1
  C  C230  1  0.27940000  0.05320000  0.52620000  1
  C  C231  1  0.27220000  0.83010000  0.88940000  1
  C  C232  1  0.26560000  0.74880000  0.89140000  1
  C  C233  1  0.26340000  0.12400000  0.55080000  1
  C  C234  1  0.23660000  0.37600000  0.05080000  1
  C  C235  1  0.23440000  0.75120000  0.39140000  1
  C  C236  1  0.22780000  0.66990000  0.38940000  1
  C  C237  1  0.22060000  0.44680000  0.02620000  1
  C  C238  1  0.21700000  0.98860000  0.51890000  1
  C  C239  1  0.21220000  0.19640000  0.20850000  1
  C  C240  1  0.20530000  0.86720000  0.90380000  1
  C  C241  1  0.20280000  0.31900000  0.68780000  1
  C  C242  1  0.19370000  0.27380000  0.21320000  1
  C  C243  1  0.19200000  0.70600000  0.91010000  1
  C  C244  1  0.18480000  0.13100000  0.57060000  1
  C  C245  1  0.16240000  0.79230000  0.37290000  1
  C  C246  1  0.15110000  0.13260000  0.22300000  1
  C  C247  1  0.13780000  0.99580000  0.54000000  1
  C  C248  1  0.13220000  0.82320000  0.91860000  1
  C  C249  1  0.12480000  0.74340000  0.92240000  1
  C  C250  1  0.12220000  0.06740000  0.56700000  1
  C  C251  1  0.11590000  0.28630000  0.23220000  1
  C  C252  1  0.09350000  0.94170000  0.05180000  1
  C  C253  1  0.09340000  0.94240000  0.11850000  1
  C  C254  1  0.08810000  0.57890000  0.08630000  1
  C  C255  1  0.07980000  0.49670000  0.07810000  1
  C  C256  1  0.07290000  0.14590000  0.24260000  1
  C  C257  1  0.05960000  0.60790000  0.14270000  1
  C  C258  1  0.05620000  0.22300000  0.24730000  1
  C  C259  1  0.04670000  0.88030000  0.02130000  1
  C  C260  1  0.04630000  0.88210000  0.22570000  1
  C  C261  1  0.04600000  0.88220000  0.15430000  1
  C  C262  1  0.04310000  0.44580000  0.12350000  1
  C  C263  1  0.03870000  0.35630000  0.54500000  1
  C  C264  1  0.03770000  0.07680000  0.59590000  1
  C  C265  1  0.02660000  0.77880000  0.59640000  1
  C  C266  1  0.02350000  0.72460000  0.64600000  1
  C  C267  1  0.02170000  0.55690000  0.19020000  1
  C  C268  1  0.01500000  0.38220000  0.42720000  1
  C  C269  1  0.01420000  0.47560000  0.18020000  1
  C  C270  1  0.01320000  0.32850000  0.47730000  1
  C  C271  1  0.00960000  0.41100000  0.74880000  1
  C  C272  1  0.00890000  0.75220000  0.53480000  1
  C  C273  1  0.00420000  0.64500000  0.63480000  1
  C  C274  1  0.00140000  0.18050000  0.94460000  1
  C  C275  1  0.00040000  0.82160000  0.12170000  1
  S  S276  1  0.95811000  0.24087000  0.27397000  1
  S  S277  1  0.95407000  0.12670000  0.06473000  1
  S  S278  1  0.88237000  0.54188000  0.99400000  1
  S  S279  1  0.61763000  0.95812000  0.49400000  1
  S  S280  1  0.54593000  0.37330000  0.56473000  1
  S  S281  1  0.54189000  0.25913000  0.77397000  1
  S  S282  1  0.45811000  0.74087000  0.22603000  1
  S  S283  1  0.45407000  0.62670000  0.43527000  1
  S  S284  1  0.38237000  0.04188000  0.50600000  1
  S  S285  1  0.11763000  0.45812000  0.00600000  1
  S  S286  1  0.04593000  0.87330000  0.93527000  1
  S  S287  1  0.04189000  0.75913000  0.72603000  1
  O  O288  1  0.99620000  0.83000000  0.25320000  1
  O  O289  1  0.99310000  0.66200000  0.25720000  1
  O  O290  1  0.98940000  0.01330000  0.60400000  1
  O  O291  1  0.97710000  0.85760000  0.38900000  1
  O  O292  1  0.97310000  0.82120000  0.91560000  1
  O  O293  1  0.96150000  0.53710000  0.29300000  1
  O  O294  1  0.96130000  0.69080000  0.41230000  1
  O  O295  1  0.93690000  0.04790000  0.08950000  1
  O  O296  1  0.93470000  0.30490000  0.23710000  1
  O  O297  1  0.93410000  0.57010000  0.44780000  1
  O  O298  1  0.92810000  0.61970000  0.00400000  1
  O  O299  1  0.90440000  0.16540000  0.27660000  1
  O  O300  1  0.90390000  0.06630000  0.74460000  1
  O  O301  1  0.89650000  0.24740000  0.65520000  1
  O  O302  1  0.88020000  0.48260000  0.04310000  1
  O  O303  1  0.85400000  0.73870000  0.31220000  1
  O  O304  1  0.83060000  0.13530000  0.61400000  1
  O  O305  1  0.80200000  0.60900000  0.32680000  1
  O  O306  1  0.69800000  0.89100000  0.82680000  1
  O  O307  1  0.66940000  0.36470000  0.11400000  1
  O  O308  1  0.64600000  0.76130000  0.81220000  1
  O  O309  1  0.61980000  0.01740000  0.54310000  1
  O  O310  1  0.60350000  0.25260000  0.15520000  1
  O  O311  1  0.59610000  0.43370000  0.24460000  1
  O  O312  1  0.59560000  0.33460000  0.77660000  1
  O  O313  1  0.57190000  0.88030000  0.50400000  1
  O  O314  1  0.56590000  0.92990000  0.94780000  1
  O  O315  1  0.56530000  0.19510000  0.73710000  1
  O  O316  1  0.56310000  0.45210000  0.58950000  1
  O  O317  1  0.53870000  0.80920000  0.91230000  1
  O  O318  1  0.53850000  0.96290000  0.79300000  1
  O  O319  1  0.52690000  0.67880000  0.41560000  1
  O  O320  1  0.52290000  0.64240000  0.88900000  1
  O  O321  1  0.51060000  0.48670000  0.10400000  1
  O  O322  1  0.50690000  0.83800000  0.75720000  1
  O  O323  1  0.50380000  0.67000000  0.75320000  1
  O  O324  1  0.49620000  0.33000000  0.24680000  1
  O  O325  1  0.49310000  0.16200000  0.24280000  1
  O  O326  1  0.48940000  0.51330000  0.89600000  1
  O  O327  1  0.47710000  0.35760000  0.11100000  1
  O  O328  1  0.47310000  0.32120000  0.58440000  1
  O  O329  1  0.46150000  0.03710000  0.20700000  1
  O  O330  1  0.46130000  0.19080000  0.08770000  1
  O  O331  1  0.43690000  0.54790000  0.41050000  1
  O  O332  1  0.43470000  0.80490000  0.26290000  1
  O  O333  1  0.43410000  0.07010000  0.05220000  1
  O  O334  1  0.42810000  0.11970000  0.49600000  1
  O  O335  1  0.40440000  0.66540000  0.22340000  1
  O  O336  1  0.40390000  0.56630000  0.75540000  1
  O  O337  1  0.39650000  0.74740000  0.84480000  1
  O  O338  1  0.38020000  0.98260000  0.45690000  1
  O  O339  1  0.35400000  0.23870000  0.18780000  1
  O  O340  1  0.33060000  0.63530000  0.88600000  1
  O  O341  1  0.30200000  0.10900000  0.17320000  1
  O  O342  1  0.19800000  0.39100000  0.67320000  1
  O  O343  1  0.16940000  0.86470000  0.38600000  1
  O  O344  1  0.14600000  0.26130000  0.68780000  1
  O  O345  1  0.11980000  0.51740000  0.95690000  1
  O  O346  1  0.10350000  0.75260000  0.34480000  1
  O  O347  1  0.09610000  0.93370000  0.25540000  1
  O  O348  1  0.09560000  0.83460000  0.72340000  1
  O  O349  1  0.07190000  0.38030000  0.99600000  1
  O  O350  1  0.06590000  0.42990000  0.55220000  1
  O  O351  1  0.06530000  0.69510000  0.76290000  1
  O  O352  1  0.06310000  0.95210000  0.91050000  1
  O  O353  1  0.03870000  0.30920000  0.58770000  1
  O  O354  1  0.03850000  0.46290000  0.70700000  1
  O  O355  1  0.02690000  0.17880000  0.08440000  1
  O  O356  1  0.02290000  0.14240000  0.61100000  1
  O  O357  1  0.01060000  0.98670000  0.39600000  1
  O  O358  1  0.00690000  0.33800000  0.74280000  1
  O  O359  1  0.00380000  0.17000000  0.74680000  1
