# generated using pymatgen
data_Gd5H2(C2O5)4
_symmetry_space_group_name_H-M   'P 1'
_cell_length_a   10.92500000
_cell_length_b   10.92500000
_cell_length_c   12.81955314
_cell_angle_alpha   115.22074647
_cell_angle_beta   115.22074647
_cell_angle_gamma   90.00000000
_symmetry_Int_Tables_number   1
_chemical_formula_structural   Gd5H2(C2O5)4
_chemical_formula_sum   'Gd10 H4 C16 O40'
_cell_volume   1221.06772156
_cell_formula_units_Z   2
loop_
 _symmetry_equiv_pos_site_id
 _symmetry_equiv_pos_as_xyz
  1  'x, y, z'
loop_
 _atom_site_type_symbol
 _atom_site_label
 _atom_site_symmetry_multiplicity
 _atom_site_fract_x
 _atom_site_fract_y
 _atom_site_fract_z
 _atom_site_occupancy
  C  C0  1  0.53726000  0.97096000  0.07392000  1
  C  C1  1  0.46334000  0.02904000  0.92608000  1
  C  C2  1  0.10296000  0.53666000  0.07392000  1
  C  C3  1  0.02904000  0.46334000  0.92608000  1
  C  C4  1  0.23380000  0.23380000  0.17420000  1
  C  C5  1  0.05960000  0.76620000  0.82580000  1
  C  C6  1  0.42650000  0.42650000  0.54360000  1
  C  C7  1  0.88290000  0.57350000  0.45640000  1
  C  C8  1  0.11710000  0.11710000  0.54360000  1
  C  C9  1  0.57350000  0.88290000  0.45640000  1
  C  C10  1  0.94040000  0.94040000  0.17420000  1
  C  C11  1  0.76620000  0.05960000  0.82580000  1
  C  C12  1  0.97096000  0.53726000  0.07392000  1
  C  C13  1  0.89704000  0.46274000  0.92608000  1
  C  C14  1  0.53666000  0.10296000  0.07392000  1
  C  C15  1  0.46274000  0.89704000  0.92608000  1
  Gd  Gd16  1  0.34478000  0.34478000  0.68956000  1
  Gd  Gd17  1  0.65522000  0.65522000  0.31044000  1
  Gd  Gd18  1  0.77365000  0.03147000  0.37008000  1
  Gd  Gd19  1  0.40357000  0.96853000  0.62992000  1
  Gd  Gd20  1  0.33861000  0.59643000  0.37008000  1
  Gd  Gd21  1  0.96853000  0.40357000  0.62992000  1
  Gd  Gd22  1  0.03147000  0.77365000  0.37008000  1
  Gd  Gd23  1  0.66139000  0.22635000  0.62992000  1
  Gd  Gd24  1  0.59643000  0.33861000  0.37008000  1
  Gd  Gd25  1  0.22635000  0.66139000  0.62992000  1
  H  H26  1  0.16150000  0.16150000  0.10080000  1
  H  H27  1  0.06070000  0.83850000  0.89920000  1
  H  H28  1  0.93930000  0.93930000  0.10080000  1
  H  H29  1  0.83850000  0.06070000  0.89920000  1
  O  O30  1  0.57959000  0.93169000  0.15518000  1
  O  O31  1  0.42441000  0.06831000  0.84482000  1
  O  O32  1  0.32250000  0.46250000  0.56440000  1
  O  O33  1  0.75810000  0.53750000  0.43560000  1
  O  O34  1  0.85624000  0.19134000  0.60028000  1
  O  O35  1  0.25596000  0.80866000  0.39972000  1
  O  O36  1  0.21420000  0.36160000  0.22920000  1
  O  O37  1  0.98500000  0.63840000  0.77080000  1
  O  O38  1  0.40894000  0.74404000  0.60028000  1
  O  O39  1  0.80866000  0.25596000  0.39972000  1
  O  O40  1  0.22349000  0.57559000  0.15518000  1
  O  O41  1  0.06831000  0.42441000  0.84482000  1
  O  O42  1  0.78950000  0.78950000  0.27000000  1
  O  O43  1  0.51950000  0.21050000  0.73000000  1
  O  O44  1  0.46250000  0.32250000  0.56440000  1
  O  O45  1  0.89810000  0.67750000  0.43560000  1
  O  O46  1  0.46500000  0.46500000  0.47920000  1
  O  O47  1  0.98580000  0.53500000  0.52080000  1
  O  O48  1  0.36160000  0.21420000  0.22920000  1
  O  O49  1  0.13240000  0.78580000  0.77080000  1
  O  O50  1  0.86760000  0.01500000  0.22920000  1
  O  O51  1  0.63840000  0.98500000  0.77080000  1
  O  O52  1  0.01420000  0.01420000  0.47920000  1
  O  O53  1  0.53500000  0.98580000  0.52080000  1
  O  O54  1  0.10190000  0.24190000  0.56440000  1
  O  O55  1  0.53750000  0.75810000  0.43560000  1
  O  O56  1  0.48050000  0.48050000  0.27000000  1
  O  O57  1  0.21050000  0.51950000  0.73000000  1
  O  O58  1  0.93169000  0.57959000  0.15518000  1
  O  O59  1  0.77651000  0.42041000  0.84482000  1
  O  O60  1  0.19134000  0.85624000  0.60028000  1
  O  O61  1  0.59106000  0.14376000  0.39972000  1
  O  O62  1  0.01500000  0.86760000  0.22920000  1
  O  O63  1  0.78580000  0.13240000  0.77080000  1
  O  O64  1  0.74404000  0.40894000  0.60028000  1
  O  O65  1  0.14376000  0.59106000  0.39972000  1
  O  O66  1  0.24190000  0.10190000  0.56440000  1
  O  O67  1  0.67750000  0.89810000  0.43560000  1
  O  O68  1  0.57559000  0.22349000  0.15518000  1
  O  O69  1  0.42041000  0.77651000  0.84482000  1
