# generated using pymatgen
data_CuH14C23NO4
_symmetry_space_group_name_H-M   'P 1'
_cell_length_a   27.51200000
_cell_length_b   27.51200000
_cell_length_c   27.51200000
_cell_angle_alpha   90.00000000
_cell_angle_beta   90.00000000
_cell_angle_gamma   90.00000000
_symmetry_Int_Tables_number   1
_chemical_formula_structural   CuH14C23NO4
_chemical_formula_sum   'Cu12 H168 C276 N12 O48'
_cell_volume   20824.11188173
_cell_formula_units_Z   12
loop_
 _symmetry_equiv_pos_site_id
 _symmetry_equiv_pos_as_xyz
  1  'x, y, z'
loop_
 _atom_site_type_symbol
 _atom_site_label
 _atom_site_symmetry_multiplicity
 _atom_site_fract_x
 _atom_site_fract_y
 _atom_site_fract_z
 _atom_site_occupancy
  Cu  Cu0  1  0.00000000  0.20224000  0.50000000  1
  Cu  Cu1  1  0.00000000  0.29776000  0.50000000  1
  Cu  Cu2  1  0.00000000  0.70224000  0.50000000  1
  Cu  Cu3  1  0.00000000  0.79776000  0.50000000  1
  Cu  Cu4  1  0.20224000  0.50000000  0.00000000  1
  Cu  Cu5  1  0.29776000  0.50000000  0.00000000  1
  Cu  Cu6  1  0.50000000  0.00000000  0.20224000  1
  Cu  Cu7  1  0.50000000  0.00000000  0.29776000  1
  Cu  Cu8  1  0.50000000  0.00000000  0.70224000  1
  Cu  Cu9  1  0.50000000  0.00000000  0.79776000  1
  Cu  Cu10  1  0.70224000  0.50000000  0.00000000  1
  Cu  Cu11  1  0.79776000  0.50000000  0.00000000  1
  H  H12  1  0.00000000  0.38000000  0.42810000  1
  H  H13  1  0.00000000  0.38000000  0.57190000  1
  H  H14  1  0.00000000  0.46490000  0.42840000  1
  H  H15  1  0.00000000  0.46490000  0.57160000  1
  H  H16  1  0.00000000  0.53510000  0.42840000  1
  H  H17  1  0.00000000  0.53510000  0.57160000  1
  H  H18  1  0.00000000  0.62000000  0.42810000  1
  H  H19  1  0.00000000  0.62000000  0.57190000  1
  H  H20  1  0.03510000  0.50000000  0.07160000  1
  H  H21  1  0.03510000  0.50000000  0.92840000  1
  H  H22  1  0.07160000  0.03510000  0.50000000  1
  H  H23  1  0.07160000  0.96490000  0.50000000  1
  H  H24  1  0.07190000  0.12000000  0.50000000  1
  H  H25  1  0.07190000  0.88000000  0.50000000  1
  H  H26  1  0.10890000  0.32350000  0.38980000  1
  H  H27  1  0.10890000  0.32350000  0.61020000  1
  H  H28  1  0.10890000  0.67650000  0.38980000  1
  H  H29  1  0.10890000  0.67650000  0.61020000  1
  H  H30  1  0.11020000  0.17650000  0.39110000  1
  H  H31  1  0.11020000  0.17650000  0.60890000  1
  H  H32  1  0.11020000  0.82350000  0.39110000  1
  H  H33  1  0.11020000  0.82350000  0.60890000  1
  H  H34  1  0.12000000  0.50000000  0.07190000  1
  H  H35  1  0.12000000  0.50000000  0.92810000  1
  H  H36  1  0.16840000  0.32240000  0.33030000  1
  H  H37  1  0.16840000  0.32240000  0.66970000  1
  H  H38  1  0.16840000  0.67760000  0.33030000  1
  H  H39  1  0.16840000  0.67760000  0.66970000  1
  H  H40  1  0.16970000  0.17760000  0.33160000  1
  H  H41  1  0.16970000  0.17760000  0.66840000  1
  H  H42  1  0.16970000  0.82240000  0.33160000  1
  H  H43  1  0.16970000  0.82240000  0.66840000  1
  H  H44  1  0.17650000  0.39110000  0.11020000  1
  H  H45  1  0.17650000  0.39110000  0.88980000  1
  H  H46  1  0.17650000  0.60890000  0.11020000  1
  H  H47  1  0.17650000  0.60890000  0.88980000  1
  H  H48  1  0.17760000  0.33160000  0.16970000  1
  H  H49  1  0.17760000  0.33160000  0.83030000  1
  H  H50  1  0.17760000  0.66840000  0.16970000  1
  H  H51  1  0.17760000  0.66840000  0.83030000  1
  H  H52  1  0.18960000  0.31040000  0.25000000  1
  H  H53  1  0.18960000  0.31040000  0.75000000  1
  H  H54  1  0.18960000  0.68960000  0.25000000  1
  H  H55  1  0.18960000  0.68960000  0.75000000  1
  H  H56  1  0.25000000  0.18960000  0.31040000  1
  H  H57  1  0.25000000  0.18960000  0.68960000  1
  H  H58  1  0.25000000  0.81040000  0.31040000  1
  H  H59  1  0.25000000  0.81040000  0.68960000  1
  H  H60  1  0.31040000  0.25000000  0.18960000  1
  H  H61  1  0.31040000  0.25000000  0.81040000  1
  H  H62  1  0.31040000  0.75000000  0.18960000  1
  H  H63  1  0.31040000  0.75000000  0.81040000  1
  H  H64  1  0.32240000  0.33030000  0.16840000  1
  H  H65  1  0.32240000  0.33030000  0.83160000  1
  H  H66  1  0.32240000  0.66970000  0.16840000  1
  H  H67  1  0.32240000  0.66970000  0.83160000  1
  H  H68  1  0.32350000  0.38980000  0.10890000  1
  H  H69  1  0.32350000  0.38980000  0.89110000  1
  H  H70  1  0.32350000  0.61020000  0.10890000  1
  H  H71  1  0.32350000  0.61020000  0.89110000  1
  H  H72  1  0.33030000  0.16840000  0.32240000  1
  H  H73  1  0.33030000  0.16840000  0.67760000  1
  H  H74  1  0.33030000  0.83160000  0.32240000  1
  H  H75  1  0.33030000  0.83160000  0.67760000  1
  H  H76  1  0.33160000  0.16970000  0.17760000  1
  H  H77  1  0.33160000  0.16970000  0.82240000  1
  H  H78  1  0.33160000  0.83030000  0.17760000  1
  H  H79  1  0.33160000  0.83030000  0.82240000  1
  H  H80  1  0.38000000  0.42810000  0.00000000  1
  H  H81  1  0.38000000  0.57190000  0.00000000  1
  H  H82  1  0.38980000  0.10890000  0.32350000  1
  H  H83  1  0.38980000  0.10890000  0.67650000  1
  H  H84  1  0.38980000  0.89110000  0.32350000  1
  H  H85  1  0.38980000  0.89110000  0.67650000  1
  H  H86  1  0.39110000  0.11020000  0.17650000  1
  H  H87  1  0.39110000  0.11020000  0.82350000  1
  H  H88  1  0.39110000  0.88980000  0.17650000  1
  H  H89  1  0.39110000  0.88980000  0.82350000  1
  H  H90  1  0.42810000  0.00000000  0.38000000  1
  H  H91  1  0.42810000  0.00000000  0.62000000  1
  H  H92  1  0.42840000  0.00000000  0.46490000  1
  H  H93  1  0.42840000  0.00000000  0.53510000  1
  H  H94  1  0.46490000  0.42840000  0.00000000  1
  H  H95  1  0.46490000  0.57160000  0.00000000  1
  H  H96  1  0.50000000  0.07160000  0.03510000  1
  H  H97  1  0.50000000  0.07160000  0.96490000  1
  H  H98  1  0.50000000  0.07190000  0.12000000  1
  H  H99  1  0.50000000  0.07190000  0.88000000  1
  H  H100  1  0.50000000  0.92810000  0.12000000  1
  H  H101  1  0.50000000  0.92810000  0.88000000  1
  H  H102  1  0.50000000  0.92840000  0.03510000  1
  H  H103  1  0.50000000  0.92840000  0.96490000  1
  H  H104  1  0.53510000  0.42840000  0.00000000  1
  H  H105  1  0.53510000  0.57160000  0.00000000  1
  H  H106  1  0.57160000  0.00000000  0.46490000  1
  H  H107  1  0.57160000  0.00000000  0.53510000  1
  H  H108  1  0.57190000  0.00000000  0.38000000  1
  H  H109  1  0.57190000  0.00000000  0.62000000  1
  H  H110  1  0.60890000  0.11020000  0.17650000  1
  H  H111  1  0.60890000  0.11020000  0.82350000  1
  H  H112  1  0.60890000  0.88980000  0.17650000  1
  H  H113  1  0.60890000  0.88980000  0.82350000  1
  H  H114  1  0.61020000  0.10890000  0.32350000  1
  H  H115  1  0.61020000  0.10890000  0.67650000  1
  H  H116  1  0.61020000  0.89110000  0.32350000  1
  H  H117  1  0.61020000  0.89110000  0.67650000  1
  H  H118  1  0.62000000  0.42810000  0.00000000  1
  H  H119  1  0.62000000  0.57190000  0.00000000  1
  H  H120  1  0.66840000  0.16970000  0.17760000  1
  H  H121  1  0.66840000  0.16970000  0.82240000  1
  H  H122  1  0.66840000  0.83030000  0.17760000  1
  H  H123  1  0.66840000  0.83030000  0.82240000  1
  H  H124  1  0.66970000  0.16840000  0.32240000  1
  H  H125  1  0.66970000  0.16840000  0.67760000  1
  H  H126  1  0.66970000  0.83160000  0.32240000  1
  H  H127  1  0.66970000  0.83160000  0.67760000  1
  H  H128  1  0.67650000  0.38980000  0.10890000  1
  H  H129  1  0.67650000  0.38980000  0.89110000  1
  H  H130  1  0.67650000  0.61020000  0.10890000  1
  H  H131  1  0.67650000  0.61020000  0.89110000  1
  H  H132  1  0.67760000  0.33030000  0.16840000  1
  H  H133  1  0.67760000  0.33030000  0.83160000  1
  H  H134  1  0.67760000  0.66970000  0.16840000  1
  H  H135  1  0.67760000  0.66970000  0.83160000  1
  H  H136  1  0.68960000  0.25000000  0.18960000  1
  H  H137  1  0.68960000  0.25000000  0.81040000  1
  H  H138  1  0.68960000  0.75000000  0.18960000  1
  H  H139  1  0.68960000  0.75000000  0.81040000  1
  H  H140  1  0.75000000  0.18960000  0.31040000  1
  H  H141  1  0.75000000  0.18960000  0.68960000  1
  H  H142  1  0.75000000  0.81040000  0.31040000  1
  H  H143  1  0.75000000  0.81040000  0.68960000  1
  H  H144  1  0.81040000  0.31040000  0.25000000  1
  H  H145  1  0.81040000  0.31040000  0.75000000  1
  H  H146  1  0.81040000  0.68960000  0.25000000  1
  H  H147  1  0.81040000  0.68960000  0.75000000  1
  H  H148  1  0.82240000  0.33160000  0.16970000  1
  H  H149  1  0.82240000  0.33160000  0.83030000  1
  H  H150  1  0.82240000  0.66840000  0.16970000  1
  H  H151  1  0.82240000  0.66840000  0.83030000  1
  H  H152  1  0.82350000  0.39110000  0.11020000  1
  H  H153  1  0.82350000  0.39110000  0.88980000  1
  H  H154  1  0.82350000  0.60890000  0.11020000  1
  H  H155  1  0.82350000  0.60890000  0.88980000  1
  H  H156  1  0.83030000  0.17760000  0.33160000  1
  H  H157  1  0.83030000  0.17760000  0.66840000  1
  H  H158  1  0.83030000  0.82240000  0.33160000  1
  H  H159  1  0.83030000  0.82240000  0.66840000  1
  H  H160  1  0.83160000  0.32240000  0.33030000  1
  H  H161  1  0.83160000  0.32240000  0.66970000  1
  H  H162  1  0.83160000  0.67760000  0.33030000  1
  H  H163  1  0.83160000  0.67760000  0.66970000  1
  H  H164  1  0.88000000  0.50000000  0.07190000  1
  H  H165  1  0.88000000  0.50000000  0.92810000  1
  H  H166  1  0.88980000  0.17650000  0.39110000  1
  H  H167  1  0.88980000  0.17650000  0.60890000  1
  H  H168  1  0.88980000  0.82350000  0.39110000  1
  H  H169  1  0.88980000  0.82350000  0.60890000  1
  H  H170  1  0.89110000  0.32350000  0.38980000  1
  H  H171  1  0.89110000  0.32350000  0.61020000  1
  H  H172  1  0.89110000  0.67650000  0.38980000  1
  H  H173  1  0.89110000  0.67650000  0.61020000  1
  H  H174  1  0.92810000  0.12000000  0.50000000  1
  H  H175  1  0.92810000  0.88000000  0.50000000  1
  H  H176  1  0.92840000  0.03510000  0.50000000  1
  H  H177  1  0.92840000  0.96490000  0.50000000  1
  H  H178  1  0.96490000  0.50000000  0.07160000  1
  H  H179  1  0.96490000  0.50000000  0.92840000  1
  C  C180  1  0.00000000  0.02490000  0.50000000  1
  C  C181  1  0.00000000  0.39730000  0.45710000  1
  C  C182  1  0.00000000  0.39730000  0.54290000  1
  C  C183  1  0.00000000  0.44840000  0.45790000  1
  C  C184  1  0.00000000  0.44840000  0.54210000  1
  C  C185  1  0.00000000  0.47510000  0.50000000  1
  C  C186  1  0.00000000  0.52490000  0.50000000  1
  C  C187  1  0.00000000  0.55160000  0.45790000  1
  C  C188  1  0.00000000  0.55160000  0.54210000  1
  C  C189  1  0.00000000  0.60270000  0.45710000  1
  C  C190  1  0.00000000  0.60270000  0.54290000  1
  C  C191  1  0.00000000  0.97510000  0.50000000  1
  C  C192  1  0.02490000  0.50000000  0.00000000  1
  C  C193  1  0.04210000  0.05160000  0.50000000  1
  C  C194  1  0.04210000  0.94840000  0.50000000  1
  C  C195  1  0.04290000  0.10270000  0.50000000  1
  C  C196  1  0.04290000  0.89730000  0.50000000  1
  C  C197  1  0.05160000  0.50000000  0.04210000  1
  C  C198  1  0.05160000  0.50000000  0.95790000  1
  C  C199  1  0.06478000  0.25000000  0.43522000  1
  C  C200  1  0.06478000  0.25000000  0.56478000  1
  C  C201  1  0.06478000  0.75000000  0.43522000  1
  C  C202  1  0.06478000  0.75000000  0.56478000  1
  C  C203  1  0.10270000  0.50000000  0.04290000  1
  C  C204  1  0.10270000  0.50000000  0.95710000  1
  C  C205  1  0.10335000  0.25000000  0.39665000  1
  C  C206  1  0.10335000  0.25000000  0.60335000  1
  C  C207  1  0.10335000  0.75000000  0.39665000  1
  C  C208  1  0.10335000  0.75000000  0.60335000  1
  C  C209  1  0.12094000  0.29410000  0.37826000  1
  C  C210  1  0.12094000  0.29410000  0.62174000  1
  C  C211  1  0.12094000  0.70590000  0.37826000  1
  C  C212  1  0.12094000  0.70590000  0.62174000  1
  C  C213  1  0.12174000  0.20590000  0.37906000  1
  C  C214  1  0.12174000  0.20590000  0.62094000  1
  C  C215  1  0.12174000  0.79410000  0.37906000  1
  C  C216  1  0.12174000  0.79410000  0.62094000  1
  C  C217  1  0.15661000  0.29319000  0.34260000  1
  C  C218  1  0.15661000  0.29319000  0.65740000  1
  C  C219  1  0.15661000  0.70681000  0.34260000  1
  C  C220  1  0.15661000  0.70681000  0.65740000  1
  C  C221  1  0.15740000  0.20681000  0.34339000  1
  C  C222  1  0.15740000  0.20681000  0.65661000  1
  C  C223  1  0.15740000  0.79319000  0.34339000  1
  C  C224  1  0.15740000  0.79319000  0.65661000  1
  C  C225  1  0.17507000  0.25000000  0.32493000  1
  C  C226  1  0.17507000  0.25000000  0.67507000  1
  C  C227  1  0.17507000  0.75000000  0.32493000  1
  C  C228  1  0.17507000  0.75000000  0.67507000  1
  C  C229  1  0.20590000  0.37906000  0.12174000  1
  C  C230  1  0.20590000  0.37906000  0.87826000  1
  C  C231  1  0.20590000  0.62094000  0.12174000  1
  C  C232  1  0.20590000  0.62094000  0.87826000  1
  C  C233  1  0.20681000  0.34339000  0.15740000  1
  C  C234  1  0.20681000  0.34339000  0.84260000  1
  C  C235  1  0.20681000  0.65661000  0.15740000  1
  C  C236  1  0.20681000  0.65661000  0.84260000  1
  C  C237  1  0.21349000  0.28651000  0.25000000  1
  C  C238  1  0.21349000  0.28651000  0.75000000  1
  C  C239  1  0.21349000  0.71349000  0.25000000  1
  C  C240  1  0.21349000  0.71349000  0.75000000  1
  C  C241  1  0.21386000  0.25000000  0.28614000  1
  C  C242  1  0.21386000  0.25000000  0.71386000  1
  C  C243  1  0.21386000  0.75000000  0.28614000  1
  C  C244  1  0.21386000  0.75000000  0.71386000  1
  C  C245  1  0.25000000  0.21349000  0.28651000  1
  C  C246  1  0.25000000  0.21349000  0.71349000  1
  C  C247  1  0.25000000  0.28614000  0.21386000  1
  C  C248  1  0.25000000  0.28614000  0.78614000  1
  C  C249  1  0.25000000  0.32493000  0.17507000  1
  C  C250  1  0.25000000  0.32493000  0.82493000  1
  C  C251  1  0.25000000  0.39665000  0.10335000  1
  C  C252  1  0.25000000  0.39665000  0.89665000  1
  C  C253  1  0.25000000  0.43522000  0.06478000  1
  C  C254  1  0.25000000  0.43522000  0.93522000  1
  C  C255  1  0.25000000  0.56478000  0.06478000  1
  C  C256  1  0.25000000  0.56478000  0.93522000  1
  C  C257  1  0.25000000  0.60335000  0.10335000  1
  C  C258  1  0.25000000  0.60335000  0.89665000  1
  C  C259  1  0.25000000  0.67507000  0.17507000  1
  C  C260  1  0.25000000  0.67507000  0.82493000  1
  C  C261  1  0.25000000  0.71386000  0.21386000  1
  C  C262  1  0.25000000  0.71386000  0.78614000  1
  C  C263  1  0.25000000  0.78651000  0.28651000  1
  C  C264  1  0.25000000  0.78651000  0.71349000  1
  C  C265  1  0.28614000  0.21386000  0.25000000  1
  C  C266  1  0.28614000  0.21386000  0.75000000  1
  C  C267  1  0.28614000  0.78614000  0.25000000  1
  C  C268  1  0.28614000  0.78614000  0.75000000  1
  C  C269  1  0.28651000  0.25000000  0.21349000  1
  C  C270  1  0.28651000  0.25000000  0.78651000  1
  C  C271  1  0.28651000  0.75000000  0.21349000  1
  C  C272  1  0.28651000  0.75000000  0.78651000  1
  C  C273  1  0.29319000  0.34260000  0.15661000  1
  C  C274  1  0.29319000  0.34260000  0.84339000  1
  C  C275  1  0.29319000  0.65740000  0.15661000  1
  C  C276  1  0.29319000  0.65740000  0.84339000  1
  C  C277  1  0.29410000  0.37826000  0.12094000  1
  C  C278  1  0.29410000  0.37826000  0.87906000  1
  C  C279  1  0.29410000  0.62174000  0.12094000  1
  C  C280  1  0.29410000  0.62174000  0.87906000  1
  C  C281  1  0.32493000  0.17507000  0.25000000  1
  C  C282  1  0.32493000  0.17507000  0.75000000  1
  C  C283  1  0.32493000  0.82493000  0.25000000  1
  C  C284  1  0.32493000  0.82493000  0.75000000  1
  C  C285  1  0.34260000  0.15661000  0.29319000  1
  C  C286  1  0.34260000  0.15661000  0.70681000  1
  C  C287  1  0.34260000  0.84339000  0.29319000  1
  C  C288  1  0.34260000  0.84339000  0.70681000  1
  C  C289  1  0.34339000  0.15740000  0.20681000  1
  C  C290  1  0.34339000  0.15740000  0.79319000  1
  C  C291  1  0.34339000  0.84260000  0.20681000  1
  C  C292  1  0.34339000  0.84260000  0.79319000  1
  C  C293  1  0.37826000  0.12094000  0.29410000  1
  C  C294  1  0.37826000  0.12094000  0.70590000  1
  C  C295  1  0.37826000  0.87906000  0.29410000  1
  C  C296  1  0.37826000  0.87906000  0.70590000  1
  C  C297  1  0.37906000  0.12174000  0.20590000  1
  C  C298  1  0.37906000  0.12174000  0.79410000  1
  C  C299  1  0.37906000  0.87826000  0.20590000  1
  C  C300  1  0.37906000  0.87826000  0.79410000  1
  C  C301  1  0.39665000  0.10335000  0.25000000  1
  C  C302  1  0.39665000  0.10335000  0.75000000  1
  C  C303  1  0.39665000  0.89665000  0.25000000  1
  C  C304  1  0.39665000  0.89665000  0.75000000  1
  C  C305  1  0.39730000  0.45710000  0.00000000  1
  C  C306  1  0.39730000  0.54290000  0.00000000  1
  C  C307  1  0.43522000  0.06478000  0.25000000  1
  C  C308  1  0.43522000  0.06478000  0.75000000  1
  C  C309  1  0.43522000  0.93522000  0.25000000  1
  C  C310  1  0.43522000  0.93522000  0.75000000  1
  C  C311  1  0.44840000  0.45790000  0.00000000  1
  C  C312  1  0.44840000  0.54210000  0.00000000  1
  C  C313  1  0.45710000  0.00000000  0.39730000  1
  C  C314  1  0.45710000  0.00000000  0.60270000  1
  C  C315  1  0.45790000  0.00000000  0.44840000  1
  C  C316  1  0.45790000  0.00000000  0.55160000  1
  C  C317  1  0.47510000  0.50000000  0.00000000  1
  C  C318  1  0.50000000  0.00000000  0.02490000  1
  C  C319  1  0.50000000  0.00000000  0.47510000  1
  C  C320  1  0.50000000  0.00000000  0.52490000  1
  C  C321  1  0.50000000  0.00000000  0.97510000  1
  C  C322  1  0.50000000  0.04210000  0.05160000  1
  C  C323  1  0.50000000  0.04210000  0.94840000  1
  C  C324  1  0.50000000  0.04290000  0.10270000  1
  C  C325  1  0.50000000  0.04290000  0.89730000  1
  C  C326  1  0.50000000  0.95710000  0.10270000  1
  C  C327  1  0.50000000  0.95710000  0.89730000  1
  C  C328  1  0.50000000  0.95790000  0.05160000  1
  C  C329  1  0.50000000  0.95790000  0.94840000  1
  C  C330  1  0.52490000  0.50000000  0.00000000  1
  C  C331  1  0.54210000  0.00000000  0.44840000  1
  C  C332  1  0.54210000  0.00000000  0.55160000  1
  C  C333  1  0.54290000  0.00000000  0.39730000  1
  C  C334  1  0.54290000  0.00000000  0.60270000  1
  C  C335  1  0.55160000  0.45790000  0.00000000  1
  C  C336  1  0.55160000  0.54210000  0.00000000  1
  C  C337  1  0.56478000  0.06478000  0.25000000  1
  C  C338  1  0.56478000  0.06478000  0.75000000  1
  C  C339  1  0.56478000  0.93522000  0.25000000  1
  C  C340  1  0.56478000  0.93522000  0.75000000  1
  C  C341  1  0.60270000  0.45710000  0.00000000  1
  C  C342  1  0.60270000  0.54290000  0.00000000  1
  C  C343  1  0.60335000  0.10335000  0.25000000  1
  C  C344  1  0.60335000  0.10335000  0.75000000  1
  C  C345  1  0.60335000  0.89665000  0.25000000  1
  C  C346  1  0.60335000  0.89665000  0.75000000  1
  C  C347  1  0.62094000  0.12174000  0.20590000  1
  C  C348  1  0.62094000  0.12174000  0.79410000  1
  C  C349  1  0.62094000  0.87826000  0.20590000  1
  C  C350  1  0.62094000  0.87826000  0.79410000  1
  C  C351  1  0.62174000  0.12094000  0.29410000  1
  C  C352  1  0.62174000  0.12094000  0.70590000  1
  C  C353  1  0.62174000  0.87906000  0.29410000  1
  C  C354  1  0.62174000  0.87906000  0.70590000  1
  C  C355  1  0.65661000  0.15740000  0.20681000  1
  C  C356  1  0.65661000  0.15740000  0.79319000  1
  C  C357  1  0.65661000  0.84260000  0.20681000  1
  C  C358  1  0.65661000  0.84260000  0.79319000  1
  C  C359  1  0.65740000  0.15661000  0.29319000  1
  C  C360  1  0.65740000  0.15661000  0.70681000  1
  C  C361  1  0.65740000  0.84339000  0.29319000  1
  C  C362  1  0.65740000  0.84339000  0.70681000  1
  C  C363  1  0.67507000  0.17507000  0.25000000  1
  C  C364  1  0.67507000  0.17507000  0.75000000  1
  C  C365  1  0.67507000  0.82493000  0.25000000  1
  C  C366  1  0.67507000  0.82493000  0.75000000  1
  C  C367  1  0.70590000  0.37826000  0.12094000  1
  C  C368  1  0.70590000  0.37826000  0.87906000  1
  C  C369  1  0.70590000  0.62174000  0.12094000  1
  C  C370  1  0.70590000  0.62174000  0.87906000  1
  C  C371  1  0.70681000  0.34260000  0.15661000  1
  C  C372  1  0.70681000  0.34260000  0.84339000  1
  C  C373  1  0.70681000  0.65740000  0.15661000  1
  C  C374  1  0.70681000  0.65740000  0.84339000  1
  C  C375  1  0.71349000  0.25000000  0.21349000  1
  C  C376  1  0.71349000  0.25000000  0.78651000  1
  C  C377  1  0.71349000  0.75000000  0.21349000  1
  C  C378  1  0.71349000  0.75000000  0.78651000  1
  C  C379  1  0.71386000  0.21386000  0.25000000  1
  C  C380  1  0.71386000  0.21386000  0.75000000  1
  C  C381  1  0.71386000  0.78614000  0.25000000  1
  C  C382  1  0.71386000  0.78614000  0.75000000  1
  C  C383  1  0.75000000  0.21349000  0.28651000  1
  C  C384  1  0.75000000  0.21349000  0.71349000  1
  C  C385  1  0.75000000  0.28614000  0.21386000  1
  C  C386  1  0.75000000  0.28614000  0.78614000  1
  C  C387  1  0.75000000  0.32493000  0.17507000  1
  C  C388  1  0.75000000  0.32493000  0.82493000  1
  C  C389  1  0.75000000  0.39665000  0.10335000  1
  C  C390  1  0.75000000  0.39665000  0.89665000  1
  C  C391  1  0.75000000  0.43522000  0.06478000  1
  C  C392  1  0.75000000  0.43522000  0.93522000  1
  C  C393  1  0.75000000  0.56478000  0.06478000  1
  C  C394  1  0.75000000  0.56478000  0.93522000  1
  C  C395  1  0.75000000  0.60335000  0.10335000  1
  C  C396  1  0.75000000  0.60335000  0.89665000  1
  C  C397  1  0.75000000  0.67507000  0.17507000  1
  C  C398  1  0.75000000  0.67507000  0.82493000  1
  C  C399  1  0.75000000  0.71386000  0.21386000  1
  C  C400  1  0.75000000  0.71386000  0.78614000  1
  C  C401  1  0.75000000  0.78651000  0.28651000  1
  C  C402  1  0.75000000  0.78651000  0.71349000  1
  C  C403  1  0.78614000  0.25000000  0.28614000  1
  C  C404  1  0.78614000  0.25000000  0.71386000  1
  C  C405  1  0.78614000  0.75000000  0.28614000  1
  C  C406  1  0.78614000  0.75000000  0.71386000  1
  C  C407  1  0.78651000  0.28651000  0.25000000  1
  C  C408  1  0.78651000  0.28651000  0.75000000  1
  C  C409  1  0.78651000  0.71349000  0.25000000  1
  C  C410  1  0.78651000  0.71349000  0.75000000  1
  C  C411  1  0.79319000  0.34339000  0.15740000  1
  C  C412  1  0.79319000  0.34339000  0.84260000  1
  C  C413  1  0.79319000  0.65661000  0.15740000  1
  C  C414  1  0.79319000  0.65661000  0.84260000  1
  C  C415  1  0.79410000  0.37906000  0.12174000  1
  C  C416  1  0.79410000  0.37906000  0.87826000  1
  C  C417  1  0.79410000  0.62094000  0.12174000  1
  C  C418  1  0.79410000  0.62094000  0.87826000  1
  C  C419  1  0.82493000  0.25000000  0.32493000  1
  C  C420  1  0.82493000  0.25000000  0.67507000  1
  C  C421  1  0.82493000  0.75000000  0.32493000  1
  C  C422  1  0.82493000  0.75000000  0.67507000  1
  C  C423  1  0.84260000  0.20681000  0.34339000  1
  C  C424  1  0.84260000  0.20681000  0.65661000  1
  C  C425  1  0.84260000  0.79319000  0.34339000  1
  C  C426  1  0.84260000  0.79319000  0.65661000  1
  C  C427  1  0.84339000  0.29319000  0.34260000  1
  C  C428  1  0.84339000  0.29319000  0.65740000  1
  C  C429  1  0.84339000  0.70681000  0.34260000  1
  C  C430  1  0.84339000  0.70681000  0.65740000  1
  C  C431  1  0.87826000  0.20590000  0.37906000  1
  C  C432  1  0.87826000  0.20590000  0.62094000  1
  C  C433  1  0.87826000  0.79410000  0.37906000  1
  C  C434  1  0.87826000  0.79410000  0.62094000  1
  C  C435  1  0.87906000  0.29410000  0.37826000  1
  C  C436  1  0.87906000  0.29410000  0.62174000  1
  C  C437  1  0.87906000  0.70590000  0.37826000  1
  C  C438  1  0.87906000  0.70590000  0.62174000  1
  C  C439  1  0.89665000  0.25000000  0.39665000  1
  C  C440  1  0.89665000  0.25000000  0.60335000  1
  C  C441  1  0.89665000  0.75000000  0.39665000  1
  C  C442  1  0.89665000  0.75000000  0.60335000  1
  C  C443  1  0.89730000  0.50000000  0.04290000  1
  C  C444  1  0.89730000  0.50000000  0.95710000  1
  C  C445  1  0.93522000  0.25000000  0.43522000  1
  C  C446  1  0.93522000  0.25000000  0.56478000  1
  C  C447  1  0.93522000  0.75000000  0.43522000  1
  C  C448  1  0.93522000  0.75000000  0.56478000  1
  C  C449  1  0.94840000  0.50000000  0.04210000  1
  C  C450  1  0.94840000  0.50000000  0.95790000  1
  C  C451  1  0.95710000  0.10270000  0.50000000  1
  C  C452  1  0.95710000  0.89730000  0.50000000  1
  C  C453  1  0.95790000  0.05160000  0.50000000  1
  C  C454  1  0.95790000  0.94840000  0.50000000  1
  C  C455  1  0.97510000  0.50000000  0.00000000  1
  N  N456  1  0.00000000  0.12480000  0.50000000  1
  N  N457  1  0.00000000  0.37520000  0.50000000  1
  N  N458  1  0.00000000  0.62480000  0.50000000  1
  N  N459  1  0.00000000  0.87520000  0.50000000  1
  N  N460  1  0.12480000  0.50000000  0.00000000  1
  N  N461  1  0.37520000  0.50000000  0.00000000  1
  N  N462  1  0.50000000  0.00000000  0.12480000  1
  N  N463  1  0.50000000  0.00000000  0.37520000  1
  N  N464  1  0.50000000  0.00000000  0.62480000  1
  N  N465  1  0.50000000  0.00000000  0.87520000  1
  N  N466  1  0.62480000  0.50000000  0.00000000  1
  N  N467  1  0.87520000  0.50000000  0.00000000  1
  O  O468  1  0.05026000  0.20914000  0.44969000  1
  O  O469  1  0.05026000  0.20914000  0.55031000  1
  O  O470  1  0.05026000  0.79086000  0.44969000  1
  O  O471  1  0.05026000  0.79086000  0.55031000  1
  O  O472  1  0.05031000  0.29086000  0.44974000  1
  O  O473  1  0.05031000  0.29086000  0.55026000  1
  O  O474  1  0.05031000  0.70914000  0.44974000  1
  O  O475  1  0.05031000  0.70914000  0.55026000  1
  O  O476  1  0.20914000  0.44969000  0.05026000  1
  O  O477  1  0.20914000  0.44969000  0.94974000  1
  O  O478  1  0.20914000  0.55031000  0.05026000  1
  O  O479  1  0.20914000  0.55031000  0.94974000  1
  O  O480  1  0.29086000  0.44974000  0.05031000  1
  O  O481  1  0.29086000  0.44974000  0.94969000  1
  O  O482  1  0.29086000  0.55026000  0.05031000  1
  O  O483  1  0.29086000  0.55026000  0.94969000  1
  O  O484  1  0.44969000  0.05026000  0.20914000  1
  O  O485  1  0.44969000  0.05026000  0.79086000  1
  O  O486  1  0.44969000  0.94974000  0.20914000  1
  O  O487  1  0.44969000  0.94974000  0.79086000  1
  O  O488  1  0.44974000  0.05031000  0.29086000  1
  O  O489  1  0.44974000  0.05031000  0.70914000  1
  O  O490  1  0.44974000  0.94969000  0.29086000  1
  O  O491  1  0.44974000  0.94969000  0.70914000  1
  O  O492  1  0.55026000  0.05031000  0.29086000  1
  O  O493  1  0.55026000  0.05031000  0.70914000  1
  O  O494  1  0.55026000  0.94969000  0.29086000  1
  O  O495  1  0.55026000  0.94969000  0.70914000  1
  O  O496  1  0.55031000  0.05026000  0.20914000  1
  O  O497  1  0.55031000  0.05026000  0.79086000  1
  O  O498  1  0.55031000  0.94974000  0.20914000  1
  O  O499  1  0.55031000  0.94974000  0.79086000  1
  O  O500  1  0.70914000  0.44974000  0.05031000  1
  O  O501  1  0.70914000  0.44974000  0.94969000  1
  O  O502  1  0.70914000  0.55026000  0.05031000  1
  O  O503  1  0.70914000  0.55026000  0.94969000  1
  O  O504  1  0.79086000  0.44969000  0.05026000  1
  O  O505  1  0.79086000  0.44969000  0.94974000  1
  O  O506  1  0.79086000  0.55031000  0.05026000  1
  O  O507  1  0.79086000  0.55031000  0.94974000  1
  O  O508  1  0.94969000  0.29086000  0.44974000  1
  O  O509  1  0.94969000  0.29086000  0.55026000  1
  O  O510  1  0.94969000  0.70914000  0.44974000  1
  O  O511  1  0.94969000  0.70914000  0.55026000  1
  O  O512  1  0.94974000  0.20914000  0.44969000  1
  O  O513  1  0.94974000  0.20914000  0.55031000  1
  O  O514  1  0.94974000  0.79086000  0.44969000  1
  O  O515  1  0.94974000  0.79086000  0.55031000  1
