# generated using pymatgen
data_Cr3Cu3H24C36N6O13
_symmetry_space_group_name_H-M   'P 1'
_cell_length_a   20.77200000
_cell_length_b   20.77200000
_cell_length_c   21.05300000
_cell_angle_alpha   90.00000000
_cell_angle_beta   90.00000000
_cell_angle_gamma   120.00000000
_symmetry_Int_Tables_number   1
_chemical_formula_structural   Cr3Cu3H24C36N6O13
_chemical_formula_sum   'Cr6 Cu6 H48 C72 N12 O26'
_cell_volume   7866.85689426
_cell_formula_units_Z   2
loop_
 _symmetry_equiv_pos_site_id
 _symmetry_equiv_pos_as_xyz
  1  'x, y, z'
loop_
 _atom_site_type_symbol
 _atom_site_label
 _atom_site_symmetry_multiplicity
 _atom_site_fract_x
 _atom_site_fract_y
 _atom_site_fract_z
 _atom_site_occupancy
  Cr  Cr0  1  0.75976000  0.33622000  0.25000000  1
  Cr  Cr1  1  0.66378000  0.42354000  0.25000000  1
  Cr  Cr2  1  0.57646000  0.24024000  0.25000000  1
  Cr  Cr3  1  0.42354000  0.75976000  0.75000000  1
  Cr  Cr4  1  0.33622000  0.57646000  0.75000000  1
  Cr  Cr5  1  0.24024000  0.66378000  0.75000000  1
  Cu  Cu6  1  0.00000000  0.50000000  0.00000000  1
  Cu  Cu7  1  0.00000000  0.50000000  0.50000000  1
  Cu  Cu8  1  0.50000000  0.50000000  1.00000000  1
  Cu  Cu9  1  0.50000000  0.50000000  0.50000000  1
  Cu  Cu10  1  0.50000000  1.00000000  1.00000000  1
  Cu  Cu11  1  0.50000000  1.00000000  0.50000000  1
  H  H12  1  0.93830000  0.60250000  0.96580000  1
  H  H13  1  0.93830000  0.60250000  0.53420000  1
  H  H14  1  0.88880000  0.44960000  0.40360000  1
  H  H15  1  0.88880000  0.44960000  0.09640000  1
  H  H16  1  0.84260000  0.62280000  0.99770000  1
  H  H17  1  0.84260000  0.62280000  0.50230000  1
  H  H18  1  0.78610000  0.22060000  0.40680000  1
  H  H19  1  0.78610000  0.22060000  0.09320000  1
  H  H20  1  0.78020000  0.15740000  0.99770000  1
  H  H21  1  0.78020000  0.15740000  0.50230000  1
  H  H22  1  0.77940000  0.56550000  0.40680000  1
  H  H23  1  0.77940000  0.56550000  0.09320000  1
  H  H24  1  0.66420000  0.06170000  0.96580000  1
  H  H25  1  0.66420000  0.06170000  0.53420000  1
  H  H26  1  0.62280000  0.78020000  0.49770000  1
  H  H27  1  0.62280000  0.78020000  0.00230000  1
  H  H28  1  0.60250000  0.66420000  0.46580000  1
  H  H29  1  0.60250000  0.66420000  0.03420000  1
  H  H30  1  0.56550000  0.78610000  0.90680000  1
  H  H31  1  0.56550000  0.78610000  0.59320000  1
  H  H32  1  0.56080000  0.11120000  0.40360000  1
  H  H33  1  0.56080000  0.11120000  0.09640000  1
  H  H34  1  0.55040000  0.43920000  0.40360000  1
  H  H35  1  0.55040000  0.43920000  0.09640000  1
  H  H36  1  0.44960000  0.56080000  0.90360000  1
  H  H37  1  0.44960000  0.56080000  0.59640000  1
  H  H38  1  0.43920000  0.88880000  0.90360000  1
  H  H39  1  0.43920000  0.88880000  0.59640000  1
  H  H40  1  0.43450000  0.21390000  0.40680000  1
  H  H41  1  0.43450000  0.21390000  0.09320000  1
  H  H42  1  0.39750000  0.33580000  0.96580000  1
  H  H43  1  0.39750000  0.33580000  0.53420000  1
  H  H44  1  0.37720000  0.21980000  0.99770000  1
  H  H45  1  0.37720000  0.21980000  0.50230000  1
  H  H46  1  0.33580000  0.93830000  0.46580000  1
  H  H47  1  0.33580000  0.93830000  0.03420000  1
  H  H48  1  0.22060000  0.43450000  0.90680000  1
  H  H49  1  0.22060000  0.43450000  0.59320000  1
  H  H50  1  0.21980000  0.84260000  0.49770000  1
  H  H51  1  0.21980000  0.84260000  0.00230000  1
  H  H52  1  0.21390000  0.77940000  0.90680000  1
  H  H53  1  0.21390000  0.77940000  0.59320000  1
  H  H54  1  0.15740000  0.37720000  0.49770000  1
  H  H55  1  0.15740000  0.37720000  0.00230000  1
  H  H56  1  0.11120000  0.55040000  0.90360000  1
  H  H57  1  0.11120000  0.55040000  0.59640000  1
  H  H58  1  0.06170000  0.39750000  0.46580000  1
  H  H59  1  0.06170000  0.39750000  0.03420000  1
  C  C60  1  0.90830000  0.57480000  0.49930000  1
  C  C61  1  0.90830000  0.57480000  0.00070000  1
  C  C62  1  0.88140000  0.48720000  0.42190000  1
  C  C63  1  0.88140000  0.48720000  0.07810000  1
  C  C64  1  0.85340000  0.58990000  0.47950000  1
  C  C65  1  0.85340000  0.58990000  0.02050000  1
  C  C66  1  0.82840000  0.50150000  0.39390000  1
  C  C67  1  0.82840000  0.50150000  0.10610000  1
  C  C68  1  0.81480000  0.55420000  0.42410000  1
  C  C69  1  0.81480000  0.55420000  0.07590000  1
  C  C70  1  0.78650000  0.45530000  0.33840000  1
  C  C71  1  0.78650000  0.45530000  0.16160000  1
  C  C72  1  0.73940000  0.18520000  0.42410000  1
  C  C73  1  0.73940000  0.18520000  0.07590000  1
  C  C74  1  0.73650000  0.14660000  0.47950000  1
  C  C75  1  0.73650000  0.14660000  0.02050000  1
  C  C76  1  0.67310000  0.17160000  0.39390000  1
  C  C77  1  0.67310000  0.17160000  0.10610000  1
  C  C78  1  0.66880000  0.21350000  0.33840000  1
  C  C79  1  0.66880000  0.21350000  0.16160000  1
  C  C80  1  0.66650000  0.09170000  0.49930000  1
  C  C81  1  0.66650000  0.09170000  0.00070000  1
  C  C82  1  0.60580000  0.11860000  0.42190000  1
  C  C83  1  0.60580000  0.11860000  0.07810000  1
  C  C84  1  0.58990000  0.73650000  0.97950000  1
  C  C85  1  0.58990000  0.73650000  0.52050000  1
  C  C86  1  0.57480000  0.66650000  0.99930000  1
  C  C87  1  0.57480000  0.66650000  0.50070000  1
  C  C88  1  0.55420000  0.73940000  0.92410000  1
  C  C89  1  0.55420000  0.73940000  0.57590000  1
  C  C90  1  0.54470000  0.33120000  0.33840000  1
  C  C91  1  0.54470000  0.33120000  0.16160000  1
  C  C92  1  0.51280000  0.39420000  0.42190000  1
  C  C93  1  0.51280000  0.39420000  0.07810000  1
  C  C94  1  0.50150000  0.67310000  0.89390000  1
  C  C95  1  0.50150000  0.67310000  0.60610000  1
  C  C96  1  0.49850000  0.32690000  0.39390000  1
  C  C97  1  0.49850000  0.32690000  0.10610000  1
  C  C98  1  0.48720000  0.60580000  0.92190000  1
  C  C99  1  0.48720000  0.60580000  0.57810000  1
  C  C100  1  0.45530000  0.66880000  0.83840000  1
  C  C101  1  0.45530000  0.66880000  0.66160000  1
  C  C102  1  0.44580000  0.26060000  0.42410000  1
  C  C103  1  0.44580000  0.26060000  0.07590000  1
  C  C104  1  0.42520000  0.33350000  0.49930000  1
  C  C105  1  0.42520000  0.33350000  0.00070000  1
  C  C106  1  0.41010000  0.26350000  0.47950000  1
  C  C107  1  0.41010000  0.26350000  0.02050000  1
  C  C108  1  0.39420000  0.88140000  0.92190000  1
  C  C109  1  0.39420000  0.88140000  0.57810000  1
  C  C110  1  0.33350000  0.90830000  0.99930000  1
  C  C111  1  0.33350000  0.90830000  0.50070000  1
  C  C112  1  0.33120000  0.78650000  0.83840000  1
  C  C113  1  0.33120000  0.78650000  0.66160000  1
  C  C114  1  0.32690000  0.82840000  0.89390000  1
  C  C115  1  0.32690000  0.82840000  0.60610000  1
  C  C116  1  0.26350000  0.85340000  0.97950000  1
  C  C117  1  0.26350000  0.85340000  0.52050000  1
  C  C118  1  0.26060000  0.81480000  0.92410000  1
  C  C119  1  0.26060000  0.81480000  0.57590000  1
  C  C120  1  0.21350000  0.54470000  0.83840000  1
  C  C121  1  0.21350000  0.54470000  0.66160000  1
  C  C122  1  0.18520000  0.44580000  0.92410000  1
  C  C123  1  0.18520000  0.44580000  0.57590000  1
  C  C124  1  0.17160000  0.49850000  0.89390000  1
  C  C125  1  0.17160000  0.49850000  0.60610000  1
  C  C126  1  0.14660000  0.41010000  0.97950000  1
  C  C127  1  0.14660000  0.41010000  0.52050000  1
  C  C128  1  0.11860000  0.51280000  0.92190000  1
  C  C129  1  0.11860000  0.51280000  0.57810000  1
  C  C130  1  0.09170000  0.42520000  0.99930000  1
  C  C131  1  0.09170000  0.42520000  0.50070000  1
  N  N132  1  0.92230000  0.52350000  0.47290000  1
  N  N133  1  0.92230000  0.52350000  0.02710000  1
  N  N134  1  0.60120000  0.07770000  0.47290000  1
  N  N135  1  0.60120000  0.07770000  0.02710000  1
  N  N136  1  0.52350000  0.60120000  0.97290000  1
  N  N137  1  0.52350000  0.60120000  0.52710000  1
  N  N138  1  0.47650000  0.39880000  0.47290000  1
  N  N139  1  0.47650000  0.39880000  0.02710000  1
  N  N140  1  0.39880000  0.92230000  0.97290000  1
  N  N141  1  0.39880000  0.92230000  0.52710000  1
  N  N142  1  0.07770000  0.47650000  0.97290000  1
  N  N143  1  0.07770000  0.47650000  0.52710000  1
  O  O144  1  0.80320000  0.41090000  0.31640000  1
  O  O145  1  0.80320000  0.41090000  0.18360000  1
  O  O146  1  0.73780000  0.46960000  0.31810000  1
  O  O147  1  0.73780000  0.46960000  0.18190000  1
  O  O148  1  0.73180000  0.26220000  0.31810000  1
  O  O149  1  0.73180000  0.26220000  0.18190000  1
  O  O150  1  0.66666667  0.33333333  0.25000000  1
  O  O151  1  0.60770000  0.19680000  0.31640000  1
  O  O152  1  0.60770000  0.19680000  0.18360000  1
  O  O153  1  0.58910000  0.39230000  0.31640000  1
  O  O154  1  0.58910000  0.39230000  0.18360000  1
  O  O155  1  0.53040000  0.26820000  0.31810000  1
  O  O156  1  0.53040000  0.26820000  0.18190000  1
  O  O157  1  0.46960000  0.73180000  0.81810000  1
  O  O158  1  0.46960000  0.73180000  0.68190000  1
  O  O159  1  0.41090000  0.60770000  0.81640000  1
  O  O160  1  0.41090000  0.60770000  0.68360000  1
  O  O161  1  0.39230000  0.80320000  0.81640000  1
  O  O162  1  0.39230000  0.80320000  0.68360000  1
  O  O163  1  0.33333333  0.66666667  0.75000000  1
  O  O164  1  0.26820000  0.73780000  0.81810000  1
  O  O165  1  0.26820000  0.73780000  0.68190000  1
  O  O166  1  0.26220000  0.53040000  0.81810000  1
  O  O167  1  0.26220000  0.53040000  0.68190000  1
  O  O168  1  0.19680000  0.58910000  0.81640000  1
  O  O169  1  0.19680000  0.58910000  0.68360000  1
