# generated using pymatgen
data_Cd2H43C64(NO4)3
_symmetry_space_group_name_H-M   'P 1'
_cell_length_a   14.60500000
_cell_length_b   14.93100000
_cell_length_c   16.94600000
_cell_angle_alpha   112.16000000
_cell_angle_beta   103.19800000
_cell_angle_gamma   100.39000000
_symmetry_Int_Tables_number   1
_chemical_formula_structural   Cd2H43C64(NO4)3
_chemical_formula_sum   'Cd4 H86 C128 N6 O24'
_cell_volume   3183.18477889
_cell_formula_units_Z   2
loop_
 _symmetry_equiv_pos_site_id
 _symmetry_equiv_pos_as_xyz
  1  'x, y, z'
loop_
 _atom_site_type_symbol
 _atom_site_label
 _atom_site_symmetry_multiplicity
 _atom_site_fract_x
 _atom_site_fract_y
 _atom_site_fract_z
 _atom_site_occupancy
  Cd  Cd0  1  0.07268000  0.12623000  0.13401000  1
  Cd  Cd1  1  0.36024000  0.44122000  0.59463000  1
  Cd  Cd2  1  0.63976000  0.55878000  0.40537000  1
  Cd  Cd3  1  0.92732000  0.87377000  0.86599000  1
  H  H4  1  0.00980000  0.94260000  0.42010000  1
  H  H5  1  0.03350000  0.14940000  0.83940000  1
  H  H6  1  0.05100000  0.60100000  0.29850000  1
  H  H7  1  0.08580000  0.23200000  0.65780000  1
  H  H8  1  0.08990000  0.56410000  0.05770000  1
  H  H9  1  0.09170000  0.85400000  0.02240000  1
  H  H10  1  0.10200000  0.50420000  0.78720000  1
  H  H11  1  0.11960000  0.46620000  0.11740000  1
  H  H12  1  0.12290000  0.93870000  0.80910000  1
  H  H13  1  0.12560000  0.87520000  0.65410000  1
  H  H14  1  0.12820000  0.06450000  0.43000000  1
  H  H15  1  0.12980000  0.73550000  0.06810000  1
  H  H16  1  0.15120000  0.34250000  0.15800000  1
  H  H17  1  0.16030000  0.31140000  0.88950000  1
  H  H18  1  0.18310000  0.76460000  0.42780000  1
  H  H19  1  0.18470000  0.89460000  0.54750000  1
  H  H20  1  0.19980000  0.36800000  0.67140000  1
  H  H21  1  0.20990000  0.46320000  0.88310000  1
  H  H22  1  0.23180000  0.61760000  0.50520000  1
  H  H23  1  0.24370000  0.82690000  0.95760000  1
  H  H24  1  0.24540000  0.20370000  0.45270000  1
  H  H25  1  0.26360000  0.74770000  0.23370000  1
  H  H26  1  0.26670000  0.98870000  0.34660000  1
  H  H27  1  0.27120000  0.82210000  0.41080000  1
  H  H28  1  0.27600000  0.22360000  0.05050000  1
  H  H29  1  0.27970000  0.94440000  0.10310000  1
  H  H30  1  0.28020000  0.68750000  0.84520000  1
  H  H31  1  0.30020000  0.04460000  0.58210000  1
  H  H32  1  0.30880000  0.68520000  0.10780000  1
  H  H33  1  0.32360000  0.43360000  0.28600000  1
  H  H34  1  0.34640000  0.44720000  0.15140000  1
  H  H35  1  0.34810000  0.53320000  0.06440000  1
  H  H36  1  0.35770000  0.17340000  0.72460000  1
  H  H37  1  0.37810000  0.33320000  0.93460000  1
  H  H38  1  0.41660000  0.27900000  0.85580000  1
  H  H39  1  0.41810000  0.96230000  0.21400000  1
  H  H40  1  0.44120000  0.29260000  0.44370000  1
  H  H41  1  0.47160000  0.14000000  0.39940000  1
  H  H42  1  0.47180000  0.31900000  0.68530000  1
  H  H43  1  0.47970000  0.13480000  0.81940000  1
  H  H44  1  0.48940000  0.99370000  0.57140000  1
  H  H45  1  0.49070000  0.52610000  0.85080000  1
  H  H46  1  0.49630000  0.83490000  0.35260000  1
  H  H47  1  0.50370000  0.16510000  0.64740000  1
  H  H48  1  0.50930000  0.47390000  0.14920000  1
  H  H49  1  0.51060000  0.00630000  0.42860000  1
  H  H50  1  0.52030000  0.86520000  0.18060000  1
  H  H51  1  0.52820000  0.68100000  0.31470000  1
  H  H52  1  0.52840000  0.86000000  0.60060000  1
  H  H53  1  0.55880000  0.70740000  0.55630000  1
  H  H54  1  0.58190000  0.03770000  0.78600000  1
  H  H55  1  0.58340000  0.72100000  0.14420000  1
  H  H56  1  0.62190000  0.66680000  0.06540000  1
  H  H57  1  0.64230000  0.82660000  0.27540000  1
  H  H58  1  0.65190000  0.46680000  0.93560000  1
  H  H59  1  0.65360000  0.55280000  0.84860000  1
  H  H60  1  0.67640000  0.56640000  0.71400000  1
  H  H61  1  0.69120000  0.31480000  0.89220000  1
  H  H62  1  0.69980000  0.95540000  0.41790000  1
  H  H63  1  0.71980000  0.31250000  0.15480000  1
  H  H64  1  0.72030000  0.05560000  0.89690000  1
  H  H65  1  0.72400000  0.77640000  0.94950000  1
  H  H66  1  0.72880000  0.17790000  0.58920000  1
  H  H67  1  0.73330000  0.01130000  0.65340000  1
  H  H68  1  0.73640000  0.25230000  0.76630000  1
  H  H69  1  0.75460000  0.79630000  0.54730000  1
  H  H70  1  0.75630000  0.17310000  0.04240000  1
  H  H71  1  0.76820000  0.38240000  0.49480000  1
  H  H72  1  0.79010000  0.53680000  0.11690000  1
  H  H73  1  0.80020000  0.63200000  0.32860000  1
  H  H74  1  0.81530000  0.10540000  0.45250000  1
  H  H75  1  0.81690000  0.23540000  0.57220000  1
  H  H76  1  0.83970000  0.68860000  0.11050000  1
  H  H77  1  0.84880000  0.65750000  0.84200000  1
  H  H78  1  0.87020000  0.26450000  0.93190000  1
  H  H79  1  0.87180000  0.93550000  0.57000000  1
  H  H80  1  0.87440000  0.12480000  0.34590000  1
  H  H81  1  0.87710000  0.06130000  0.19090000  1
  H  H82  1  0.88040000  0.53380000  0.88260000  1
  H  H83  1  0.89800000  0.49580000  0.21280000  1
  H  H84  1  0.90830000  0.14600000  0.97760000  1
  H  H85  1  0.91010000  0.43590000  0.94230000  1
  H  H86  1  0.91420000  0.76800000  0.34220000  1
  H  H87  1  0.94900000  0.39900000  0.70150000  1
  H  H88  1  0.96650000  0.85060000  0.16060000  1
  H  H89  1  0.99020000  0.05740000  0.57990000  1
  C  C90  1  0.00860000  0.62027000  0.98202000  1
  C  C91  1  0.00980000  0.83338000  0.19801000  1
  C  C92  1  0.00990000  0.62000000  0.26110000  1
  C  C93  1  0.01680000  0.04590000  0.53330000  1
  C  C94  1  0.02210000  0.26040000  0.79870000  1
  C  C95  1  0.02950000  0.54554000  0.01386000  1
  C  C96  1  0.04530000  0.71479000  0.25980000  1
  C  C97  1  0.04860000  0.78862000  0.99373000  1
  C  C98  1  0.07150000  0.71770000  0.02187000  1
  C  C99  1  0.07540000  0.40140000  0.08730000  1
  C  C100  1  0.08190000  0.44320000  0.79020000  1
  C  C101  1  0.09150000  0.13150000  0.54170000  1
  C  C102  1  0.09360000  0.32670000  0.11190000  1
  C  C103  1  0.10190000  0.89928000  0.24785000  1
  C  C104  1  0.11630000  0.22420000  0.61420000  1
  C  C105  1  0.11740000  0.32840000  0.85160000  1
  C  C106  1  0.13370000  0.99472000  0.23703000  1
  C  C107  1  0.14030000  0.78363000  0.31335000  1
  C  C108  1  0.14190000  0.12540000  0.48027000  1
  C  C109  1  0.14730000  0.41880000  0.84800000  1
  C  C110  1  0.15390000  0.05615000  0.97764000  1
  C  C111  1  0.16790000  0.87416000  0.30664000  1
  C  C112  1  0.16990000  0.99900000  0.82492000  1
  C  C113  1  0.17300000  0.93510000  0.66930000  1
  C  C114  1  0.18620000  0.30590000  0.62260000  1
  C  C115  1  0.20104000  0.07304000  0.91182000  1
  C  C116  1  0.20690000  0.01170000  0.75929000  1
  C  C117  1  0.20740000  0.94660000  0.60570000  1
  C  C118  1  0.21210000  0.20983000  0.49426000  1
  C  C119  1  0.21230000  0.76460000  0.38176000  1
  C  C120  1  0.24440000  0.66891000  0.35008000  1
  C  C121  1  0.24900000  0.61690000  0.40278000  1
  C  C122  1  0.27411000  0.63427000  0.27229000  1
  C  C123  1  0.27509000  0.16450000  0.93572000  1
  C  C124  1  0.27730000  0.03670000  0.62670000  1
  C  C125  1  0.27910000  0.68700000  0.21779000  1
  C  C126  1  0.28058000  0.52785000  0.37955000  1
  C  C127  1  0.28100000  0.10320000  0.78339000  1
  C  C128  1  0.29204000  0.47577000  0.44006000  1
  C  C129  1  0.29850000  0.83280000  0.00210000  1
  C  C130  1  0.30236000  0.54364000  0.24668000  1
  C  C131  1  0.30490000  0.49259000  0.30231000  1
  C  C132  1  0.30640000  0.64960000  0.14230000  1
  C  C133  1  0.31250000  0.11340000  0.71240000  1
  C  C134  1  0.31860000  0.17937000  0.87509000  1
  C  C135  1  0.32020000  0.90360000  0.08860000  1
  C  C136  1  0.32940000  0.50710000  0.16816000  1
  C  C137  1  0.33090000  0.55840000  0.11640000  1
  C  C138  1  0.33410000  0.69260000  0.88997000  1
  C  C139  1  0.35800000  0.76805000  0.97893000  1
  C  C140  1  0.36370000  0.55260000  0.77150000  1
  C  C141  1  0.38840000  0.62676000  0.86819000  1
  C  C142  1  0.40140000  0.27577000  0.90769000  1
  C  C143  1  0.40360000  0.91420000  0.15510000  1
  C  C144  1  0.44400000  0.77902000  0.04581000  1
  C  C145  1  0.45260000  0.26600000  0.48540000  1
  C  C146  1  0.46450000  0.85539000  0.13518000  1
  C  C147  1  0.47040000  0.28205000  0.62670000  1
  C  C148  1  0.47090000  0.17390000  0.45790000  1
  C  C149  1  0.47160000  0.63570000  0.93680000  1
  C  C150  1  0.48830000  0.13230000  0.51720000  1
  C  C151  1  0.48970000  0.18910000  0.60410000  1
  C  C152  1  0.49660000  0.28668000  0.97605000  1
  C  C153  1  0.49960000  0.97090000  0.51580000  1
  C  C154  1  0.50040000  0.02910000  0.48420000  1
  C  C155  1  0.50340000  0.71332000  0.02395000  1
  C  C156  1  0.51030000  0.81090000  0.39590000  1
  C  C157  1  0.51170000  0.86770000  0.48280000  1
  C  C158  1  0.52840000  0.36430000  0.06320000  1
  C  C159  1  0.52910000  0.82610000  0.54210000  1
  C  C160  1  0.52960000  0.71795000  0.37330000  1
  C  C161  1  0.53550000  0.14461000  0.86482000  1
  C  C162  1  0.54740000  0.73400000  0.51460000  1
  C  C163  1  0.55600000  0.22098000  0.95419000  1
  C  C164  1  0.59640000  0.08580000  0.84490000  1
  C  C165  1  0.59860000  0.72423000  0.09231000  1
  C  C166  1  0.61160000  0.37324000  0.13181000  1
  C  C167  1  0.63630000  0.44740000  0.22850000  1
  C  C168  1  0.64200000  0.23195000  0.02107000  1
  C  C169  1  0.66590000  0.30740000  0.11003000  1
  C  C170  1  0.66910000  0.44160000  0.88360000  1
  C  C171  1  0.67060000  0.49290000  0.83184000  1
  C  C172  1  0.67980000  0.09640000  0.91140000  1
  C  C173  1  0.68140000  0.82063000  0.12491000  1
  C  C174  1  0.68750000  0.88660000  0.28760000  1
  C  C175  1  0.69360000  0.35040000  0.85770000  1
  C  C176  1  0.69510000  0.50741000  0.69769000  1
  C  C177  1  0.69764000  0.45636000  0.75332000  1
  C  C178  1  0.70150000  0.16720000  0.99790000  1
  C  C179  1  0.70796000  0.52423000  0.55994000  1
  C  C180  1  0.71900000  0.89680000  0.21661000  1
  C  C181  1  0.71942000  0.47215000  0.62045000  1
  C  C182  1  0.72090000  0.31300000  0.78221000  1
  C  C183  1  0.72270000  0.96330000  0.37330000  1
  C  C184  1  0.72491000  0.83550000  0.06428000  1
  C  C185  1  0.72589000  0.36573000  0.72771000  1
  C  C186  1  0.75100000  0.38310000  0.59722000  1
  C  C187  1  0.75560000  0.33109000  0.64992000  1
  C  C188  1  0.78770000  0.23540000  0.61824000  1
  C  C189  1  0.78790000  0.79017000  0.50574000  1
  C  C190  1  0.79260000  0.05340000  0.39430000  1
  C  C191  1  0.79310000  0.98830000  0.24071000  1
  C  C192  1  0.79896000  0.92696000  0.08818000  1
  C  C193  1  0.81380000  0.69410000  0.37740000  1
  C  C194  1  0.82700000  0.06490000  0.33070000  1
  C  C195  1  0.83010000  0.00100000  0.17508000  1
  C  C196  1  0.83210000  0.12584000  0.69336000  1
  C  C197  1  0.84610000  0.94385000  0.02236000  1
  C  C198  1  0.85270000  0.58120000  0.15200000  1
  C  C199  1  0.85810000  0.87460000  0.51973000  1
  C  C200  1  0.85970000  0.21637000  0.68665000  1
  C  C201  1  0.86630000  0.00528000  0.76297000  1
  C  C202  1  0.88260000  0.67160000  0.14840000  1
  C  C203  1  0.88370000  0.77580000  0.38580000  1
  C  C204  1  0.89810000  0.10072000  0.75215000  1
  C  C205  1  0.90640000  0.67330000  0.88810000  1
  C  C206  1  0.90850000  0.86850000  0.45830000  1
  C  C207  1  0.91810000  0.55680000  0.20980000  1
  C  C208  1  0.92460000  0.59860000  0.91270000  1
  C  C209  1  0.92850000  0.28230000  0.97813000  1
  C  C210  1  0.95140000  0.21138000  0.00627000  1
  C  C211  1  0.95470000  0.28521000  0.74020000  1
  C  C212  1  0.97050000  0.45446000  0.98614000  1
  C  C213  1  0.97790000  0.73960000  0.20130000  1
  C  C214  1  0.98320000  0.95410000  0.46670000  1
  C  C215  1  0.99010000  0.38000000  0.73890000  1
  C  C216  1  0.99020000  0.16662000  0.80199000  1
  C  C217  1  0.99140000  0.37973000  0.01798000  1
  N  N218  1  0.03279000  0.23290000  0.07286000  1
  N  N219  1  0.23510000  0.30046000  0.56451000  1
  N  N220  1  0.44984000  0.31997000  0.56719000  1
  N  N221  1  0.55016000  0.68003000  0.43281000  1
  N  N222  1  0.76490000  0.69954000  0.43549000  1
  N  N223  1  0.96721000  0.76710000  0.92714000  1
  O  O224  1  0.07303000  0.00651000  0.17916000  1
  O  O225  1  0.08885000  0.97579000  0.95361000  1
  O  O226  1  0.18515000  0.12673000  0.05724000  1
  O  O227  1  0.21838000  0.05563000  0.28551000  1
  O  O228  1  0.22322000  0.65275000  0.47846000  1
  O  O229  1  0.25943000  0.93931000  0.35749000  1
  O  O230  1  0.27027000  0.51062000  0.51181000  1
  O  O231  1  0.29580000  0.55064000  0.71102000  1
  O  O232  1  0.30524000  0.24065000  0.02008000  1
  O  O233  1  0.32577000  0.40111000  0.42048000  1
  O  O234  1  0.41760000  0.49423000  0.75226000  1
  O  O235  1  0.47834000  0.43369000  0.08149000  1
  O  O236  1  0.52166000  0.56631000  0.91851000  1
  O  O237  1  0.58240000  0.50577000  0.24774000  1
  O  O238  1  0.67423000  0.59889000  0.57952000  1
  O  O239  1  0.69476000  0.75935000  0.97992000  1
  O  O240  1  0.70420000  0.44936000  0.28898000  1
  O  O241  1  0.72973000  0.48938000  0.48819000  1
  O  O242  1  0.74057000  0.06069000  0.64251000  1
  O  O243  1  0.77678000  0.34725000  0.52154000  1
  O  O244  1  0.78162000  0.94437000  0.71449000  1
  O  O245  1  0.81485000  0.87327000  0.94276000  1
  O  O246  1  0.91115000  0.02421000  0.04639000  1
  O  O247  1  0.92697000  0.99349000  0.82084000  1
