# generated using pymatgen
data_CoH16C24(NO2)2
_symmetry_space_group_name_H-M   'P 1'
_cell_length_a   10.70220000
_cell_length_b   10.70220000
_cell_length_c   22.87420000
_cell_angle_alpha   90.00000000
_cell_angle_beta   90.00000000
_cell_angle_gamma   120.00000000
_symmetry_Int_Tables_number   1
_chemical_formula_structural   CoH16C24(NO2)2
_chemical_formula_sum   'Co3 H48 C72 N6 O12'
_cell_volume   2268.93822161
_cell_formula_units_Z   3
loop_
 _symmetry_equiv_pos_site_id
 _symmetry_equiv_pos_as_xyz
  1  'x, y, z'
loop_
 _atom_site_type_symbol
 _atom_site_label
 _atom_site_symmetry_multiplicity
 _atom_site_fract_x
 _atom_site_fract_y
 _atom_site_fract_z
 _atom_site_occupancy
  Co  Co0  1  0.35530000  0.64500000  0.32250000  1
  Co  Co1  1  0.35500000  0.71030000  0.98917000  1
  Co  Co2  1  0.28970000  0.64470000  0.65583000  1
  H  H3  1  0.99500000  0.59690000  0.87033000  1
  H  H4  1  0.94630000  0.95060000  0.04810000  1
  H  H5  1  0.94570000  0.99350000  0.26477000  1
  H  H6  1  0.87890000  0.55790000  0.24000000  1
  H  H7  1  0.87870000  0.30650000  0.06697000  1
  H  H8  1  0.82980000  0.90870000  0.45113000  1
  H  H9  1  0.81240000  0.55990000  0.80563000  1
  H  H10  1  0.81230000  0.90540000  0.87283000  1
  H  H11  1  0.81190000  0.26320000  0.50123000  1
  H  H12  1  0.74750000  0.18760000  0.13897000  1
  H  H13  1  0.73680000  0.54870000  0.16790000  1
  H  H14  1  0.69350000  0.57220000  0.73363000  1
  H  H15  1  0.67900000  0.12110000  0.57333000  1
  H  H16  1  0.60190000  0.00500000  0.20367000  1
  H  H17  1  0.60000000  0.61110000  0.11110000  1
  H  H18  1  0.59810000  0.80740000  0.83703000  1
  H  H19  1  0.59680000  0.78490000  0.47453000  1
  H  H20  1  0.52580000  0.96480000  0.64223000  1
  H  H21  1  0.50860000  0.53620000  0.67433000  1
  H  H22  1  0.46380000  0.97240000  0.34100000  1
  H  H23  1  0.45130000  0.18810000  0.83457000  1
  H  H24  1  0.44210000  0.32100000  0.90667000  1
  H  H25  1  0.44010000  0.25250000  0.47230000  1
  H  H26  1  0.43900000  0.47420000  0.97557000  1
  H  H27  1  0.42780000  0.12130000  0.40030000  1
  H  H28  1  0.42740000  0.78400000  0.77283000  1
  H  H29  1  0.42060000  0.65070000  0.53463000  1
  H  H30  1  0.40310000  0.39810000  0.53700000  1
  H  H31  1  0.38890000  0.98890000  0.77777000  1
  H  H32  1  0.35660000  0.57260000  0.10617000  1
  H  H33  1  0.34930000  0.76990000  0.20130000  1
  H  H34  1  0.23010000  0.57940000  0.86797000  1
  H  H35  1  0.21600000  0.64340000  0.43950000  1
  H  H36  1  0.21510000  0.81190000  0.14120000  1
  H  H37  1  0.20930000  0.40190000  0.17037000  1
  H  H38  1  0.19260000  0.79070000  0.50370000  1
  H  H39  1  0.18810000  0.40320000  0.80787000  1
  H  H40  1  0.09460000  0.90690000  0.53950000  1
  H  H41  1  0.09310000  0.18770000  0.20617000  1
  H  H42  1  0.09130000  0.92110000  0.11780000  1
  H  H43  1  0.07890000  0.17020000  0.78447000  1
  H  H44  1  0.04940000  0.99570000  0.71477000  1
  H  H45  1  0.04780000  0.05430000  0.59810000  1
  H  H46  1  0.03520000  0.56100000  0.30890000  1
  H  H47  1  0.02760000  0.49140000  0.00767000  1
  H  H48  1  0.01110000  0.40000000  0.44443000  1
  H  H49  1  0.00650000  0.95220000  0.93143000  1
  H  H50  1  0.00430000  0.05370000  0.38143000  1
  C  C51  1  0.99300000  0.85000000  0.11360000  1
  C  C52  1  0.99200000  0.14900000  0.20447000  1
  C  C53  1  0.98000000  0.61400000  0.23320000  1
  C  C54  1  0.97800000  0.36100000  0.07677000  1
  C  C55  1  0.96600000  0.09600000  0.40703000  1
  C  C56  1  0.96600000  0.29800000  0.44163000  1
  C  C57  1  0.96600000  0.87000000  0.90673000  1
  C  C58  1  0.96000000  0.66300000  0.87023000  1
  C  C59  1  0.93410000  0.20810000  0.16557000  1
  C  C60  1  0.93340000  0.72400000  0.14660000  1
  C  C61  1  0.90400000  0.03400000  0.24007000  1
  C  C62  1  0.90400000  0.87000000  0.07370000  1
  C  C63  1  0.85700000  0.00700000  0.44693000  1
  C  C64  1  0.85100000  0.84300000  0.87113000  1
  C  C65  1  0.85080000  0.21750000  0.47783000  1
  C  C66  1  0.84900000  0.63900000  0.83203000  1
  C  C67  1  0.79190000  0.72600000  0.83223000  1
  C  C68  1  0.79060000  0.06660000  0.47993000  1
  C  C69  1  0.79000000  0.15100000  0.16537000  1
  C  C70  1  0.78250000  0.63330000  0.14450000  1
  C  C71  1  0.75460000  0.97860000  0.24007000  1
  C  C72  1  0.75330000  0.77300000  0.07060000  1
  C  C73  1  0.70300000  0.04000000  0.20357000  1
  C  C74  1  0.70200000  0.66800000  0.10830000  1
  C  C75  1  0.67340000  0.69890000  0.79293000  1
  C  C76  1  0.66950000  0.97360000  0.51923000  1
  C  C77  1  0.66100000  0.85900000  0.28107000  1
  C  C78  1  0.65790000  0.80580000  0.03100000  1
  C  C79  1  0.63900000  0.61700000  0.74343000  1
  C  C80  1  0.63400000  0.02000000  0.56653000  1
  C  C81  1  0.58570000  0.75400000  0.80223000  1
  C  C82  1  0.58220000  0.82720000  0.50853000  1
  C  C83  1  0.53500000  0.92700000  0.60593000  1
  C  C84  1  0.52900000  0.59700000  0.70753000  1
  C  C85  1  0.48180000  0.74880000  0.54533000  1
  C  C86  1  0.48070000  0.73700000  0.76433000  1
  C  C87  1  0.40300000  0.93200000  0.37420000  1
  C  C88  1  0.39200000  0.46500000  0.93927000  1
  C  C89  1  0.38600000  0.36600000  0.89987000  1
  C  C90  1  0.38300000  0.02200000  0.41010000  1
  C  C91  1  0.36670000  0.14920000  0.81117000  1
  C  C92  1  0.36100000  0.21000000  0.49870000  1
  C  C93  1  0.33700000  0.29700000  0.53690000  1
  C  C94  1  0.33200000  0.03400000  0.77497000  1
  C  C95  1  0.30410000  0.33050000  0.85257000  1
  C  C96  1  0.30110000  0.97450000  0.45960000  1
  C  C97  1  0.27600000  0.20940000  0.81327000  1
  C  C98  1  0.27400000  0.06590000  0.49890000  1
  C  C99  1  0.26700000  0.51820000  0.87867000  1
  C  C100  1  0.26300000  0.74370000  0.43100000  1
  C  C101  1  0.25630000  0.51930000  0.09767000  1
  C  C102  1  0.25120000  0.73300000  0.21200000  1
  C  C103  1  0.24600000  0.83170000  0.46890000  1
  C  C104  1  0.24500000  0.41780000  0.84187000  1
  C  C105  1  0.22700000  0.98030000  0.73727000  1
  C  C106  1  0.22400000  0.24540000  0.57340000  1
  C  C107  1  0.19800000  0.33900000  0.61440000  1
  C  C108  1  0.19420000  0.85210000  0.69767000  1
  C  C109  1  0.17280000  0.75500000  0.17520000  1
  C  C110  1  0.16830000  0.41430000  0.13557000  1
  C  C111  1  0.15700000  0.00800000  0.53780000  1
  C  C112  1  0.15000000  0.14300000  0.78027000  1
  C  C113  1  0.14790000  0.34210000  0.36433000  1
  C  C114  1  0.14100000  0.80200000  0.94773000  1
  C  C115  1  0.13000000  0.03400000  0.74037000  1
  C  C116  1  0.13000000  0.09600000  0.57340000  1
  C  C117  1  0.07300000  0.60800000  0.27260000  1
  C  C118  1  0.06800000  0.47100000  0.04087000  1
  C  C119  1  0.02640000  0.69590000  0.18590000  1
  C  C120  1  0.02550000  0.32660000  0.12627000  1
  C  C121  1  0.02140000  0.77600000  0.90673000  1
  C  C122  1  0.01970000  0.24670000  0.40393000  1
  N  N123  1  0.45250000  0.78820000  0.59603000  1
  N  N124  1  0.44710000  0.65780000  0.71643000  1
  N  N125  1  0.34220000  0.78930000  0.38310000  1
  N  N126  1  0.33570000  0.54750000  0.92937000  1
  N  N127  1  0.21180000  0.66430000  0.26270000  1
  N  N128  1  0.21070000  0.55290000  0.04977000  1
  O  O129  1  0.72220000  0.80920000  0.31367000  1
  O  O130  1  0.72180000  0.91570000  0.99750000  1
  O  O131  1  0.52730000  0.81660000  0.28077000  1
  O  O132  1  0.52690000  0.71320000  0.03130000  1
  O  O133  1  0.28930000  0.47270000  0.61410000  1
  O  O134  1  0.28680000  0.81370000  0.69797000  1
  O  O135  1  0.19390000  0.27820000  0.33083000  1
  O  O136  1  0.19080000  0.91300000  0.98033000  1
  O  O137  1  0.18630000  0.47310000  0.36463000  1
  O  O138  1  0.18340000  0.71070000  0.94743000  1
  O  O139  1  0.08700000  0.27780000  0.64700000  1
  O  O140  1  0.08430000  0.80610000  0.66417000  1
