# generated using pymatgen
data_AgH8(CN)2
_symmetry_space_group_name_H-M   'P 1'
_cell_length_a   6.29430000
_cell_length_b   7.40901573
_cell_length_c   7.40901573
_cell_angle_alpha   90.57197969
_cell_angle_beta   107.38809375
_cell_angle_gamma   107.38809375
_symmetry_Int_Tables_number   1
_chemical_formula_structural   AgH8(CN)2
_chemical_formula_sum   'Ag2 H16 C4 N4'
_cell_volume   312.78355353
_cell_formula_units_Z   2
loop_
 _symmetry_equiv_pos_site_id
 _symmetry_equiv_pos_as_xyz
  1  'x, y, z'
loop_
 _atom_site_type_symbol
 _atom_site_label
 _atom_site_symmetry_multiplicity
 _atom_site_fract_x
 _atom_site_fract_y
 _atom_site_fract_z
 _atom_site_occupancy
  Ag  Ag0  1  1.00000000  0.50000000  0.50000000  1
  Ag  Ag1  1  0.50000000  0.50000000  0.50000000  1
  C  C2  1  0.54610000  0.52700000  0.10620000  1
  C  C3  1  0.04610000  0.10620000  0.52700000  1
  C  C4  1  0.45390000  0.47300000  0.89380000  1
  C  C5  1  0.95390000  0.89380000  0.47300000  1
  H  H6  1  0.57670000  0.66250000  0.13230000  1
  H  H7  1  0.07670000  0.13230000  0.66250000  1
  H  H8  1  0.69350000  0.50080000  0.15740000  1
  H  H9  1  0.19350000  0.15740000  0.50080000  1
  H  H10  1  0.24310000  0.44450000  0.15170000  1
  H  H11  1  0.74310000  0.15170000  0.44450000  1
  H  H12  1  0.64420000  0.70260000  0.82020000  1
  H  H13  1  0.14420000  0.82020000  0.70260000  1
  H  H14  1  0.35580000  0.29740000  0.17980000  1
  H  H15  1  0.85580000  0.17980000  0.29740000  1
  H  H16  1  0.75690000  0.55550000  0.84830000  1
  H  H17  1  0.25690000  0.84830000  0.55550000  1
  H  H18  1  0.30650000  0.49920000  0.84260000  1
  H  H19  1  0.80650000  0.84260000  0.49920000  1
  H  H20  1  0.42330000  0.33750000  0.86770000  1
  H  H21  1  0.92330000  0.86770000  0.33750000  1
  N  N22  1  0.38110000  0.42290000  0.20210000  1
  N  N23  1  0.88110000  0.20210000  0.42290000  1
  N  N24  1  0.61890000  0.57710000  0.79790000  1
  N  N25  1  0.11890000  0.79790000  0.57710000  1
