# generated using pymatgen
data_Cu2H10C19N4O7
_symmetry_space_group_name_H-M   'P 1'
_cell_length_a   9.85780000
_cell_length_b   10.77200000
_cell_length_c   21.75240000
_cell_angle_alpha   90.00000000
_cell_angle_beta   90.00000000
_cell_angle_gamma   111.72800000
_symmetry_Int_Tables_number   1
_chemical_formula_structural   Cu2H10C19N4O7
_chemical_formula_sum   'Cu8 H40 C76 N16 O28'
_cell_volume   2145.73800779
_cell_formula_units_Z   4
loop_
 _symmetry_equiv_pos_site_id
 _symmetry_equiv_pos_as_xyz
  1  'x, y, z'
loop_
 _atom_site_type_symbol
 _atom_site_label
 _atom_site_symmetry_multiplicity
 _atom_site_fract_x
 _atom_site_fract_y
 _atom_site_fract_z
 _atom_site_occupancy
  Cu  Cu0  1  0.93618000  0.03656000  0.61005000  1
  Cu  Cu1  1  0.43618000  0.03656000  0.88995000  1
  Cu  Cu2  1  0.99597000  0.49185000  0.13412000  1
  Cu  Cu3  1  0.49597000  0.49185000  0.36588000  1
  Cu  Cu4  1  0.50403000  0.50815000  0.63412000  1
  Cu  Cu5  1  0.00403000  0.50815000  0.86588000  1
  Cu  Cu6  1  0.56382000  0.96344000  0.11005000  1
  Cu  Cu7  1  0.06382000  0.96344000  0.38995000  1
  H  H8  1  0.64750000  0.01380000  0.50250000  1
  H  H9  1  0.14750000  0.01380000  0.99750000  1
  H  H10  1  0.38740000  0.06430000  0.02270000  1
  H  H11  1  0.88740000  0.06430000  0.47730000  1
  H  H12  1  0.53370000  0.16190000  0.54690000  1
  H  H13  1  0.03370000  0.16190000  0.95310000  1
  H  H14  1  0.21970000  0.23440000  0.63790000  1
  H  H15  1  0.71970000  0.23440000  0.86210000  1
  H  H16  1  0.80500000  0.29400000  0.23260000  1
  H  H17  1  0.30500000  0.29400000  0.26740000  1
  H  H18  1  0.80780000  0.30290000  0.51720000  1
  H  H19  1  0.30780000  0.30290000  0.98280000  1
  H  H20  1  0.14860000  0.30690000  0.19160000  1
  H  H21  1  0.64860000  0.30690000  0.30840000  1
  H  H22  1  0.71810000  0.33380000  0.02000000  1
  H  H23  1  0.21810000  0.33380000  0.48000000  1
  H  H24  1  0.31160000  0.33850000  0.74840000  1
  H  H25  1  0.81160000  0.33850000  0.75160000  1
  H  H26  1  0.47540000  0.43150000  0.14580000  1
  H  H27  1  0.97540000  0.43150000  0.35420000  1
  H  H28  1  0.02460000  0.56850000  0.64580000  1
  H  H29  1  0.52460000  0.56850000  0.85420000  1
  H  H30  1  0.18840000  0.66150000  0.24840000  1
  H  H31  1  0.68840000  0.66150000  0.25160000  1
  H  H32  1  0.78190000  0.66620000  0.52000000  1
  H  H33  1  0.28190000  0.66620000  0.98000000  1
  H  H34  1  0.35140000  0.69310000  0.69160000  1
  H  H35  1  0.85140000  0.69310000  0.80840000  1
  H  H36  1  0.69220000  0.69710000  0.01720000  1
  H  H37  1  0.19220000  0.69710000  0.48280000  1
  H  H38  1  0.69500000  0.70600000  0.73260000  1
  H  H39  1  0.19500000  0.70600000  0.76740000  1
  H  H40  1  0.28030000  0.76560000  0.13790000  1
  H  H41  1  0.78030000  0.76560000  0.36210000  1
  H  H42  1  0.96630000  0.83810000  0.04690000  1
  H  H43  1  0.46630000  0.83810000  0.45310000  1
  H  H44  1  0.11260000  0.93570000  0.52270000  1
  H  H45  1  0.61260000  0.93570000  0.97730000  1
  H  H46  1  0.85250000  0.98620000  0.00250000  1
  H  H47  1  0.35250000  0.98620000  0.49750000  1
  C  C48  1  0.18420000  0.00750000  0.54189000  1
  C  C49  1  0.68420000  0.00750000  0.95811000  1
  C  C50  1  0.32760000  0.03640000  0.52704000  1
  C  C51  1  0.82760000  0.03640000  0.97296000  1
  C  C52  1  0.43580000  0.14130000  0.55643000  1
  C  C53  1  0.93580000  0.14130000  0.94357000  1
  C  C54  1  0.24790000  0.18220000  0.61053000  1
  C  C55  1  0.74790000  0.18220000  0.88947000  1
  C  C56  1  0.39570000  0.21450000  0.60015000  1
  C  C57  1  0.89570000  0.21450000  0.89985000  1
  C  C58  1  0.54780000  0.22700000  0.11780000  1
  C  C59  1  0.04780000  0.22700000  0.38220000  1
  C  C60  1  0.60290000  0.30110000  0.66427000  1
  C  C61  1  0.10290000  0.30110000  0.83573000  1
  C  C62  1  0.96920000  0.31480000  0.61602000  1
  C  C63  1  0.46920000  0.31480000  0.88398000  1
  C  C64  1  0.58960000  0.36080000  0.08726000  1
  C  C65  1  0.08960000  0.36080000  0.41274000  1
  C  C66  1  0.78410000  0.37100000  0.23664000  1
  C  C67  1  0.28410000  0.37100000  0.26336000  1
  C  C68  1  0.18870000  0.37850000  0.21836000  1
  C  C69  1  0.68870000  0.37850000  0.28164000  1
  C  C70  1  0.83270000  0.38690000  0.53508000  1
  C  C71  1  0.33270000  0.38690000  0.96492000  1
  C  C72  1  0.68230000  0.39540000  0.03640000  1
  C  C73  1  0.18230000  0.39540000  0.46360000  1
  C  C74  1  0.78650000  0.41350000  0.74901000  1
  C  C75  1  0.28650000  0.41350000  0.75099000  1
  C  C76  1  0.68630000  0.41740000  0.70486000  1
  C  C77  1  0.18630000  0.41740000  0.79514000  1
  C  C78  1  0.92340000  0.41960000  0.58639000  1
  C  C79  1  0.42340000  0.41960000  0.91361000  1
  C  C80  1  0.17520000  0.43480000  0.04314000  1
  C  C81  1  0.67520000  0.43480000  0.45686000  1
  C  C82  1  0.53720000  0.45430000  0.11195000  1
  C  C83  1  0.03720000  0.45430000  0.38805000  1
  C  C84  1  0.77870000  0.47860000  0.51021000  1
  C  C85  1  0.27870000  0.47860000  0.98979000  1
  C  C86  1  0.72130000  0.52140000  0.01021000  1
  C  C87  1  0.22130000  0.52140000  0.48979000  1
  C  C88  1  0.96280000  0.54570000  0.61195000  1
  C  C89  1  0.46280000  0.54570000  0.88805000  1
  C  C90  1  0.32480000  0.56520000  0.54314000  1
  C  C91  1  0.82480000  0.56520000  0.95686000  1
  C  C92  1  0.57660000  0.58040000  0.08639000  1
  C  C93  1  0.07660000  0.58040000  0.41361000  1
  C  C94  1  0.81370000  0.58260000  0.20486000  1
  C  C95  1  0.31370000  0.58260000  0.29514000  1
  C  C96  1  0.71350000  0.58650000  0.24901000  1
  C  C97  1  0.21350000  0.58650000  0.25099000  1
  C  C98  1  0.81770000  0.60460000  0.53640000  1
  C  C99  1  0.31770000  0.60460000  0.96360000  1
  C  C100  1  0.66730000  0.61310000  0.03508000  1
  C  C101  1  0.16730000  0.61310000  0.46492000  1
  C  C102  1  0.31130000  0.62150000  0.71836000  1
  C  C103  1  0.81130000  0.62150000  0.78164000  1
  C  C104  1  0.71590000  0.62900000  0.73664000  1
  C  C105  1  0.21590000  0.62900000  0.76336000  1
  C  C106  1  0.91040000  0.63920000  0.58726000  1
  C  C107  1  0.41040000  0.63920000  0.91274000  1
  C  C108  1  0.53080000  0.68520000  0.11602000  1
  C  C109  1  0.03080000  0.68520000  0.38398000  1
  C  C110  1  0.89710000  0.69890000  0.16427000  1
  C  C111  1  0.39710000  0.69890000  0.33573000  1
  C  C112  1  0.95220000  0.77300000  0.61780000  1
  C  C113  1  0.45220000  0.77300000  0.88220000  1
  C  C114  1  0.10430000  0.78550000  0.10015000  1
  C  C115  1  0.60430000  0.78550000  0.39985000  1
  C  C116  1  0.25210000  0.81780000  0.11053000  1
  C  C117  1  0.75210000  0.81780000  0.38947000  1
  C  C118  1  0.06420000  0.85870000  0.05643000  1
  C  C119  1  0.56420000  0.85870000  0.44357000  1
  C  C120  1  0.17240000  0.96360000  0.02704000  1
  C  C121  1  0.67240000  0.96360000  0.47296000  1
  C  C122  1  0.31580000  0.99250000  0.04189000  1
  C  C123  1  0.81580000  0.99250000  0.45811000  1
  N  N124  1  0.14370000  0.07950000  0.58320000  1
  N  N125  1  0.64370000  0.07950000  0.91680000  1
  N  N126  1  0.49610000  0.32150000  0.63408000  1
  N  N127  1  0.99610000  0.32150000  0.86592000  1
  N  N128  1  0.84630000  0.47390000  0.19894000  1
  N  N129  1  0.34630000  0.47390000  0.30106000  1
  N  N130  1  0.15240000  0.48510000  0.21216000  1
  N  N131  1  0.65240000  0.48510000  0.28784000  1
  N  N132  1  0.34760000  0.51490000  0.71216000  1
  N  N133  1  0.84760000  0.51490000  0.78784000  1
  N  N134  1  0.65370000  0.52610000  0.69894000  1
  N  N135  1  0.15370000  0.52610000  0.80106000  1
  N  N136  1  0.00390000  0.67850000  0.13408000  1
  N  N137  1  0.50390000  0.67850000  0.36592000  1
  N  N138  1  0.35630000  0.92050000  0.08320000  1
  N  N139  1  0.85630000  0.92050000  0.41680000  1
  O  O140  1  0.62115000  0.15527000  0.10078000  1
  O  O141  1  0.12115000  0.15527000  0.39922000  1
  O  O142  1  0.45080000  0.19420000  0.15644000  1
  O  O143  1  0.95080000  0.19420000  0.34356000  1
  O  O144  1  0.63490000  0.20038000  0.66548000  1
  O  O145  1  0.13490000  0.20038000  0.83452000  1
  O  O146  1  0.94550000  0.21034000  0.58348000  1
  O  O147  1  0.44550000  0.21034000  0.91652000  1
  O  O148  1  0.13750000  0.31690000  0.06032000  1
  O  O149  1  0.63750000  0.31690000  0.43968000  1
  O  O150  1  0.02080000  0.33309000  0.66845000  1
  O  O151  1  0.52080000  0.33309000  0.83155000  1
  O  O152  1  0.36820000  0.47750000  0.56627000  1
  O  O153  1  0.86820000  0.47750000  0.93373000  1
  O  O154  1  0.13180000  0.52250000  0.06627000  1
  O  O155  1  0.63180000  0.52250000  0.43373000  1
  O  O156  1  0.47920000  0.66691000  0.16845000  1
  O  O157  1  0.97920000  0.66691000  0.33155000  1
  O  O158  1  0.36250000  0.68310000  0.56032000  1
  O  O159  1  0.86250000  0.68310000  0.93968000  1
  O  O160  1  0.55450000  0.78966000  0.08348000  1
  O  O161  1  0.05450000  0.78966000  0.41652000  1
  O  O162  1  0.86510000  0.79962000  0.16548000  1
  O  O163  1  0.36510000  0.79962000  0.33452000  1
  O  O164  1  0.04920000  0.80580000  0.65644000  1
  O  O165  1  0.54920000  0.80580000  0.84356000  1
  O  O166  1  0.87885000  0.84473000  0.60078000  1
  O  O167  1  0.37885000  0.84473000  0.89922000  1
