# generated using pymatgen
data_Cd2H14C24Br4N4O9
_symmetry_space_group_name_H-M   'P 1'
_cell_length_a   11.61138358
_cell_length_b   11.61138358
_cell_length_c   15.05380000
_cell_angle_alpha   109.62992541
_cell_angle_beta   109.62992541
_cell_angle_gamma   96.91347209
_symmetry_Int_Tables_number   1
_chemical_formula_structural   Cd2H14C24Br4N4O9
_chemical_formula_sum   'Cd4 H28 C48 Br8 N8 O18'
_cell_volume   1737.22093216
_cell_formula_units_Z   2
loop_
 _symmetry_equiv_pos_site_id
 _symmetry_equiv_pos_as_xyz
  1  'x, y, z'
loop_
 _atom_site_type_symbol
 _atom_site_label
 _atom_site_symmetry_multiplicity
 _atom_site_fract_x
 _atom_site_fract_y
 _atom_site_fract_z
 _atom_site_occupancy
  Br  Br0  1  0.56209000  0.36427000  0.87044000  1
  Br  Br1  1  0.36427000  0.56209000  0.37044000  1
  Br  Br2  1  0.72926000  0.99484000  0.19199000  1
  Br  Br3  1  0.99484000  0.72926000  0.69199000  1
  Br  Br4  1  0.27074000  0.00516000  0.80801000  1
  Br  Br5  1  0.00516000  0.27074000  0.30801000  1
  Br  Br6  1  0.43791000  0.63573000  0.12956000  1
  Br  Br7  1  0.63573000  0.43791000  0.62956000  1
  C  C8  1  0.76690000  0.16290000  0.58290000  1
  C  C9  1  0.16290000  0.76690000  0.08290000  1
  C  C10  1  0.74400000  0.09260000  0.39780000  1
  C  C11  1  0.09260000  0.74400000  0.89780000  1
  C  C12  1  0.68920000  0.11620000  0.46900000  1
  C  C13  1  0.11620000  0.68920000  0.96900000  1
  C  C14  1  0.66370000  0.04010000  0.29460000  1
  C  C15  1  0.04010000  0.66370000  0.79460000  1
  C  C16  1  0.39260000  0.30220000  0.77050000  1
  C  C17  1  0.30220000  0.39260000  0.27050000  1
  C  C18  1  0.79490000  0.85650000  0.51780000  1
  C  C19  1  0.85650000  0.79490000  0.01780000  1
  C  C20  1  0.55880000  0.08880000  0.43360000  1
  C  C21  1  0.08880000  0.55880000  0.93360000  1
  C  C22  1  0.78750000  0.85050000  0.86470000  1
  C  C23  1  0.85050000  0.78750000  0.36470000  1
  C  C24  1  0.36880000  0.24980000  0.66720000  1
  C  C25  1  0.24980000  0.36880000  0.16720000  1
  C  C26  1  0.30900000  0.29540000  0.30280000  1
  C  C27  1  0.29540000  0.30900000  0.80280000  1
  C  C28  1  0.75650000  0.79510000  0.40250000  1
  C  C29  1  0.79510000  0.75650000  0.90250000  1
  C  C30  1  0.53480000  0.01560000  0.26480000  1
  C  C31  1  0.01560000  0.53480000  0.76480000  1
  C  C32  1  0.46520000  0.98440000  0.73520000  1
  C  C33  1  0.98440000  0.46520000  0.23520000  1
  C  C34  1  0.24350000  0.20490000  0.59750000  1
  C  C35  1  0.20490000  0.24350000  0.09750000  1
  C  C36  1  0.69100000  0.70460000  0.69720000  1
  C  C37  1  0.70460000  0.69100000  0.19720000  1
  C  C38  1  0.63120000  0.75020000  0.33280000  1
  C  C39  1  0.75020000  0.63120000  0.83280000  1
  C  C40  1  0.21250000  0.14950000  0.13530000  1
  C  C41  1  0.14950000  0.21250000  0.63530000  1
  C  C42  1  0.44120000  0.91120000  0.56640000  1
  C  C43  1  0.91120000  0.44120000  0.06640000  1
  C  C44  1  0.20510000  0.14350000  0.48220000  1
  C  C45  1  0.14350000  0.20510000  0.98220000  1
  C  C46  1  0.60740000  0.69780000  0.22950000  1
  C  C47  1  0.69780000  0.60740000  0.72950000  1
  C  C48  1  0.33630000  0.95990000  0.70540000  1
  C  C49  1  0.95990000  0.33630000  0.20540000  1
  C  C50  1  0.31080000  0.88380000  0.53100000  1
  C  C51  1  0.88380000  0.31080000  0.03100000  1
  C  C52  1  0.25600000  0.90740000  0.60220000  1
  C  C53  1  0.90740000  0.25600000  0.10220000  1
  C  C54  1  0.23310000  0.83710000  0.41710000  1
  C  C55  1  0.83710000  0.23310000  0.91710000  1
  Cd  Cd56  1  0.73355000  0.99867000  0.71423000  1
  Cd  Cd57  1  0.99867000  0.73355000  0.21423000  1
  Cd  Cd58  1  0.26645000  0.00133000  0.28577000  1
  Cd  Cd59  1  0.00133000  0.26645000  0.78577000  1
  H  H60  1  0.94780000  0.00680000  0.69350000  1
  H  H61  1  0.00680000  0.94780000  0.19350000  1
  H  H62  1  0.83160000  0.11140000  0.41890000  1
  H  H63  1  0.11140000  0.83160000  0.91890000  1
  H  H64  1  0.81970000  0.93470000  0.91160000  1
  H  H65  1  0.93470000  0.81970000  0.41160000  1
  H  H66  1  0.43450000  0.24490000  0.64520000  1
  H  H67  1  0.24490000  0.43450000  0.14520000  1
  H  H68  1  0.34600000  0.31440000  0.37300000  1
  H  H69  1  0.31440000  0.34600000  0.87300000  1
  H  H70  1  0.52260000  0.10420000  0.48150000  1
  H  H71  1  0.10420000  0.52260000  0.98150000  1
  H  H72  1  0.51740000  0.01980000  0.80510000  1
  H  H73  1  0.01980000  0.51740000  0.30510000  1
  H  H74  1  0.48260000  0.98020000  0.19490000  1
  H  H75  1  0.98020000  0.48260000  0.69490000  1
  H  H76  1  0.47740000  0.89580000  0.51850000  1
  H  H77  1  0.89580000  0.47740000  0.01850000  1
  H  H78  1  0.65400000  0.68560000  0.62700000  1
  H  H79  1  0.68560000  0.65400000  0.12700000  1
  H  H80  1  0.56550000  0.75510000  0.35480000  1
  H  H81  1  0.75510000  0.56550000  0.85480000  1
  H  H82  1  0.18030000  0.06530000  0.08840000  1
  H  H83  1  0.06530000  0.18030000  0.58840000  1
  H  H84  1  0.16840000  0.88860000  0.58110000  1
  H  H85  1  0.88860000  0.16840000  0.08110000  1
  H  H86  1  0.05220000  0.99320000  0.30650000  1
  H  H87  1  0.99320000  0.05220000  0.80650000  1
  N  N88  1  0.73630000  0.82610000  0.76410000  1
  N  N89  1  0.82610000  0.73630000  0.26410000  1
  N  N90  1  0.48180000  0.04120000  0.33320000  1
  N  N91  1  0.04120000  0.48180000  0.83320000  1
  N  N92  1  0.51820000  0.95880000  0.66680000  1
  N  N93  1  0.95880000  0.51820000  0.16680000  1
  N  N94  1  0.26370000  0.17390000  0.23590000  1
  N  N95  1  0.17390000  0.26370000  0.73590000  1
  O  O96  1  0.94630000  0.05370000  0.75000000  1
  O  O97  1  0.05370000  0.94630000  0.25000000  1
  O  O98  1  0.77844000  0.11916000  0.88250000  1
  O  O99  1  0.11916000  0.77844000  0.38250000  1
  O  O100  1  0.71010000  0.13770000  0.63460000  1
  O  O101  1  0.13770000  0.71010000  0.13460000  1
  O  O102  1  0.89710000  0.91170000  0.07110000  1
  O  O103  1  0.91170000  0.89710000  0.57110000  1
  O  O104  1  0.70820000  0.86080000  0.54970000  1
  O  O105  1  0.86080000  0.70820000  0.04970000  1
  O  O106  1  0.29180000  0.13920000  0.45030000  1
  O  O107  1  0.13920000  0.29180000  0.95030000  1
  O  O108  1  0.10290000  0.08830000  0.92890000  1
  O  O109  1  0.08830000  0.10290000  0.42890000  1
  O  O110  1  0.28990000  0.86230000  0.36540000  1
  O  O111  1  0.86230000  0.28990000  0.86540000  1
  O  O112  1  0.22156000  0.88084000  0.11750000  1
  O  O113  1  0.88084000  0.22156000  0.61750000  1
