# generated using pymatgen
data_CuH7C15O4
_symmetry_space_group_name_H-M   'P 1'
_cell_length_a   18.45300000
_cell_length_b   18.45300000
_cell_length_c   27.78260000
_cell_angle_alpha   70.60390000
_cell_angle_beta   70.60390000
_cell_angle_gamma   60.00000000
_symmetry_Int_Tables_number   1
_chemical_formula_structural   CuH7C15O4
_chemical_formula_sum   'Cu12 H84 C180 O48'
_cell_volume   7566.56858537
_cell_formula_units_Z   12
loop_
 _symmetry_equiv_pos_site_id
 _symmetry_equiv_pos_as_xyz
  1  'x, y, z'
loop_
 _atom_site_type_symbol
 _atom_site_label
 _atom_site_symmetry_multiplicity
 _atom_site_fract_x
 _atom_site_fract_y
 _atom_site_fract_z
 _atom_site_occupancy
  Cu  Cu0  1  0.77887000  0.79721000  0.20775000  1
  Cu  Cu1  1  0.20279000  0.78383000  0.79225000  1
  Cu  Cu2  1  0.21617000  0.77887000  0.20775000  1
  Cu  Cu3  1  0.70279000  0.72113000  0.29225000  1
  Cu  Cu4  1  0.27887000  0.71617000  0.70775000  1
  Cu  Cu5  1  0.28383000  0.70279000  0.29225000  1
  Cu  Cu6  1  0.71617000  0.29721000  0.70775000  1
  Cu  Cu7  1  0.72113000  0.28383000  0.29225000  1
  Cu  Cu8  1  0.29721000  0.27887000  0.70775000  1
  Cu  Cu9  1  0.78383000  0.22113000  0.79225000  1
  Cu  Cu10  1  0.79721000  0.21617000  0.20775000  1
  Cu  Cu11  1  0.22113000  0.20279000  0.79225000  1
  H  H12  1  0.97640000  0.98840000  0.74510000  1
  H  H13  1  0.29010000  0.97640000  0.74510000  1
  H  H14  1  0.70230000  0.97600000  0.44060000  1
  H  H15  1  0.56490000  0.93890000  0.61490000  1
  H  H16  1  0.77300000  0.93580000  0.50540000  1
  H  H17  1  0.56110000  0.93510000  0.88510000  1
  H  H18  1  0.70430000  0.91460000  0.59330000  1
  H  H19  1  0.58890000  0.91230000  0.38210000  1
  H  H20  1  0.58770000  0.91110000  0.11790000  1
  H  H21  1  0.37730000  0.89960000  0.11460000  1
  H  H22  1  0.12270000  0.89150000  0.38540000  1
  H  H23  1  0.08770000  0.88330000  0.61790000  1
  H  H24  1  0.93890000  0.88130000  0.61490000  1
  H  H25  1  0.97600000  0.88110000  0.44060000  1
  H  H26  1  0.39960000  0.87730000  0.61460000  1
  H  H27  1  0.52400000  0.79770000  0.05940000  1
  H  H28  1  0.58540000  0.79570000  0.90670000  1
  H  H29  1  0.47640000  0.79010000  0.24510000  1
  H  H30  1  0.91460000  0.78780000  0.59330000  1
  H  H31  1  0.93580000  0.78580000  0.50540000  1
  H  H32  1  0.78580000  0.77300000  0.50540000  1
  H  H33  1  0.56420000  0.72700000  0.99460000  1
  H  H34  1  0.72700000  0.71420000  0.99460000  1
  H  H35  1  0.79570000  0.71220000  0.90670000  1
  H  H36  1  0.01160000  0.70990000  0.25490000  1
  H  H37  1  0.78780000  0.70430000  0.59330000  1
  H  H38  1  0.88110000  0.70230000  0.44060000  1
  H  H39  1  0.39150000  0.62270000  0.88540000  1
  H  H40  1  0.79770000  0.61890000  0.05940000  1
  H  H41  1  0.93510000  0.61870000  0.88510000  1
  H  H42  1  0.08890000  0.61670000  0.88210000  1
  H  H43  1  0.89960000  0.60850000  0.11460000  1
  H  H44  1  0.89150000  0.60040000  0.38540000  1
  H  H45  1  0.11670000  0.58890000  0.38210000  1
  H  H46  1  0.38330000  0.58770000  0.11790000  1
  H  H47  1  0.71220000  0.58540000  0.90670000  1
  H  H48  1  0.88130000  0.56490000  0.61490000  1
  H  H49  1  0.71420000  0.56420000  0.99460000  1
  H  H50  1  0.61870000  0.56110000  0.88510000  1
  H  H51  1  0.61890000  0.52400000  0.05940000  1
  H  H52  1  0.51160000  0.52360000  0.75490000  1
  H  H53  1  0.20990000  0.51160000  0.75490000  1
  H  H54  1  0.79010000  0.48840000  0.24510000  1
  H  H55  1  0.48840000  0.47640000  0.24510000  1
  H  H56  1  0.38110000  0.47600000  0.94060000  1
  H  H57  1  0.38130000  0.43890000  0.11490000  1
  H  H58  1  0.28580000  0.43580000  0.00540000  1
  H  H59  1  0.11870000  0.43510000  0.38510000  1
  H  H60  1  0.28780000  0.41460000  0.09330000  1
  H  H61  1  0.61670000  0.41230000  0.88210000  1
  H  H62  1  0.88330000  0.41110000  0.61790000  1
  H  H63  1  0.10850000  0.39960000  0.61460000  1
  H  H64  1  0.10040000  0.39150000  0.88540000  1
  H  H65  1  0.91110000  0.38330000  0.11790000  1
  H  H66  1  0.06490000  0.38130000  0.11490000  1
  H  H67  1  0.20230000  0.38110000  0.94060000  1
  H  H68  1  0.60850000  0.37730000  0.11460000  1
  H  H69  1  0.11890000  0.29770000  0.55940000  1
  H  H70  1  0.21220000  0.29570000  0.40670000  1
  H  H71  1  0.98840000  0.29010000  0.74510000  1
  H  H72  1  0.20430000  0.28780000  0.09330000  1
  H  H73  1  0.27300000  0.28580000  0.00540000  1
  H  H74  1  0.43580000  0.27300000  0.00540000  1
  H  H75  1  0.21420000  0.22700000  0.49460000  1
  H  H76  1  0.06420000  0.21420000  0.49460000  1
  H  H77  1  0.08540000  0.21220000  0.40670000  1
  H  H78  1  0.52360000  0.20990000  0.75490000  1
  H  H79  1  0.41460000  0.20430000  0.09330000  1
  H  H80  1  0.47600000  0.20230000  0.94060000  1
  H  H81  1  0.60040000  0.12270000  0.38540000  1
  H  H82  1  0.02400000  0.11890000  0.55940000  1
  H  H83  1  0.06110000  0.11870000  0.38510000  1
  H  H84  1  0.91230000  0.11670000  0.38210000  1
  H  H85  1  0.87730000  0.10850000  0.61460000  1
  H  H86  1  0.62270000  0.10040000  0.88540000  1
  H  H87  1  0.41230000  0.08890000  0.88210000  1
  H  H88  1  0.41110000  0.08770000  0.61790000  1
  H  H89  1  0.29570000  0.08540000  0.40670000  1
  H  H90  1  0.43890000  0.06490000  0.11490000  1
  H  H91  1  0.22700000  0.06420000  0.49460000  1
  H  H92  1  0.43510000  0.06110000  0.38510000  1
  H  H93  1  0.29770000  0.02400000  0.55940000  1
  H  H94  1  0.70990000  0.02360000  0.25490000  1
  H  H95  1  0.02360000  0.01160000  0.25490000  1
  C  C96  1  0.98935000  0.99960000  0.55229000  1
  C  C97  1  0.98272000  0.99646000  0.60785000  1
  C  C98  1  0.97806000  0.99062000  0.71000000  1
  C  C99  1  0.45876000  0.98935000  0.55229000  1
  C  C100  1  0.58656000  0.98538000  0.48719000  1
  C  C101  1  0.41297000  0.98272000  0.60785000  1
  C  C102  1  0.32132000  0.97806000  0.71000000  1
  C  C103  1  0.54323000  0.97508000  0.53993000  1
  C  C104  1  0.67315000  0.96937000  0.47591000  1
  C  C105  1  0.48935000  0.95876000  0.05229000  1
  C  C106  1  0.65238000  0.95836000  0.31484000  1
  C  C107  1  0.52492000  0.95677000  0.96007000  1
  C  C108  1  0.60689000  0.95631000  0.36539000  1
  C  C109  1  0.59175000  0.94735000  0.57905000  1
  C  C110  1  0.71517000  0.94497000  0.51389000  1
  C  C111  1  0.97508000  0.94176000  0.53993000  1
  C  C112  1  0.98538000  0.94087000  0.48719000  1
  C  C113  1  0.08369000  0.94059000  0.31616000  1
  C  C114  1  0.08063000  0.93843000  0.36737000  1
  C  C115  1  0.67395000  0.93295000  0.56645000  1
  C  C116  1  0.04369000  0.92859000  0.63461000  1
  C  C117  1  0.04164000  0.92558000  0.68516000  1
  C  C118  1  0.38643000  0.91937000  0.63263000  1
  C  C119  1  0.34044000  0.91631000  0.68384000  1
  C  C120  1  0.51462000  0.91344000  0.01281000  1
  C  C121  1  0.48272000  0.91297000  0.10785000  1
  C  C122  1  0.55265000  0.90825000  0.92095000  1
  C  C123  1  0.54369000  0.89311000  0.13461000  1
  C  C124  1  0.68159000  0.88725000  0.28868000  1
  C  C125  1  0.41937000  0.88643000  0.13263000  1
  C  C126  1  0.94735000  0.88185000  0.57905000  1
  C  C127  1  0.96937000  0.88157000  0.47591000  1
  C  C128  1  0.14820000  0.86646000  0.29120000  1
  C  C129  1  0.11275000  0.85752000  0.71132000  1
  C  C130  1  0.30586000  0.85180000  0.70880000  1
  C  C131  1  0.54164000  0.84762000  0.18516000  1
  C  C132  1  0.41631000  0.84044000  0.18384000  1
  C  C133  1  0.53063000  0.82685000  0.02409000  1
  C  C134  1  0.93295000  0.82665000  0.56645000  1
  C  C135  1  0.56705000  0.82605000  0.93355000  1
  C  C136  1  0.94497000  0.82597000  0.51389000  1
  C  C137  1  0.47806000  0.82132000  0.21000000  1
  C  C138  1  0.61275000  0.81841000  0.21132000  1
  C  C139  1  0.35180000  0.80586000  0.20880000  1
  C  C140  1  0.55503000  0.78483000  0.98611000  1
  C  C141  1  0.82597000  0.71517000  0.51389000  1
  C  C142  1  0.86646000  0.69414000  0.29120000  1
  C  C143  1  0.14248000  0.68159000  0.28868000  1
  C  C144  1  0.00938000  0.67868000  0.29000000  1
  C  C145  1  0.78483000  0.67403000  0.98611000  1
  C  C146  1  0.82665000  0.67395000  0.56645000  1
  C  C147  1  0.82605000  0.67335000  0.93355000  1
  C  C148  1  0.88157000  0.67315000  0.47591000  1
  C  C149  1  0.94059000  0.65956000  0.31616000  1
  C  C150  1  0.07442000  0.65238000  0.31484000  1
  C  C151  1  0.36646000  0.64820000  0.79120000  1
  C  C152  1  0.18159000  0.64248000  0.78868000  1
  C  C153  1  0.80586000  0.63354000  0.20880000  1
  C  C154  1  0.82685000  0.61843000  0.02409000  1
  C  C155  1  0.90825000  0.61815000  0.92095000  1
  C  C156  1  0.93843000  0.61357000  0.36737000  1
  C  C157  1  0.35752000  0.61275000  0.21132000  1
  C  C158  1  0.07141000  0.60689000  0.36539000  1
  C  C159  1  0.88185000  0.59175000  0.57905000  1
  C  C160  1  0.00354000  0.58703000  0.39215000  1
  C  C161  1  0.94087000  0.58656000  0.48719000  1
  C  C162  1  0.44059000  0.58369000  0.81616000  1
  C  C163  1  0.43843000  0.58063000  0.86737000  1
  C  C164  1  0.15238000  0.57442000  0.81484000  1
  C  C165  1  0.10689000  0.57141000  0.86539000  1
  C  C166  1  0.67335000  0.56705000  0.93355000  1
  C  C167  1  0.88643000  0.56157000  0.13263000  1
  C  C168  1  0.84044000  0.55941000  0.18384000  1
  C  C169  1  0.91344000  0.55913000  0.01281000  1
  C  C170  1  0.95677000  0.55824000  0.96007000  1
  C  C171  1  0.67403000  0.55503000  0.98611000  1
  C  C172  1  0.61815000  0.55265000  0.92095000  1
  C  C173  1  0.42859000  0.54369000  0.13461000  1
  C  C174  1  0.94176000  0.54323000  0.53993000  1
  C  C175  1  0.42558000  0.54164000  0.18516000  1
  C  C176  1  0.00040000  0.54124000  0.44771000  1
  C  C177  1  0.61843000  0.53063000  0.02409000  1
  C  C178  1  0.55824000  0.52492000  0.96007000  1
  C  C179  1  0.50938000  0.52194000  0.79000000  1
  C  C180  1  0.50354000  0.51728000  0.89215000  1
  C  C181  1  0.55913000  0.51462000  0.01281000  1
  C  C182  1  0.50040000  0.51065000  0.94771000  1
  C  C183  1  0.17868000  0.50938000  0.79000000  1
  C  C184  1  0.08703000  0.50354000  0.89215000  1
  C  C185  1  0.04124000  0.50040000  0.94771000  1
  C  C186  1  0.95876000  0.49960000  0.05229000  1
  C  C187  1  0.91297000  0.49646000  0.10785000  1
  C  C188  1  0.82132000  0.49062000  0.21000000  1
  C  C189  1  0.49960000  0.48935000  0.05229000  1
  C  C190  1  0.44087000  0.48538000  0.98719000  1
  C  C191  1  0.49646000  0.48272000  0.10785000  1
  C  C192  1  0.49062000  0.47806000  0.21000000  1
  C  C193  1  0.44176000  0.47508000  0.03993000  1
  C  C194  1  0.38157000  0.46937000  0.97591000  1
  C  C195  1  0.99960000  0.45876000  0.55229000  1
  C  C196  1  0.57442000  0.45836000  0.81484000  1
  C  C197  1  0.05824000  0.45677000  0.46007000  1
  C  C198  1  0.57141000  0.45631000  0.86539000  1
  C  C199  1  0.38185000  0.44735000  0.07905000  1
  C  C200  1  0.32597000  0.44497000  0.01389000  1
  C  C201  1  0.04323000  0.44176000  0.03993000  1
  C  C202  1  0.08656000  0.44087000  0.98719000  1
  C  C203  1  0.15956000  0.44059000  0.81616000  1
  C  C204  1  0.11357000  0.43843000  0.86737000  1
  C  C205  1  0.32665000  0.43295000  0.06645000  1
  C  C206  1  0.89311000  0.42859000  0.13461000  1
  C  C207  1  0.84762000  0.42558000  0.18516000  1
  C  C208  1  0.56157000  0.41937000  0.13263000  1
  C  C209  1  0.55941000  0.41631000  0.18384000  1
  C  C210  1  0.05913000  0.41344000  0.51281000  1
  C  C211  1  0.99646000  0.41297000  0.60785000  1
  C  C212  1  0.11815000  0.40825000  0.42095000  1
  C  C213  1  0.92859000  0.39311000  0.63461000  1
  C  C214  1  0.64248000  0.38725000  0.78868000  1
  C  C215  1  0.06157000  0.38643000  0.63263000  1
  C  C216  1  0.09175000  0.38185000  0.07905000  1
  C  C217  1  0.17315000  0.38157000  0.97591000  1
  C  C218  1  0.19414000  0.36646000  0.79120000  1
  C  C219  1  0.81841000  0.35752000  0.21132000  1
  C  C220  1  0.63354000  0.35180000  0.20880000  1
  C  C221  1  0.92558000  0.34762000  0.68516000  1
  C  C222  1  0.05941000  0.34044000  0.68384000  1
  C  C223  1  0.11843000  0.32685000  0.52409000  1
  C  C224  1  0.17395000  0.32665000  0.06645000  1
  C  C225  1  0.17335000  0.32605000  0.43355000  1
  C  C226  1  0.21517000  0.32597000  0.01389000  1
  C  C227  1  0.99062000  0.32132000  0.71000000  1
  C  C228  1  0.85752000  0.31841000  0.71132000  1
  C  C229  1  0.13354000  0.30586000  0.70880000  1
  C  C230  1  0.17403000  0.28483000  0.48611000  1
  C  C231  1  0.44497000  0.21517000  0.01389000  1
  C  C232  1  0.64820000  0.19414000  0.79120000  1
  C  C233  1  0.38725000  0.18159000  0.78868000  1
  C  C234  1  0.52194000  0.17868000  0.79000000  1
  C  C235  1  0.05503000  0.17403000  0.48611000  1
  C  C236  1  0.43295000  0.17395000  0.06645000  1
  C  C237  1  0.06705000  0.17335000  0.43355000  1
  C  C238  1  0.46937000  0.17315000  0.97591000  1
  C  C239  1  0.58369000  0.15956000  0.81616000  1
  C  C240  1  0.45836000  0.15238000  0.81484000  1
  C  C241  1  0.69414000  0.14820000  0.29120000  1
  C  C242  1  0.88725000  0.14248000  0.28868000  1
  C  C243  1  0.85180000  0.13354000  0.70880000  1
  C  C244  1  0.03063000  0.11843000  0.52409000  1
  C  C245  1  0.05265000  0.11815000  0.42095000  1
  C  C246  1  0.58063000  0.11357000  0.86737000  1
  C  C247  1  0.31841000  0.11275000  0.71132000  1
  C  C248  1  0.45631000  0.10689000  0.86539000  1
  C  C249  1  0.44735000  0.09175000  0.07905000  1
  C  C250  1  0.51728000  0.08703000  0.89215000  1
  C  C251  1  0.48538000  0.08656000  0.98719000  1
  C  C252  1  0.65956000  0.08369000  0.31616000  1
  C  C253  1  0.61357000  0.08063000  0.36737000  1
  C  C254  1  0.95836000  0.07442000  0.31484000  1
  C  C255  1  0.95631000  0.07141000  0.36539000  1
  C  C256  1  0.32605000  0.06705000  0.43355000  1
  C  C257  1  0.91937000  0.06157000  0.63263000  1
  C  C258  1  0.91631000  0.05941000  0.68384000  1
  C  C259  1  0.01462000  0.05913000  0.51281000  1
  C  C260  1  0.02492000  0.05824000  0.46007000  1
  C  C261  1  0.28483000  0.05503000  0.48611000  1
  C  C262  1  0.40825000  0.05265000  0.42095000  1
  C  C263  1  0.39311000  0.04369000  0.63461000  1
  C  C264  1  0.47508000  0.04323000  0.03993000  1
  C  C265  1  0.34762000  0.04164000  0.68516000  1
  C  C266  1  0.51065000  0.04124000  0.94771000  1
  C  C267  1  0.32685000  0.03063000  0.52409000  1
  C  C268  1  0.45677000  0.02492000  0.46007000  1
  C  C269  1  0.67868000  0.02194000  0.29000000  1
  C  C270  1  0.58703000  0.01728000  0.39215000  1
  C  C271  1  0.41344000  0.01462000  0.51281000  1
  C  C272  1  0.54124000  0.01065000  0.44771000  1
  C  C273  1  0.02194000  0.00938000  0.29000000  1
  C  C274  1  0.01728000  0.00354000  0.39215000  1
  C  C275  1  0.01065000  0.00040000  0.44771000  1
  O  O276  1  0.72816000  0.88978000  0.24419000  1
  O  O277  1  0.14417000  0.87219000  0.24590000  1
  O  O278  1  0.11022000  0.86213000  0.75581000  1
  O  O279  1  0.26226000  0.85583000  0.75410000  1
  O  O280  1  0.67124000  0.84139000  0.18582000  1
  O  O281  1  0.65861000  0.82876000  0.31418000  1
  O  O282  1  0.30144000  0.82233000  0.18159000  1
  O  O283  1  0.19856000  0.80536000  0.31841000  1
  O  O284  1  0.17124000  0.80155000  0.68582000  1
  O  O285  1  0.32233000  0.80144000  0.68159000  1
  O  O286  1  0.61022000  0.77184000  0.25581000  1
  O  O287  1  0.35583000  0.76226000  0.25410000  1
  O  O288  1  0.87219000  0.73774000  0.24590000  1
  O  O289  1  0.13787000  0.72816000  0.24419000  1
  O  O290  1  0.30536000  0.69856000  0.81841000  1
  O  O291  1  0.15861000  0.69845000  0.81418000  1
  O  O292  1  0.82233000  0.69464000  0.18159000  1
  O  O293  1  0.80536000  0.67767000  0.31841000  1
  O  O294  1  0.30155000  0.67124000  0.18582000  1
  O  O295  1  0.19845000  0.65861000  0.31418000  1
  O  O296  1  0.37219000  0.64417000  0.74590000  1
  O  O297  1  0.22816000  0.63787000  0.74419000  1
  O  O298  1  0.76226000  0.62781000  0.25410000  1
  O  O299  1  0.36213000  0.61022000  0.25581000  1
  O  O300  1  0.63787000  0.38978000  0.74419000  1
  O  O301  1  0.23774000  0.37219000  0.74590000  1
  O  O302  1  0.77184000  0.36213000  0.25581000  1
  O  O303  1  0.62781000  0.35583000  0.25410000  1
  O  O304  1  0.80155000  0.34139000  0.68582000  1
  O  O305  1  0.69845000  0.32876000  0.81418000  1
  O  O306  1  0.19464000  0.32233000  0.68159000  1
  O  O307  1  0.17767000  0.30536000  0.81841000  1
  O  O308  1  0.84139000  0.30155000  0.18582000  1
  O  O309  1  0.69464000  0.30144000  0.18159000  1
  O  O310  1  0.86213000  0.27184000  0.75581000  1
  O  O311  1  0.12781000  0.26226000  0.75410000  1
  O  O312  1  0.64417000  0.23774000  0.74590000  1
  O  O313  1  0.38978000  0.22816000  0.74419000  1
  O  O314  1  0.67767000  0.19856000  0.31841000  1
  O  O315  1  0.82876000  0.19845000  0.31418000  1
  O  O316  1  0.80144000  0.19464000  0.68159000  1
  O  O317  1  0.69856000  0.17767000  0.81841000  1
  O  O318  1  0.34139000  0.17124000  0.68582000  1
  O  O319  1  0.32876000  0.15861000  0.81418000  1
  O  O320  1  0.73774000  0.14417000  0.24590000  1
  O  O321  1  0.88978000  0.13787000  0.24419000  1
  O  O322  1  0.85583000  0.12781000  0.75410000  1
  O  O323  1  0.27184000  0.11022000  0.75581000  1
