# generated using pymatgen
data_MgHC5O4
_symmetry_space_group_name_H-M   'P 1'
_cell_length_a   6.90070000
_cell_length_b   7.47220000
_cell_length_c   8.25210000
_cell_angle_alpha   90.22700000
_cell_angle_beta   108.67000000
_cell_angle_gamma   93.33200000
_symmetry_Int_Tables_number   1
_chemical_formula_structural   MgHC5O4
_chemical_formula_sum   'Mg2 H2 C10 O8'
_cell_volume   402.31938485
_cell_formula_units_Z   2
loop_
 _symmetry_equiv_pos_site_id
 _symmetry_equiv_pos_as_xyz
  1  'x, y, z'
loop_
 _atom_site_type_symbol
 _atom_site_label
 _atom_site_symmetry_multiplicity
 _atom_site_fract_x
 _atom_site_fract_y
 _atom_site_fract_z
 _atom_site_occupancy
  Mg  Mg0  1  0.00000000  0.00000000  0.00000000  1
  Mg  Mg1  1  0.50000000  0.50000000  0.00000000  1
  H  H2  1  0.42380000  0.29070000  0.54090000  1
  H  H3  1  0.57620000  0.70930000  0.45910000  1
  C  C4  1  0.34670000  0.23849000  0.21637000  1
  C  C5  1  0.41748000  0.10773000  0.35876000  1
  C  C6  1  0.42190000  0.84363000  0.16004000  1
  C  C7  1  0.45441000  0.17385000  0.52441000  1
  C  C8  1  0.46340000  0.93171000  0.33339000  1
  C  C9  1  0.53660000  0.06829000  0.66666667  1
  C  C10  1  0.54559000  0.82615000  0.47559000  1
  C  C11  1  0.57810000  0.15637000  0.83996000  1
  C  C12  1  0.58252000  0.89227000  0.64124000  1
  C  C13  1  0.65330000  0.76151000  0.78363000  1
  O  O14  1  0.16376000  0.22634000  0.11849000  1
  O  O15  1  0.26324000  0.87625000  0.04164000  1
  O  O16  1  0.45067000  0.26448000  0.85359000  1
  O  O17  1  0.47861000  0.35781000  0.20938000  1
  O  O18  1  0.52139000  0.64219000  0.79062000  1
  O  O19  1  0.54933000  0.73552000  0.14641000  1
  O  O20  1  0.73676000  0.12375000  0.95836000  1
  O  O21  1  0.83624000  0.77366000  0.88151000  1
