# generated using pymatgen
data_CaH26C18(NO2)4
_symmetry_space_group_name_H-M   'P 1'
_cell_length_a   7.69150000
_cell_length_b   11.80510000
_cell_length_c   14.15080000
_cell_angle_alpha   90.00000000
_cell_angle_beta   90.00000000
_cell_angle_gamma   91.03800000
_symmetry_Int_Tables_number   1
_chemical_formula_structural   CaH26C18(NO2)4
_chemical_formula_sum   'Ca2 H52 C36 N8 O16'
_cell_volume   1284.66660334
_cell_formula_units_Z   2
loop_
 _symmetry_equiv_pos_site_id
 _symmetry_equiv_pos_as_xyz
  1  'x, y, z'
loop_
 _atom_site_type_symbol
 _atom_site_label
 _atom_site_symmetry_multiplicity
 _atom_site_fract_x
 _atom_site_fract_y
 _atom_site_fract_z
 _atom_site_occupancy
  Ca  Ca0  1  0.75000000  0.50000000  0.46819000  1
  Ca  Ca1  1  0.25000000  0.50000000  0.53181000  1
  H  H2  1  0.50330000  0.03020000  0.16270000  1
  H  H3  1  0.00330000  0.03020000  0.83730000  1
  H  H4  1  0.86500000  0.15040000  0.18640000  1
  H  H5  1  0.36500000  0.15040000  0.81360000  1
  H  H6  1  0.15830000  0.16580000  0.27320000  1
  H  H7  1  0.65830000  0.16580000  0.72680000  1
  H  H8  1  0.43840000  0.17880000  0.05520000  1
  H  H9  1  0.93840000  0.17880000  0.94480000  1
  H  H10  1  0.48130000  0.22540000  0.31890000  1
  H  H11  1  0.98130000  0.22540000  0.68110000  1
  H  H12  1  0.84020000  0.23320000  0.10090000  1
  H  H13  1  0.34020000  0.23320000  0.89910000  1
  H  H14  1  0.88520000  0.24110000  0.39820000  1
  H  H15  1  0.38520000  0.24110000  0.60180000  1
  H  H16  1  0.54980000  0.33870000  0.27270000  1
  H  H17  1  0.04980000  0.33870000  0.72730000  1
  H  H18  1  0.93400000  0.34760000  0.42780000  1
  H  H19  1  0.43400000  0.34760000  0.57220000  1
  H  H20  1  0.11870000  0.36120000  0.04480000  1
  H  H21  1  0.61870000  0.36120000  0.95520000  1
  H  H22  1  0.81610000  0.38910000  0.28200000  1
  H  H23  1  0.31610000  0.38910000  0.71800000  1
  H  H24  1  0.37540000  0.41890000  0.13600000  1
  H  H25  1  0.87540000  0.41890000  0.86400000  1
  H  H26  1  0.95350000  0.45410000  0.31920000  1
  H  H27  1  0.45350000  0.45410000  0.68080000  1
  H  H28  1  0.54650000  0.54590000  0.31920000  1
  H  H29  1  0.04650000  0.54590000  0.68080000  1
  H  H30  1  0.12460000  0.58110000  0.13600000  1
  H  H31  1  0.62460000  0.58110000  0.86400000  1
  H  H32  1  0.68390000  0.61090000  0.28200000  1
  H  H33  1  0.18390000  0.61090000  0.71800000  1
  H  H34  1  0.38130000  0.63880000  0.04480000  1
  H  H35  1  0.88130000  0.63880000  0.95520000  1
  H  H36  1  0.56600000  0.65240000  0.42780000  1
  H  H37  1  0.06600000  0.65240000  0.57220000  1
  H  H38  1  0.95020000  0.66130000  0.27270000  1
  H  H39  1  0.45020000  0.66130000  0.72730000  1
  H  H40  1  0.61480000  0.75890000  0.39820000  1
  H  H41  1  0.11480000  0.75890000  0.60180000  1
  H  H42  1  0.65980000  0.76680000  0.10090000  1
  H  H43  1  0.15980000  0.76680000  0.89910000  1
  H  H44  1  0.01870000  0.77460000  0.31890000  1
  H  H45  1  0.51870000  0.77460000  0.68110000  1
  H  H46  1  0.06160000  0.82120000  0.05520000  1
  H  H47  1  0.56160000  0.82120000  0.94480000  1
  H  H48  1  0.34170000  0.83420000  0.27320000  1
  H  H49  1  0.84170000  0.83420000  0.72680000  1
  H  H50  1  0.63500000  0.84960000  0.18640000  1
  H  H51  1  0.13500000  0.84960000  0.81360000  1
  H  H52  1  0.99670000  0.96980000  0.16270000  1
  H  H53  1  0.49670000  0.96980000  0.83730000  1
  C  C54  1  0.50310000  0.01730000  0.09790000  1
  C  C55  1  0.00310000  0.01730000  0.90210000  1
  C  C56  1  0.95890000  0.08620000  0.06230000  1
  C  C57  1  0.45890000  0.08620000  0.93770000  1
  C  C58  1  0.46240000  0.10680000  0.03260000  1
  C  C59  1  0.96240000  0.10680000  0.96740000  1
  C  C60  1  0.92030000  0.18130000  0.13020000  1
  C  C61  1  0.42030000  0.18130000  0.86980000  1
  C  C62  1  0.17960000  0.22090000  0.22750000  1
  C  C63  1  0.67960000  0.22090000  0.77250000  1
  C  C64  1  0.44750000  0.30010000  0.29780000  1
  C  C65  1  0.94750000  0.30010000  0.70220000  1
  C  C66  1  0.15740000  0.33090000  0.10150000  1
  C  C67  1  0.65740000  0.33090000  0.89850000  1
  C  C68  1  0.29960000  0.35920000  0.15070000  1
  C  C69  1  0.79960000  0.35920000  0.84930000  1
  C  C70  1  0.37720000  0.36630000  0.38070000  1
  C  C71  1  0.87720000  0.36630000  0.61930000  1
  C  C72  1  0.12280000  0.63370000  0.38070000  1
  C  C73  1  0.62280000  0.63370000  0.61930000  1
  C  C74  1  0.20040000  0.64080000  0.15070000  1
  C  C75  1  0.70040000  0.64080000  0.84930000  1
  C  C76  1  0.34260000  0.66910000  0.10150000  1
  C  C77  1  0.84260000  0.66910000  0.89850000  1
  C  C78  1  0.05250000  0.69990000  0.29780000  1
  C  C79  1  0.55250000  0.69990000  0.70220000  1
  C  C80  1  0.32040000  0.77910000  0.22750000  1
  C  C81  1  0.82040000  0.77910000  0.77250000  1
  C  C82  1  0.57970000  0.81870000  0.13020000  1
  C  C83  1  0.07970000  0.81870000  0.86980000  1
  C  C84  1  0.03760000  0.89320000  0.03260000  1
  C  C85  1  0.53760000  0.89320000  0.96740000  1
  C  C86  1  0.54110000  0.91380000  0.06230000  1
  C  C87  1  0.04110000  0.91380000  0.93770000  1
  C  C88  1  0.99690000  0.98270000  0.09790000  1
  C  C89  1  0.49690000  0.98270000  0.90210000  1
  N  N90  1  0.07900000  0.24300000  0.15700000  1
  N  N91  1  0.57900000  0.24300000  0.84300000  1
  N  N92  1  0.31710000  0.28880000  0.22430000  1
  N  N93  1  0.81710000  0.28880000  0.77570000  1
  N  N94  1  0.18290000  0.71120000  0.22430000  1
  N  N95  1  0.68290000  0.71120000  0.77570000  1
  N  N96  1  0.42100000  0.75700000  0.15700000  1
  N  N97  1  0.92100000  0.75700000  0.84300000  1
  O  O98  1  0.86380000  0.32370000  0.38530000  1
  O  O99  1  0.36380000  0.32370000  0.61470000  1
  O  O100  1  0.22310000  0.37660000  0.39270000  1
  O  O101  1  0.72310000  0.37660000  0.60730000  1
  O  O102  1  0.48840000  0.40430000  0.43870000  1
  O  O103  1  0.98840000  0.40430000  0.56130000  1
  O  O104  1  0.86990000  0.40580000  0.33290000  1
  O  O105  1  0.36990000  0.40580000  0.66710000  1
  O  O106  1  0.63010000  0.59420000  0.33290000  1
  O  O107  1  0.13010000  0.59420000  0.66710000  1
  O  O108  1  0.01160000  0.59570000  0.43870000  1
  O  O109  1  0.51160000  0.59570000  0.56130000  1
  O  O110  1  0.27690000  0.62340000  0.39270000  1
  O  O111  1  0.77690000  0.62340000  0.60730000  1
  O  O112  1  0.63620000  0.67630000  0.38530000  1
  O  O113  1  0.13620000  0.67630000  0.61470000  1
