# generated using pymatgen
data_MnH10C14(NO2)2
_symmetry_space_group_name_H-M   'P 1'
_cell_length_a   11.88700000
_cell_length_b   11.88700000
_cell_length_c   16.35500000
_cell_angle_alpha   73.37590000
_cell_angle_beta   73.37590000
_cell_angle_gamma   78.41940000
_symmetry_Int_Tables_number   1
_chemical_formula_structural   MnH10C14(NO2)2
_chemical_formula_sum   'Mn4 H40 C56 N8 O16'
_cell_volume   2103.95858558
_cell_formula_units_Z   4
loop_
 _symmetry_equiv_pos_site_id
 _symmetry_equiv_pos_as_xyz
  1  'x, y, z'
loop_
 _atom_site_type_symbol
 _atom_site_label
 _atom_site_symmetry_multiplicity
 _atom_site_fract_x
 _atom_site_fract_y
 _atom_site_fract_z
 _atom_site_occupancy
  Mn  Mn0  1  0.61587000  0.83243000  0.54667000  1
  Mn  Mn1  1  0.83243000  0.61587000  0.04667000  1
  Mn  Mn2  1  0.16757000  0.38413000  0.95333000  1
  Mn  Mn3  1  0.38413000  0.16757000  0.45333000  1
  H  H4  1  0.57390000  0.97990000  0.04660000  1
  H  H5  1  0.51400000  0.85720000  0.75460000  1
  H  H6  1  0.54740000  0.83340000  0.96280000  1
  H  H7  1  0.66330000  0.81350000  0.27450000  1
  H  H8  1  0.41420000  0.77360000  0.48180000  1
  H  H9  1  0.62190000  0.73310000  0.82710000  1
  H  H10  1  0.36380000  0.70620000  0.99700000  1
  H  H11  1  0.63920000  0.67180000  0.92190000  1
  H  H12  1  0.81350000  0.66330000  0.77450000  1
  H  H13  1  0.67180000  0.63920000  0.42190000  1
  H  H14  1  0.29380000  0.63620000  0.50300000  1
  H  H15  1  0.73310000  0.62190000  0.32710000  1
  H  H16  1  0.22640000  0.58580000  0.01820000  1
  H  H17  1  0.56620000  0.57700000  0.15240000  1
  H  H18  1  0.54130000  0.57610000  0.31970000  1
  H  H19  1  0.97990000  0.57390000  0.54660000  1
  H  H20  1  0.57700000  0.56620000  0.65240000  1
  H  H21  1  0.83340000  0.54740000  0.46280000  1
  H  H22  1  0.57610000  0.54130000  0.81970000  1
  H  H23  1  0.85720000  0.51400000  0.25460000  1
  H  H24  1  0.14280000  0.48600000  0.74540000  1
  H  H25  1  0.42390000  0.45870000  0.18030000  1
  H  H26  1  0.16660000  0.45260000  0.53720000  1
  H  H27  1  0.42300000  0.43380000  0.34760000  1
  H  H28  1  0.02010000  0.42610000  0.45340000  1
  H  H29  1  0.45870000  0.42390000  0.68030000  1
  H  H30  1  0.43380000  0.42300000  0.84760000  1
  H  H31  1  0.77360000  0.41420000  0.98180000  1
  H  H32  1  0.26690000  0.37810000  0.67290000  1
  H  H33  1  0.70620000  0.36380000  0.49700000  1
  H  H34  1  0.32820000  0.36080000  0.57810000  1
  H  H35  1  0.18650000  0.33670000  0.22550000  1
  H  H36  1  0.36080000  0.32820000  0.07810000  1
  H  H37  1  0.63620000  0.29380000  0.00300000  1
  H  H38  1  0.37810000  0.26690000  0.17290000  1
  H  H39  1  0.58580000  0.22640000  0.51820000  1
  H  H40  1  0.33670000  0.18650000  0.72550000  1
  H  H41  1  0.45260000  0.16660000  0.03720000  1
  H  H42  1  0.48600000  0.14280000  0.24540000  1
  H  H43  1  0.42610000  0.02010000  0.95340000  1
  C  C44  1  0.57310000  0.97930000  0.10380000  1
  C  C45  1  0.57320000  0.97680000  0.27380000  1
  C  C46  1  0.57310000  0.97670000  0.36650000  1
  C  C47  1  0.48010000  0.92290000  0.77730000  1
  C  C48  1  0.48200000  0.92160000  0.86240000  1
  C  C49  1  0.62600000  0.88100000  0.15520000  1
  C  C50  1  0.62690000  0.87950000  0.24030000  1
  C  C51  1  0.68920000  0.77780000  0.11670000  1
  C  C52  1  0.58140000  0.71620000  0.88900000  1
  C  C53  1  0.42270000  0.70250000  0.52350000  1
  C  C54  1  0.77780000  0.68920000  0.61670000  1
  C  C55  1  0.38030000  0.64990000  0.96430000  1
  C  C56  1  0.48790000  0.64010000  0.90380000  1
  C  C57  1  0.87950000  0.62690000  0.74030000  1
  C  C58  1  0.88100000  0.62600000  0.65520000  1
  C  C59  1  0.35010000  0.61970000  0.53570000  1
  C  C60  1  0.51710000  0.58230000  0.62290000  1
  C  C61  1  0.71620000  0.58140000  0.38900000  1
  C  C62  1  0.29750000  0.57730000  0.97650000  1
  C  C63  1  0.97680000  0.57320000  0.77380000  1
  C  C64  1  0.97930000  0.57310000  0.60380000  1
  C  C65  1  0.97670000  0.57310000  0.86650000  1
  C  C66  1  0.50510000  0.55330000  0.86060000  1
  C  C67  1  0.07710000  0.51990000  0.72270000  1
  C  C68  1  0.07840000  0.51800000  0.63760000  1
  C  C69  1  0.58230000  0.51710000  0.12290000  1
  C  C70  1  0.35990000  0.51210000  0.59620000  1
  C  C71  1  0.55330000  0.50510000  0.36060000  1
  C  C72  1  0.44670000  0.49490000  0.63940000  1
  C  C73  1  0.64010000  0.48790000  0.40380000  1
  C  C74  1  0.41770000  0.48290000  0.87710000  1
  C  C75  1  0.92160000  0.48200000  0.36240000  1
  C  C76  1  0.92290000  0.48010000  0.27730000  1
  C  C77  1  0.49490000  0.44670000  0.13940000  1
  C  C78  1  0.02330000  0.42690000  0.13350000  1
  C  C79  1  0.02070000  0.42690000  0.39620000  1
  C  C80  1  0.02320000  0.42680000  0.22620000  1
  C  C81  1  0.70250000  0.42270000  0.02350000  1
  C  C82  1  0.28380000  0.41860000  0.61100000  1
  C  C83  1  0.48290000  0.41770000  0.37710000  1
  C  C84  1  0.64990000  0.38030000  0.46430000  1
  C  C85  1  0.11900000  0.37400000  0.34480000  1
  C  C86  1  0.12050000  0.37310000  0.25970000  1
  C  C87  1  0.51210000  0.35990000  0.09620000  1
  C  C88  1  0.61970000  0.35010000  0.03570000  1
  C  C89  1  0.22220000  0.31080000  0.38330000  1
  C  C90  1  0.57730000  0.29750000  0.47650000  1
  C  C91  1  0.41860000  0.28380000  0.11100000  1
  C  C92  1  0.31080000  0.22220000  0.88330000  1
  C  C93  1  0.37310000  0.12050000  0.75970000  1
  C  C94  1  0.37400000  0.11900000  0.84480000  1
  C  C95  1  0.51800000  0.07840000  0.13760000  1
  C  C96  1  0.51990000  0.07710000  0.22270000  1
  C  C97  1  0.42690000  0.02330000  0.63350000  1
  C  C98  1  0.42680000  0.02320000  0.72620000  1
  C  C99  1  0.42690000  0.02070000  0.89620000  1
  N  N100  1  0.53820000  0.82640000  0.91420000  1
  N  N101  1  0.50530000  0.68650000  0.56830000  1
  N  N102  1  0.82640000  0.53820000  0.41420000  1
  N  N103  1  0.68650000  0.50530000  0.06830000  1
  N  N104  1  0.31350000  0.49470000  0.93170000  1
  N  N105  1  0.17360000  0.46180000  0.58580000  1
  N  N106  1  0.49470000  0.31350000  0.43170000  1
  N  N107  1  0.46180000  0.17360000  0.08580000  1
  O  O108  1  0.46330000  0.93090000  0.60790000  1
  O  O109  1  0.61340000  0.87960000  0.41240000  1
  O  O110  1  0.69610000  0.78490000  0.03630000  1
  O  O111  1  0.68900000  0.73740000  0.66380000  1
  O  O112  1  0.78490000  0.69610000  0.53630000  1
  O  O113  1  0.73740000  0.68900000  0.16380000  1
  O  O114  1  0.87960000  0.61340000  0.91240000  1
  O  O115  1  0.06910000  0.53670000  0.89210000  1
  O  O116  1  0.93090000  0.46330000  0.10790000  1
  O  O117  1  0.12040000  0.38660000  0.08760000  1
  O  O118  1  0.26260000  0.31100000  0.83620000  1
  O  O119  1  0.21510000  0.30390000  0.46370000  1
  O  O120  1  0.31100000  0.26260000  0.33620000  1
  O  O121  1  0.30390000  0.21510000  0.96370000  1
  O  O122  1  0.38660000  0.12040000  0.58760000  1
  O  O123  1  0.53670000  0.06910000  0.39210000  1
