# generated using pymatgen
data_BaH12(C5O)4
_symmetry_space_group_name_H-M   'P 1'
_cell_length_a   10.81770000
_cell_length_b   19.84830000
_cell_length_c   25.86870000
_cell_angle_alpha   101.11700000
_cell_angle_beta   101.10800000
_cell_angle_gamma   94.82700000
_symmetry_Int_Tables_number   1
_chemical_formula_structural   BaH12(C5O)4
_chemical_formula_sum   'Ba10 H120 C200 O40'
_cell_volume   5305.41183936
_cell_formula_units_Z   10
loop_
 _symmetry_equiv_pos_site_id
 _symmetry_equiv_pos_as_xyz
  1  'x, y, z'
loop_
 _atom_site_type_symbol
 _atom_site_label
 _atom_site_symmetry_multiplicity
 _atom_site_fract_x
 _atom_site_fract_y
 _atom_site_fract_z
 _atom_site_occupancy
  Ba  Ba0  1  0.06985000  0.63601000  0.77183000  1
  Ba  Ba1  1  0.14841000  0.19282000  0.21056000  1
  Ba  Ba2  1  0.17347000  0.81106000  0.71053000  1
  Ba  Ba3  1  0.46433000  0.70136000  0.80747000  1
  Ba  Ba4  1  0.46462000  0.20723000  0.34293000  1
  Ba  Ba5  1  0.53538000  0.79277000  0.65707000  1
  Ba  Ba6  1  0.53567000  0.29864000  0.19253000  1
  Ba  Ba7  1  0.82653000  0.18894000  0.28947000  1
  Ba  Ba8  1  0.85159000  0.80718000  0.78944000  1
  Ba  Ba9  1  0.93015000  0.36399000  0.22817000  1
  H  H10  1  0.02620000  0.35090000  0.39030000  1
  H  H11  1  0.04480000  0.86320000  0.53530000  1
  H  H12  1  0.04920000  0.08690000  0.37170000  1
  H  H13  1  0.05390000  0.37090000  0.79930000  1
  H  H14  1  0.05540000  0.14490000  0.81840000  1
  H  H15  1  0.07390000  0.67230000  0.15150000  1
  H  H16  1  0.08450000  0.79240000  0.14960000  1
  H  H17  1  0.09230000  0.79000000  0.28680000  1
  H  H18  1  0.09410000  0.72540000  0.34400000  1
  H  H19  1  0.09830000  0.76980000  0.43240000  1
  H  H20  1  0.10560000  0.28950000  0.47120000  1
  H  H21  1  0.10950000  0.25060000  0.54880000  1
  H  H22  1  0.13240000  0.55820000  0.63200000  1
  H  H23  1  0.13450000  0.48660000  0.37870000  1
  H  H24  1  0.15010000  0.87610000  0.89530000  1
  H  H25  1  0.15220000  0.41620000  0.13070000  1
  H  H26  1  0.15360000  0.32870000  0.63220000  1
  H  H27  1  0.15660000  0.60260000  0.38400000  1
  H  H28  1  0.15740000  0.40290000  0.73760000  1
  H  H29  1  0.15840000  0.98240000  0.58420000  1
  H  H30  1  0.16240000  0.90860000  0.31220000  1
  H  H31  1  0.17710000  0.06270000  0.69430000  1
  H  H32  1  0.17910000  0.44580000  0.63800000  1
  H  H33  1  0.18730000  0.64230000  0.54340000  1
  H  H34  1  0.19280000  0.68120000  0.46700000  1
  H  H35  1  0.19650000  0.09810000  0.61100000  1
  H  H36  1  0.21560000  0.12100000  0.46220000  1
  H  H37  1  0.22080000  0.57730000  0.91220000  1
  H  H38  1  0.23320000  0.16800000  0.55220000  1
  H  H39  1  0.24990000  0.02300000  0.35140000  1
  H  H40  1  0.25460000  0.09030000  0.80520000  1
  H  H41  1  0.26610000  0.10920000  0.90430000  1
  H  H42  1  0.27090000  0.81260000  0.52750000  1
  H  H43  1  0.27460000  0.31570000  0.00420000  1
  H  H44  1  0.27850000  0.99400000  0.89690000  1
  H  H45  1  0.28500000  0.36910000  0.39430000  1
  H  H46  1  0.28560000  0.18200000  0.98700000  1
  H  H47  1  0.29910000  0.28230000  0.91740000  1
  H  H48  1  0.31600000  0.09430000  0.13380000  1
  H  H49  1  0.32080000  0.50910000  0.16710000  1
  H  H50  1  0.33140000  0.66980000  0.05880000  1
  H  H51  1  0.33260000  0.14340000  0.06340000  1
  H  H52  1  0.33780000  0.62680000  0.20330000  1
  H  H53  1  0.34000000  0.70570000  0.14800000  1
  H  H54  1  0.34760000  0.61640000  0.60850000  1
  H  H55  1  0.35220000  0.36560000  0.86890000  1
  H  H56  1  0.35250000  0.35740000  0.09440000  1
  H  H57  1  0.36440000  0.47960000  0.90440000  1
  H  H58  1  0.40360000  0.85940000  0.91670000  1
  H  H59  1  0.40550000  0.34680000  0.70340000  1
  H  H60  1  0.40940000  0.43340000  0.78590000  1
  H  H61  1  0.40980000  0.80360000  0.99000000  1
  H  H62  1  0.42300000  0.82480000  0.30620000  1
  H  H63  1  0.42700000  0.94770000  0.15720000  1
  H  H64  1  0.42710000  0.12430000  0.73180000  1
  H  H65  1  0.43270000  0.71210000  0.31960000  1
  H  H66  1  0.44230000  0.62730000  0.98690000  1
  H  H67  1  0.45230000  0.94340000  0.83380000  1
  H  H68  1  0.46300000  0.76490000  0.06820000  1
  H  H69  1  0.46380000  0.83720000  0.15190000  1
  H  H70  1  0.53620000  0.16280000  0.84810000  1
  H  H71  1  0.53700000  0.23510000  0.93180000  1
  H  H72  1  0.54770000  0.05660000  0.16620000  1
  H  H73  1  0.55770000  0.37270000  0.01310000  1
  H  H74  1  0.56730000  0.28790000  0.68040000  1
  H  H75  1  0.57290000  0.87570000  0.26820000  1
  H  H76  1  0.57300000  0.05230000  0.84280000  1
  H  H77  1  0.57700000  0.17520000  0.69380000  1
  H  H78  1  0.59020000  0.19640000  0.01000000  1
  H  H79  1  0.59060000  0.56660000  0.21410000  1
  H  H80  1  0.59450000  0.65320000  0.29660000  1
  H  H81  1  0.59640000  0.14060000  0.08330000  1
  H  H82  1  0.63560000  0.52040000  0.09560000  1
  H  H83  1  0.64750000  0.64260000  0.90560000  1
  H  H84  1  0.64780000  0.63440000  0.13110000  1
  H  H85  1  0.65240000  0.38360000  0.39150000  1
  H  H86  1  0.66000000  0.29430000  0.85200000  1
  H  H87  1  0.66220000  0.37320000  0.79670000  1
  H  H88  1  0.66740000  0.85660000  0.93660000  1
  H  H89  1  0.66860000  0.33020000  0.94120000  1
  H  H90  1  0.67920000  0.49090000  0.83290000  1
  H  H91  1  0.68400000  0.90570000  0.86620000  1
  H  H92  1  0.70090000  0.71770000  0.08260000  1
  H  H93  1  0.71440000  0.81800000  0.01300000  1
  H  H94  1  0.71500000  0.63090000  0.60570000  1
  H  H95  1  0.72150000  0.00600000  0.10310000  1
  H  H96  1  0.72540000  0.68430000  0.99580000  1
  H  H97  1  0.72910000  0.18740000  0.47250000  1
  H  H98  1  0.73390000  0.89080000  0.09570000  1
  H  H99  1  0.74540000  0.90970000  0.19480000  1
  H  H100  1  0.75010000  0.97700000  0.64860000  1
  H  H101  1  0.76680000  0.83200000  0.44780000  1
  H  H102  1  0.77920000  0.42270000  0.08780000  1
  H  H103  1  0.78440000  0.87900000  0.53780000  1
  H  H104  1  0.80350000  0.90190000  0.38900000  1
  H  H105  1  0.80720000  0.31880000  0.53300000  1
  H  H106  1  0.81270000  0.35770000  0.45660000  1
  H  H107  1  0.82090000  0.55420000  0.36200000  1
  H  H108  1  0.82290000  0.93730000  0.30570000  1
  H  H109  1  0.83760000  0.09140000  0.68780000  1
  H  H110  1  0.84160000  0.01760000  0.41580000  1
  H  H111  1  0.84260000  0.59710000  0.26240000  1
  H  H112  1  0.84340000  0.39740000  0.61600000  1
  H  H113  1  0.84640000  0.67130000  0.36780000  1
  H  H114  1  0.84780000  0.58380000  0.86930000  1
  H  H115  1  0.84990000  0.12390000  0.10470000  1
  H  H116  1  0.86550000  0.51340000  0.62130000  1
  H  H117  1  0.86760000  0.44180000  0.36800000  1
  H  H118  1  0.89050000  0.74940000  0.45120000  1
  H  H119  1  0.89440000  0.71050000  0.52880000  1
  H  H120  1  0.90170000  0.23020000  0.56760000  1
  H  H121  1  0.90590000  0.27460000  0.65600000  1
  H  H122  1  0.90770000  0.21000000  0.71320000  1
  H  H123  1  0.91550000  0.20760000  0.85040000  1
  H  H124  1  0.92610000  0.32770000  0.84850000  1
  H  H125  1  0.94460000  0.85510000  0.18160000  1
  H  H126  1  0.94610000  0.62910000  0.20070000  1
  H  H127  1  0.95080000  0.91310000  0.62830000  1
  H  H128  1  0.95520000  0.13680000  0.46470000  1
  H  H129  1  0.97380000  0.64910000  0.60970000  1
  C  C130  1  0.02100000  0.70000000  0.16800000  1
  C  C131  1  0.02500000  0.77220000  0.16520000  1
  C  C132  1  0.05700000  0.19080000  0.81510000  1
  C  C133  1  0.05900000  0.32630000  0.80500000  1
  C  C134  1  0.10400000  0.77320000  0.35620000  1
  C  C135  1  0.11000000  0.37050000  0.40560000  1
  C  C136  1  0.11000000  0.79960000  0.40970000  1
  C  C137  1  0.11100000  0.81110000  0.32330000  1
  C  C138  1  0.11700000  0.07750000  0.35540000  1
  C  C139  1  0.11900000  0.32120000  0.50390000  1
  C  C140  1  0.12000000  0.86240000  0.52330000  1
  C  C141  1  0.12300000  0.29790000  0.55020000  1
  C  C142  1  0.13500000  0.39420000  0.50460000  1
  C  C143  1  0.13500000  0.41860000  0.45720000  1
  C  C144  1  0.13600000  0.87440000  0.43170000  1
  C  C145  1  0.13700000  0.90500000  0.48510000  1
  C  C146  1  0.14400000  0.11800000  0.31330000  1
  C  C147  1  0.14400000  0.88370000  0.33720000  1
  C  C148  1  0.14700000  0.51710000  0.41190000  1
  C  C149  1  0.14700000  0.91640000  0.39120000  1
  C  C150  1  0.14800000  0.34560000  0.60080000  1
  C  C151  1  0.14900000  0.21710000  0.78910000  1
  C  C152  1  0.15000000  0.28890000  0.78540000  1
  C  C153  1  0.15100000  0.49220000  0.45960000  1
  C  C154  1  0.15600000  0.97630000  0.50260000  1
  C  C155  1  0.15900000  0.44260000  0.55680000  1
  C  C156  1  0.16000000  0.58590000  0.41540000  1
  C  C157  1  0.16500000  0.41570000  0.60450000  1
  C  C158  1  0.16600000  0.99020000  0.41010000  1
  C  C159  1  0.16800000  0.00940000  0.55920000  1
  C  C160  1  0.17100000  0.53860000  0.51170000  1
  C  C161  1  0.17300000  0.30660000  0.32310000  1
  C  C162  1  0.17500000  0.51270000  0.55890000  1
  C  C163  1  0.17600000  0.01930000  0.46550000  1
  C  C164  1  0.18000000  0.63390000  0.46560000  1
  C  C165  1  0.18100000  0.61050000  0.51120000  1
  C  C166  1  0.18300000  0.79140000  0.59120000  1
  C  C167  1  0.18400000  0.03170000  0.36890000  1
  C  C168  1  0.19300000  0.07790000  0.57510000  1
  C  C169  1  0.19300000  0.56220000  0.61130000  1
  C  C170  1  0.19800000  0.32660000  0.15610000  1
  C  C171  1  0.20100000  0.05040000  0.72740000  1
  C  C172  1  0.20100000  0.35230000  0.37810000  1
  C  C173  1  0.20200000  0.82210000  0.54320000  1
  C  C174  1  0.20200000  0.97490000  0.72740000  1
  C  C175  1  0.20400000  0.09220000  0.48570000  1
  C  C176  1  0.20800000  0.38320000  0.12750000  1
  C  C177  1  0.21300000  0.12050000  0.53950000  1
  C  C178  1  0.21500000  0.81090000  0.83370000  1
  C  C179  1  0.22300000  0.85900000  0.88750000  1
  C  C180  1  0.23300000  0.10150000  0.77160000  1
  C  C181  1  0.23500000  0.17650000  0.76840000  1
  C  C182  1  0.23500000  0.39170000  0.75440000  1
  C  C183  1  0.23700000  0.31800000  0.75950000  1
  C  C184  1  0.28200000  0.09140000  0.93530000  1
  C  C185  1  0.29100000  0.61210000  0.63070000  1
  C  C186  1  0.29200000  0.02310000  0.93070000  1
  C  C187  1  0.29500000  0.34910000  0.98540000  1
  C  C188  1  0.29600000  0.13560000  0.98520000  1
  C  C189  1  0.29600000  0.38990000  0.09630000  1
  C  C190  1  0.29700000  0.60560000  0.92670000  1
  C  C191  1  0.30600000  0.44380000  0.06620000  1
  C  C192  1  0.30700000  0.51570000  0.76530000  1
  C  C193  1  0.30900000  0.32920000  0.93350000  1
  C  C194  1  0.31200000  0.42210000  0.01160000  1
  C  C195  1  0.31800000  0.66100000  0.68310000  1
  C  C196  1  0.32200000  0.51590000  0.08910000  1
  C  C197  1  0.32300000  0.99600000  0.97850000  1
  C  C198  1  0.32400000  0.11240000  0.03060000  1
  C  C199  1  0.32500000  0.54050000  0.14490000  1
  C  C200  1  0.32800000  0.20670000  0.74530000  1
  C  C201  1  0.32900000  0.27820000  0.74030000  1
  C  C202  1  0.32900000  0.44240000  0.77080000  1
  C  C203  1  0.33100000  0.56430000  0.05670000  1
  C  C204  1  0.33100000  0.87800000  0.92430000  1
  C  C205  1  0.33300000  0.63750000  0.08050000  1
  C  C206  1  0.33400000  0.47210000  0.98070000  1
  C  C207  1  0.33400000  0.61130000  0.16660000  1
  C  C208  1  0.33600000  0.65880000  0.13340000  1
  C  C209  1  0.33700000  0.65990000  0.89680000  1
  C  C210  1  0.33900000  0.37990000  0.90360000  1
  C  C211  1  0.34000000  0.04300000  0.03060000  1
  C  C212  1  0.34100000  0.54500000  0.00280000  1
  C  C213  1  0.34400000  0.92750000  0.97700000  1
  C  C214  1  0.34900000  0.44750000  0.92500000  1
  C  C215  1  0.36800000  0.59690000  0.97270000  1
  C  C216  1  0.37200000  0.01770000  0.07910000  1
  C  C217  1  0.38200000  0.90320000  0.02350000  1
  C  C218  1  0.38400000  0.06910000  0.13020000  1
  C  C219  1  0.39200000  0.94930000  0.07610000  1
  C  C220  1  0.41200000  0.83320000  0.02290000  1
  C  C221  1  0.41300000  0.30380000  0.71200000  1
  C  C222  1  0.42300000  0.91980000  0.12350000  1
  C  C223  1  0.42400000  0.16970000  0.72760000  1
  C  C224  1  0.44300000  0.80990000  0.06960000  1
  C  C225  1  0.44600000  0.85420000  0.12050000  1
  C  C226  1  0.47900000  0.08120000  0.16930000  1
  C  C227  1  0.48600000  0.13490000  0.22150000  1
  C  C228  1  0.48700000  0.80010000  0.29580000  1
  C  C229  1  0.49200000  0.73240000  0.30380000  1
  C  C230  1  0.50800000  0.26760000  0.69620000  1
  C  C231  1  0.51300000  0.19990000  0.70420000  1
  C  C232  1  0.51400000  0.86510000  0.77850000  1
  C  C233  1  0.52100000  0.91880000  0.83070000  1
  C  C234  1  0.55400000  0.14580000  0.87950000  1
  C  C235  1  0.55700000  0.19010000  0.93040000  1
  C  C236  1  0.57600000  0.83030000  0.27240000  1
  C  C237  1  0.57700000  0.08020000  0.87650000  1
  C  C238  1  0.58700000  0.69620000  0.28800000  1
  C  C239  1  0.58800000  0.16680000  0.97710000  1
  C  C240  1  0.60800000  0.05070000  0.92390000  1
  C  C241  1  0.61600000  0.93090000  0.86980000  1
  C  C242  1  0.61800000  0.09680000  0.97650000  1
  C  C243  1  0.62800000  0.98230000  0.92090000  1
  C  C244  1  0.63200000  0.40310000  0.02730000  1
  C  C245  1  0.65100000  0.55250000  0.07500000  1
  C  C246  1  0.65600000  0.07250000  0.02300000  1
  C  C247  1  0.65900000  0.45500000  0.99720000  1
  C  C248  1  0.66000000  0.95700000  0.96940000  1
  C  C249  1  0.66100000  0.62010000  0.09640000  1
  C  C250  1  0.66300000  0.34010000  0.10320000  1
  C  C251  1  0.66400000  0.34120000  0.86660000  1
  C  C252  1  0.66600000  0.38870000  0.83340000  1
  C  C253  1  0.66600000  0.52790000  0.01930000  1
  C  C254  1  0.66700000  0.36250000  0.91950000  1
  C  C255  1  0.66900000  0.12200000  0.07570000  1
  C  C256  1  0.66900000  0.43570000  0.94330000  1
  C  C257  1  0.67100000  0.55760000  0.22920000  1
  C  C258  1  0.67100000  0.72180000  0.25970000  1
  C  C259  1  0.67200000  0.79330000  0.25470000  1
  C  C260  1  0.67500000  0.45950000  0.85510000  1
  C  C261  1  0.67600000  0.88760000  0.96940000  1
  C  C262  1  0.67700000  0.00400000  0.02150000  1
  C  C263  1  0.67800000  0.48410000  0.91090000  1
  C  C264  1  0.68200000  0.33900000  0.31690000  1
  C  C265  1  0.68800000  0.57790000  0.98840000  1
  C  C266  1  0.69100000  0.67080000  0.06650000  1
  C  C267  1  0.69300000  0.48430000  0.23470000  1
  C  C268  1  0.69400000  0.55620000  0.93380000  1
  C  C269  1  0.70300000  0.39440000  0.07330000  1
  C  C270  1  0.70400000  0.61010000  0.90370000  1
  C  C271  1  0.70400000  0.86440000  0.01480000  1
  C  C272  1  0.70500000  0.65090000  0.01460000  1
  C  C273  1  0.70800000  0.97690000  0.06930000  1
  C  C274  1  0.70900000  0.38790000  0.36930000  1
  C  C275  1  0.71800000  0.90860000  0.06470000  1
  C  C276  1  0.76300000  0.68200000  0.24050000  1
  C  C277  1  0.76500000  0.60830000  0.24560000  1
  C  C278  1  0.76500000  0.82350000  0.23160000  1
  C  C279  1  0.76700000  0.89850000  0.22840000  1
  C  C280  1  0.77700000  0.14100000  0.11250000  1
  C  C281  1  0.78500000  0.18910000  0.16630000  1
  C  C282  1  0.78700000  0.87950000  0.46050000  1
  C  C283  1  0.79200000  0.61680000  0.87250000  1
  C  C284  1  0.79600000  0.90780000  0.51430000  1
  C  C285  1  0.79800000  0.02510000  0.27260000  1
  C  C286  1  0.79800000  0.17790000  0.45680000  1
  C  C287  1  0.79900000  0.64770000  0.62190000  1
  C  C288  1  0.79900000  0.94960000  0.27260000  1
  C  C289  1  0.80200000  0.67340000  0.84390000  1
  C  C290  1  0.80700000  0.43780000  0.38870000  1
  C  C291  1  0.80700000  0.92210000  0.42490000  1
  C  C292  1  0.81600000  0.96830000  0.63110000  1
  C  C293  1  0.81700000  0.20860000  0.40880000  1
  C  C294  1  0.81900000  0.38950000  0.48880000  1
  C  C295  1  0.82000000  0.36610000  0.53440000  1
  C  C296  1  0.82400000  0.98070000  0.53450000  1
  C  C297  1  0.82500000  0.48730000  0.44110000  1
  C  C298  1  0.82700000  0.69340000  0.67690000  1
  C  C299  1  0.82900000  0.46140000  0.48830000  1
  C  C300  1  0.83200000  0.99060000  0.44080000  1
  C  C301  1  0.83400000  0.00980000  0.58990000  1
  C  C302  1  0.83500000  0.58430000  0.39550000  1
  C  C303  1  0.84000000  0.41410000  0.58460000  1
  C  C304  1  0.84100000  0.55740000  0.44320000  1
  C  C305  1  0.84400000  0.02370000  0.49740000  1
  C  C306  1  0.84900000  0.50780000  0.54040000  1
  C  C307  1  0.85000000  0.71110000  0.21460000  1
  C  C308  1  0.85100000  0.78290000  0.21090000  1
  C  C309  1  0.85200000  0.65440000  0.39920000  1
  C  C310  1  0.85300000  0.08360000  0.60880000  1
  C  C311  1  0.85300000  0.48290000  0.58810000  1
  C  C312  1  0.85600000  0.11630000  0.66280000  1
  C  C313  1  0.85600000  0.88200000  0.68670000  1
  C  C314  1  0.86300000  0.09500000  0.51490000  1
  C  C315  1  0.86400000  0.12560000  0.56830000  1
  C  C316  1  0.86500000  0.58140000  0.54280000  1
  C  C317  1  0.86500000  0.60580000  0.49540000  1
  C  C318  1  0.87700000  0.70210000  0.44980000  1
  C  C319  1  0.88000000  0.13760000  0.47670000  1
  C  C320  1  0.88100000  0.67880000  0.49610000  1
  C  C321  1  0.88300000  0.92250000  0.64460000  1
  C  C322  1  0.88900000  0.18890000  0.67670000  1
  C  C323  1  0.89000000  0.20040000  0.59030000  1
  C  C324  1  0.89000000  0.62950000  0.59440000  1
  C  C325  1  0.89600000  0.22680000  0.64380000  1
  C  C326  1  0.94100000  0.67370000  0.19500000  1
  C  C327  1  0.94300000  0.80920000  0.18490000  1
  C  C328  1  0.97500000  0.22780000  0.83480000  1
  C  C329  1  0.97900000  0.30000000  0.83200000  1
  O  O330  1  0.04920000  0.14590000  0.29120000  1
  O  O331  1  0.06400000  0.29410000  0.29420000  1
  O  O332  1  0.07670000  0.78420000  0.60260000  1
  O  O333  1  0.10190000  0.31700000  0.17520000  1
  O  O334  1  0.10640000  0.78470000  0.80630000  1
  O  O335  1  0.19180000  0.95450000  0.77010000  1
  O  O336  1  0.19910000  0.52730000  0.75120000  1
  O  O337  1  0.20850000  0.93740000  0.68260000  1
  O  O338  1  0.22870000  0.67080000  0.70950000  1
  O  O339  1  0.24840000  0.11950000  0.30150000  1
  O  O340  1  0.26120000  0.66170000  0.85380000  1
  O  O341  1  0.26920000  0.28020000  0.30880000  1
  O  O342  1  0.28350000  0.77480000  0.61910000  1
  O  O343  1  0.28800000  0.28920000  0.16090000  1
  O  O344  1  0.31770000  0.79980000  0.81850000  1
  O  O345  1  0.40210000  0.17950000  0.21940000  1
  O  O346  1  0.41140000  0.55970000  0.77730000  1
  O  O347  1  0.42910000  0.86030000  0.73760000  1
  O  O348  1  0.42940000  0.69150000  0.69910000  1
  O  O349  1  0.44640000  0.69440000  0.91180000  1
  O  O350  1  0.55360000  0.30560000  0.08820000  1
  O  O351  1  0.57060000  0.30850000  0.30090000  1
  O  O352  1  0.57090000  0.13970000  0.26240000  1
  O  O353  1  0.58860000  0.44030000  0.22270000  1
  O  O354  1  0.59790000  0.82050000  0.78060000  1
  O  O355  1  0.68230000  0.20020000  0.18150000  1
  O  O356  1  0.71200000  0.71080000  0.83910000  1
  O  O357  1  0.71650000  0.22520000  0.38090000  1
  O  O358  1  0.73080000  0.71980000  0.69120000  1
  O  O359  1  0.73880000  0.33830000  0.14620000  1
  O  O360  1  0.75160000  0.88050000  0.69850000  1
  O  O361  1  0.77130000  0.32920000  0.29050000  1
  O  O362  1  0.79150000  0.06260000  0.31740000  1
  O  O363  1  0.80090000  0.47270000  0.24880000  1
  O  O364  1  0.80820000  0.04550000  0.22990000  1
  O  O365  1  0.89360000  0.21530000  0.19370000  1
  O  O366  1  0.89810000  0.68300000  0.82480000  1
  O  O367  1  0.92330000  0.21580000  0.39740000  1
  O  O368  1  0.93600000  0.70590000  0.70580000  1
  O  O369  1  0.95080000  0.85410000  0.70880000  1
