# generated using pymatgen
data_Mg3H8C14(NO5)2
_symmetry_space_group_name_H-M   'P 1'
_cell_length_a   11.05140000
_cell_length_b   11.05773038
_cell_length_c   11.05773038
_cell_angle_alpha   72.74057956
_cell_angle_beta   78.89147801
_cell_angle_gamma   78.89147801
_symmetry_Int_Tables_number   1
_chemical_formula_structural   Mg3H8C14(NO5)2
_chemical_formula_sum   'Mg6 H16 C28 N4 O20'
_cell_volume   1252.95878060
_cell_formula_units_Z   2
loop_
 _symmetry_equiv_pos_site_id
 _symmetry_equiv_pos_as_xyz
  1  'x, y, z'
loop_
 _atom_site_type_symbol
 _atom_site_label
 _atom_site_symmetry_multiplicity
 _atom_site_fract_x
 _atom_site_fract_y
 _atom_site_fract_z
 _atom_site_occupancy
  C  C0  1  0.79210000  0.30325000  0.43665000  1
  C  C1  1  0.29210000  0.43665000  0.30325000  1
  C  C2  1  0.22280000  0.15060000  0.57220000  1
  C  C3  1  0.72280000  0.57220000  0.15060000  1
  C  C4  1  0.73030000  0.20166000  0.41646000  1
  C  C5  1  0.23030000  0.41646000  0.20166000  1
  C  C6  1  0.27620000  0.01051000  0.59111000  1
  C  C7  1  0.77620000  0.59111000  0.01051000  1
  C  C8  1  0.39270000  0.96589000  0.63049000  1
  C  C9  1  0.89270000  0.63049000  0.96589000  1
  C  C10  1  0.55650000  0.16074000  0.35834000  1
  C  C11  1  0.05650000  0.35834000  0.16074000  1
  C  C12  1  0.78740000  0.07579000  0.43179000  1
  C  C13  1  0.28740000  0.43179000  0.07579000  1
  C  C14  1  0.21260000  0.92421000  0.56821000  1
  C  C15  1  0.71260000  0.56821000  0.92421000  1
  C  C16  1  0.44350000  0.83926000  0.64166000  1
  C  C17  1  0.94350000  0.64166000  0.83926000  1
  C  C18  1  0.60730000  0.03411000  0.36951000  1
  C  C19  1  0.10730000  0.36951000  0.03411000  1
  C  C20  1  0.72380000  0.98949000  0.40889000  1
  C  C21  1  0.22380000  0.40889000  0.98949000  1
  C  C22  1  0.26970000  0.79834000  0.58354000  1
  C  C23  1  0.76970000  0.58354000  0.79834000  1
  C  C24  1  0.77720000  0.84940000  0.42780000  1
  C  C25  1  0.27720000  0.42780000  0.84940000  1
  C  C26  1  0.20790000  0.69675000  0.56335000  1
  C  C27  1  0.70790000  0.56335000  0.69675000  1
  H  H28  1  0.47200000  0.33100000  0.60300000  1
  H  H29  1  0.97200000  0.60300000  0.33100000  1
  H  H30  1  0.44500000  0.02700000  0.64300000  1
  H  H31  1  0.94500000  0.64300000  0.02700000  1
  H  H32  1  0.47500000  0.19600000  0.33600000  1
  H  H33  1  0.97500000  0.33600000  0.19600000  1
  H  H34  1  0.87700000  0.05200000  0.45400000  1
  H  H35  1  0.37700000  0.45400000  0.05200000  1
  H  H36  1  0.12300000  0.94800000  0.54600000  1
  H  H37  1  0.62300000  0.54600000  0.94800000  1
  H  H38  1  0.52500000  0.80400000  0.66400000  1
  H  H39  1  0.02500000  0.66400000  0.80400000  1
  H  H40  1  0.55500000  0.97300000  0.35700000  1
  H  H41  1  0.05500000  0.35700000  0.97300000  1
  H  H42  1  0.52800000  0.66900000  0.39700000  1
  H  H43  1  0.02800000  0.39700000  0.66900000  1
  Mg  Mg44  1  0.25000000  0.40498000  0.59502000  1
  Mg  Mg45  1  0.75000000  0.59502000  0.40498000  1
  Mg  Mg46  1  0.04347000  0.37935000  0.44741000  1
  Mg  Mg47  1  0.54347000  0.44741000  0.37935000  1
  Mg  Mg48  1  0.95653000  0.62065000  0.55259000  1
  Mg  Mg49  1  0.45653000  0.55259000  0.62065000  1
  N  N50  1  0.61550000  0.24443000  0.38203000  1
  N  N51  1  0.11550000  0.38203000  0.24443000  1
  N  N52  1  0.38450000  0.75557000  0.61797000  1
  N  N53  1  0.88450000  0.61797000  0.75557000  1
  O  O54  1  0.44620000  0.39429000  0.56319000  1
  O  O55  1  0.94620000  0.56319000  0.39429000  1
  O  O56  1  0.72229000  0.40771000  0.43799000  1
  O  O57  1  0.22229000  0.43799000  0.40771000  1
  O  O58  1  0.27600000  0.21297000  0.61925000  1
  O  O59  1  0.77600000  0.61925000  0.21297000  1
  O  O60  1  0.90432000  0.27859000  0.44971000  1
  O  O61  1  0.40432000  0.44971000  0.27859000  1
  O  O62  1  0.13240000  0.19213000  0.51101000  1
  O  O63  1  0.63240000  0.51101000  0.19213000  1
  O  O64  1  0.86760000  0.80787000  0.48899000  1
  O  O65  1  0.36760000  0.48899000  0.80787000  1
  O  O66  1  0.09568000  0.72141000  0.55029000  1
  O  O67  1  0.59568000  0.55029000  0.72141000  1
  O  O68  1  0.72400000  0.78703000  0.38075000  1
  O  O69  1  0.22400000  0.38075000  0.78703000  1
  O  O70  1  0.27771000  0.59229000  0.56201000  1
  O  O71  1  0.77771000  0.56201000  0.59229000  1
  O  O72  1  0.55380000  0.60571000  0.43681000  1
  O  O73  1  0.05380000  0.43681000  0.60571000  1
