# generated using pymatgen
data_GaH5C8O5
_symmetry_space_group_name_H-M   'P 1'
_cell_length_a   6.72610000
_cell_length_b   11.04550000
_cell_length_c   11.04550000
_cell_angle_alpha   60.10400000
_cell_angle_beta   74.04900000
_cell_angle_gamma   74.04860000
_symmetry_Int_Tables_number   1
_chemical_formula_structural   GaH5C8O5
_chemical_formula_sum   'Ga2 H10 C16 O10'
_cell_volume   674.59883722
_cell_formula_units_Z   2
loop_
 _symmetry_equiv_pos_site_id
 _symmetry_equiv_pos_as_xyz
  1  'x, y, z'
loop_
 _atom_site_type_symbol
 _atom_site_label
 _atom_site_symmetry_multiplicity
 _atom_site_fract_x
 _atom_site_fract_y
 _atom_site_fract_z
 _atom_site_occupancy
  Ga  Ga0  1  0.00000000  0.00000000  0.00000000  1
  Ga  Ga1  1  0.50000000  0.00000000  0.00000000  1
  H  H2  1  0.84230000  0.02360000  0.39160000  1
  H  H3  1  0.78280000  0.40240000  0.95560000  1
  H  H4  1  0.75000000  0.15160000  0.84840000  1
  H  H5  1  0.71720000  0.04440000  0.59760000  1
  H  H6  1  0.65770000  0.60840000  0.97640000  1
  H  H7  1  0.34230000  0.39160000  0.02360000  1
  H  H8  1  0.28280000  0.95560000  0.40240000  1
  H  H9  1  0.25000000  0.84840000  0.15160000  1
  H  H10  1  0.21720000  0.59760000  0.04440000  1
  H  H11  1  0.15770000  0.97640000  0.60840000  1
  C  C12  1  0.92280000  0.62400000  0.01340000  1
  C  C13  1  0.87080000  0.44160000  0.97320000  1
  C  C14  1  0.84260000  0.75820000  0.02680000  1
  C  C15  1  0.79590000  0.56480000  0.98620000  1
  C  C16  1  0.70410000  0.01380000  0.43520000  1
  C  C17  1  0.65740000  0.97320000  0.24180000  1
  C  C18  1  0.62920000  0.02680000  0.55840000  1
  C  C19  1  0.57720000  0.98660000  0.37600000  1
  C  C20  1  0.42280000  0.01340000  0.62400000  1
  C  C21  1  0.37080000  0.97320000  0.44160000  1
  C  C22  1  0.34260000  0.02680000  0.75820000  1
  C  C23  1  0.29590000  0.98620000  0.56480000  1
  C  C24  1  0.20410000  0.43520000  0.01380000  1
  C  C25  1  0.15740000  0.24180000  0.97320000  1
  C  C26  1  0.12920000  0.55840000  0.02680000  1
  C  C27  1  0.07720000  0.37600000  0.98660000  1
  O  O28  1  0.96820000  0.80410000  0.05330000  1
  O  O29  1  0.84520000  0.98870000  0.18670000  1
  O  O30  1  0.75000000  0.07850000  0.92150000  1
  O  O31  1  0.65480000  0.81330000  0.01130000  1
  O  O32  1  0.53180000  0.94670000  0.19590000  1
  O  O33  1  0.46820000  0.05330000  0.80410000  1
  O  O34  1  0.34520000  0.18670000  0.98870000  1
  O  O35  1  0.25000000  0.92150000  0.07850000  1
  O  O36  1  0.15480000  0.01130000  0.81330000  1
  O  O37  1  0.03180000  0.19590000  0.94670000  1
