# generated using pymatgen
data_ScH6(C2O)6
_symmetry_space_group_name_H-M   'P 1'
_cell_length_a   8.75290000
_cell_length_b   11.26260000
_cell_length_c   17.72761430
_cell_angle_alpha   84.49533435
_cell_angle_beta   75.70741860
_cell_angle_gamma   67.13400000
_symmetry_Int_Tables_number   1
_chemical_formula_structural   ScH6(C2O)6
_chemical_formula_sum   'Sc4 H24 C48 O24'
_cell_volume   1560.42140866
_cell_formula_units_Z   4
loop_
 _symmetry_equiv_pos_site_id
 _symmetry_equiv_pos_as_xyz
  1  'x, y, z'
loop_
 _atom_site_type_symbol
 _atom_site_label
 _atom_site_symmetry_multiplicity
 _atom_site_fract_x
 _atom_site_fract_y
 _atom_site_fract_z
 _atom_site_occupancy
  Sc  Sc0  1  0.11422000  0.75000000  0.77156000  1
  Sc  Sc1  1  0.36422000  0.25000000  0.27156000  1
  Sc  Sc2  1  0.63578000  0.75000000  0.72844000  1
  Sc  Sc3  1  0.88578000  0.25000000  0.22844000  1
  H  H4  1  0.68411000  0.62820000  0.25269000  1
  H  H5  1  0.21984000  0.57609000  0.60032000  1
  H  H6  1  0.80435000  0.43337000  0.01291000  1
  H  H7  1  0.56500000  0.87179000  0.24731000  1
  H  H8  1  0.81726000  0.93337000  0.98709000  1
  H  H9  1  0.17985000  0.92391000  0.60032000  1
  H  H10  1  0.26228000  0.43337000  0.48709000  1
  H  H11  1  0.25104000  0.06578000  0.48806000  1
  H  H12  1  0.60556000  0.07547000  0.09987000  1
  H  H13  1  0.93680000  0.12820000  0.74731000  1
  H  H14  1  0.70407000  0.57609000  0.89968000  1
  H  H15  1  0.81231000  0.37179000  0.75269000  1
  H  H16  1  0.18769000  0.62821000  0.24731000  1
  H  H17  1  0.29457000  0.42453000  0.09987000  1
  H  H18  1  0.06320000  0.87180000  0.25269000  1
  H  H19  1  0.39625000  0.92391000  0.89968000  1
  H  H20  1  0.74937000  0.93337000  0.51291000  1
  H  H21  1  0.73772000  0.56663000  0.51291000  1
  H  H22  1  0.81897000  0.07547000  0.40013000  1
  H  H23  1  0.18274000  0.06663000  0.01291000  1
  H  H24  1  0.43500000  0.12821000  0.75269000  1
  H  H25  1  0.19565000  0.56663000  0.98709000  1
  H  H26  1  0.78089000  0.42453000  0.40013000  1
  H  H27  1  0.31589000  0.37180000  0.74731000  1
  C  C28  1  0.73899000  0.02202000  0.25000000  1
  C  C29  1  0.22961000  0.31692000  0.74922000  1
  C  C30  1  0.70425000  0.81692000  0.24922000  1
  C  C31  1  0.51715000  0.43380000  0.43550000  1
  C  C32  1  0.19162000  0.11676000  0.75000000  1
  C  C33  1  0.53590000  0.35908000  0.36972000  1
  C  C34  1  0.34658000  0.53890000  0.55578000  1
  C  C35  1  0.36679000  0.46634000  0.49262000  1
  C  C36  1  0.05838000  0.38324000  0.75000000  1
  C  C37  1  0.02117000  0.18308000  0.74922000  1
  C  C38  1  0.98899000  0.52202000  0.75000000  1
  C  C39  1  0.60502000  0.35908000  0.13028000  1
  C  C40  1  0.95347000  0.31692000  0.75078000  1
  C  C41  1  0.66687000  0.46634000  0.00738000  1
  C  C42  1  0.67425000  0.96634000  0.99262000  1
  C  C43  1  0.09764000  0.96110000  0.55578000  1
  C  C44  1  0.14059000  0.03366000  0.49262000  1
  C  C45  1  0.55874000  0.03890000  0.05578000  1
  C  C46  1  0.54905000  0.43380000  0.06450000  1
  C  C47  1  0.73530000  0.85908000  0.86972000  1
  C  C48  1  0.61452000  0.53890000  0.94422000  1
  C  C49  1  0.61355000  0.93380000  0.93550000  1
  C  C50  1  0.90562000  0.85908000  0.63028000  1
  C  C51  1  0.95265000  0.93380000  0.56450000  1
  C  C52  1  0.04735000  0.06620000  0.43550000  1
  C  C53  1  0.09438000  0.14092000  0.36972000  1
  C  C54  1  0.38645000  0.06620000  0.06450000  1
  C  C55  1  0.38548000  0.46110000  0.05578000  1
  C  C56  1  0.26470000  0.14092000  0.13028000  1
  C  C57  1  0.45095000  0.56620000  0.93550000  1
  C  C58  1  0.44126000  0.96110000  0.94422000  1
  C  C59  1  0.85941000  0.96634000  0.50738000  1
  C  C60  1  0.90236000  0.03890000  0.44422000  1
  C  C61  1  0.32575000  0.03366000  0.00738000  1
  C  C62  1  0.33313000  0.53366000  0.99262000  1
  C  C63  1  0.04653000  0.68308000  0.24922000  1
  C  C64  1  0.39498000  0.64092000  0.86972000  1
  C  C65  1  0.01101000  0.47798000  0.25000000  1
  C  C66  1  0.97883000  0.81692000  0.25078000  1
  C  C67  1  0.94162000  0.61676000  0.25000000  1
  C  C68  1  0.63321000  0.53366000  0.50738000  1
  C  C69  1  0.65342000  0.46110000  0.44422000  1
  C  C70  1  0.46410000  0.64092000  0.63028000  1
  C  C71  1  0.80838000  0.88324000  0.25000000  1
  C  C72  1  0.48285000  0.56620000  0.56450000  1
  C  C73  1  0.29575000  0.18308000  0.75078000  1
  C  C74  1  0.77039000  0.68308000  0.25078000  1
  C  C75  1  0.26101000  0.97798000  0.75000000  1
  O  O76  1  0.66981000  0.33256000  0.31562000  1
  O  O77  1  0.16314000  0.91640000  0.77092000  1
  O  O78  1  0.75382000  0.33038000  0.13998000  1
  O  O79  1  0.57954000  0.08360000  0.27092000  1
  O  O80  1  0.06594000  0.58360000  0.77092000  1
  O  O81  1  0.41580000  0.33038000  0.36002000  1
  O  O82  1  0.89380000  0.83038000  0.86002000  1
  O  O83  1  0.49763000  0.33256000  0.18438000  1
  O  O84  1  0.98543000  0.83256000  0.68438000  1
  O  O85  1  0.22418000  0.16962000  0.36002000  1
  O  O86  1  0.85046000  0.58360000  0.72908000  1
  O  O87  1  0.31799000  0.16744000  0.18438000  1
  O  O88  1  0.68201000  0.83256000  0.81562000  1
  O  O89  1  0.14954000  0.41640000  0.27092000  1
  O  O90  1  0.77582000  0.83038000  0.63998000  1
  O  O91  1  0.01457000  0.16744000  0.31562000  1
  O  O92  1  0.50237000  0.66744000  0.81562000  1
  O  O93  1  0.10620000  0.16962000  0.13998000  1
  O  O94  1  0.58420000  0.66962000  0.63998000  1
  O  O95  1  0.93406000  0.41640000  0.22908000  1
  O  O96  1  0.42046000  0.91640000  0.72908000  1
  O  O97  1  0.24618000  0.66962000  0.86002000  1
  O  O98  1  0.83686000  0.08360000  0.22908000  1
  O  O99  1  0.33019000  0.66744000  0.68438000  1
