# generated using pymatgen
data_ZnH8C12(IN2)2
_symmetry_space_group_name_H-M   'P 1'
_cell_length_a   15.10100000
_cell_length_b   18.65280000
_cell_length_c   30.23970000
_cell_angle_alpha   100.15500000
_cell_angle_beta   90.00000000
_cell_angle_gamma   113.87800000
_symmetry_Int_Tables_number   1
_chemical_formula_structural   ZnH8C12(IN2)2
_chemical_formula_sum   'Zn12 H96 C144 I24 N48'
_cell_volume   7642.59820541
_cell_formula_units_Z   12
loop_
 _symmetry_equiv_pos_site_id
 _symmetry_equiv_pos_as_xyz
  1  'x, y, z'
loop_
 _atom_site_type_symbol
 _atom_site_label
 _atom_site_symmetry_multiplicity
 _atom_site_fract_x
 _atom_site_fract_y
 _atom_site_fract_z
 _atom_site_occupancy
  Zn  Zn0  1  0.04735000  0.84912000  0.90052000  1
  Zn  Zn1  1  0.17632000  0.64054000  0.71808000  1
  Zn  Zn2  1  0.19823000  0.15088000  0.59948000  1
  Zn  Zn3  1  0.26907000  0.73940000  0.44800000  1
  Zn  Zn4  1  0.46422000  0.64054000  0.21808000  1
  Zn  Zn5  1  0.47033000  0.73940000  0.94800000  1
  Zn  Zn6  1  0.52967000  0.26060000  0.05200000  1
  Zn  Zn7  1  0.53578000  0.35946000  0.78192000  1
  Zn  Zn8  1  0.73093000  0.26060000  0.55200000  1
  Zn  Zn9  1  0.80177000  0.84912000  0.40052000  1
  Zn  Zn10  1  0.82368000  0.35946000  0.28192000  1
  Zn  Zn11  1  0.95265000  0.15088000  0.09948000  1
  H  H12  1  0.00920000  0.98000000  0.42630000  1
  H  H13  1  0.01240000  0.31000000  0.16210000  1
  H  H14  1  0.01810000  0.18780000  0.47390000  1
  H  H15  1  0.02090000  0.74800000  0.31080000  1
  H  H16  1  0.02140000  0.17460000  0.63280000  1
  H  H17  1  0.02920000  0.02000000  0.07370000  1
  H  H18  1  0.05300000  0.20360000  0.02000000  1
  H  H19  1  0.07590000  0.63960000  0.63130000  1
  H  H20  1  0.08790000  0.72760000  0.58230000  1
  H  H21  1  0.10740000  0.50400000  0.16540000  1
  H  H22  1  0.12680000  0.39240000  0.21970000  1
  H  H23  1  0.12960000  0.58660000  0.87920000  1
  H  H24  1  0.14800000  0.99940000  0.46890000  1
  H  H25  1  0.14860000  0.00060000  0.03110000  1
  H  H26  1  0.15060000  0.20360000  0.52000000  1
  H  H27  1  0.15320000  0.17460000  0.13280000  1
  H  H28  1  0.16970000  0.18780000  0.97390000  1
  H  H29  1  0.18030000  0.62780000  0.35900000  1
  H  H30  1  0.18090000  0.70000000  0.26450000  1
  H  H31  1  0.20470000  0.53180000  0.30700000  1
  H  H32  1  0.25500000  0.68040000  0.92920000  1
  H  H33  1  0.25680000  0.52720000  0.66430000  1
  H  H34  1  0.26560000  0.39240000  0.71970000  1
  H  H35  1  0.27040000  0.52720000  0.16430000  1
  H  H36  1  0.27290000  0.25200000  0.18920000  1
  H  H37  1  0.29760000  0.31000000  0.66210000  1
  H  H38  1  0.31310000  0.79660000  0.70270000  1
  H  H39  1  0.32710000  0.53180000  0.80700000  1
  H  H40  1  0.33490000  0.94020000  0.01120000  1
  H  H41  1  0.33630000  0.88440000  0.65380000  1
  H  H42  1  0.33930000  0.71420000  0.26290000  1
  H  H43  1  0.36030000  0.27240000  0.91770000  1
  H  H44  1  0.37160000  0.85900000  0.39390000  1
  H  H45  1  0.37490000  0.71420000  0.76290000  1
  H  H46  1  0.38560000  0.83760000  0.01400000  1
  H  H47  1  0.39470000  0.05980000  0.48880000  1
  H  H48  1  0.39660000  0.50400000  0.66540000  1
  H  H49  1  0.42540000  0.68040000  0.42920000  1
  H  H50  1  0.43630000  0.36040000  0.86870000  1
  H  H51  1  0.44720000  0.96700000  0.89160000  1
  H  H52  1  0.44750000  0.62780000  0.85900000  1
  H  H53  1  0.45190000  0.11560000  0.84620000  1
  H  H54  1  0.45200000  0.83760000  0.51400000  1
  H  H55  1  0.45700000  0.58660000  0.37920000  1
  H  H56  1  0.48020000  0.03300000  0.60840000  1
  H  H57  1  0.48090000  0.30000000  0.23550000  1
  H  H58  1  0.48350000  0.79660000  0.20270000  1
  H  H59  1  0.48740000  0.85900000  0.89390000  1
  H  H60  1  0.51260000  0.14100000  0.10610000  1
  H  H61  1  0.51650000  0.20340000  0.79730000  1
  H  H62  1  0.51910000  0.70000000  0.76450000  1
  H  H63  1  0.51980000  0.96700000  0.39160000  1
  H  H64  1  0.54300000  0.41340000  0.62080000  1
  H  H65  1  0.54800000  0.16240000  0.48600000  1
  H  H66  1  0.54810000  0.88440000  0.15380000  1
  H  H67  1  0.55250000  0.37220000  0.14100000  1
  H  H68  1  0.55280000  0.03300000  0.10840000  1
  H  H69  1  0.56370000  0.63960000  0.13130000  1
  H  H70  1  0.57460000  0.31960000  0.57080000  1
  H  H71  1  0.60340000  0.49600000  0.33460000  1
  H  H72  1  0.60530000  0.94020000  0.51120000  1
  H  H73  1  0.61440000  0.16240000  0.98600000  1
  H  H74  1  0.62510000  0.28580000  0.23710000  1
  H  H75  1  0.62840000  0.14100000  0.60610000  1
  H  H76  1  0.63970000  0.72760000  0.08230000  1
  H  H77  1  0.66070000  0.28580000  0.73710000  1
  H  H78  1  0.66370000  0.11560000  0.34620000  1
  H  H79  1  0.66510000  0.05980000  0.98880000  1
  H  H80  1  0.67290000  0.46820000  0.19300000  1
  H  H81  1  0.68690000  0.20340000  0.29730000  1
  H  H82  1  0.70240000  0.69000000  0.33790000  1
  H  H83  1  0.72710000  0.74800000  0.81080000  1
  H  H84  1  0.72960000  0.47280000  0.83570000  1
  H  H85  1  0.73440000  0.60760000  0.28030000  1
  H  H86  1  0.74320000  0.47280000  0.33570000  1
  H  H87  1  0.74500000  0.31960000  0.07080000  1
  H  H88  1  0.79530000  0.46820000  0.69300000  1
  H  H89  1  0.81910000  0.30000000  0.73550000  1
  H  H90  1  0.81970000  0.37220000  0.64100000  1
  H  H91  1  0.83030000  0.81220000  0.02610000  1
  H  H92  1  0.84680000  0.82540000  0.86720000  1
  H  H93  1  0.84940000  0.79640000  0.48000000  1
  H  H94  1  0.85140000  0.99940000  0.96890000  1
  H  H95  1  0.85200000  0.00060000  0.53110000  1
  H  H96  1  0.87040000  0.41340000  0.12080000  1
  H  H97  1  0.87320000  0.60760000  0.78030000  1
  H  H98  1  0.89260000  0.49600000  0.83460000  1
  H  H99  1  0.91210000  0.27240000  0.41770000  1
  H  H100  1  0.92410000  0.36040000  0.36870000  1
  H  H101  1  0.94700000  0.79640000  0.98000000  1
  H  H102  1  0.97080000  0.98000000  0.92630000  1
  H  H103  1  0.97860000  0.82540000  0.36720000  1
  H  H104  1  0.97910000  0.25200000  0.68920000  1
  H  H105  1  0.98190000  0.81220000  0.52610000  1
  H  H106  1  0.98760000  0.69000000  0.83790000  1
  H  H107  1  0.99080000  0.02000000  0.57370000  1
  C  C108  1  0.00490000  0.94460000  0.44610000  1
  C  C109  1  0.01040000  0.15400000  0.49500000  1
  C  C110  1  0.02290000  0.58740000  0.21600000  1
  C  C111  1  0.04570000  0.26500000  0.68490000  1
  C  C112  1  0.06030000  0.05540000  0.05390000  1
  C  C113  1  0.06540000  0.29740000  0.16860000  1
  C  C114  1  0.07180000  0.21860000  0.65150000  1
  C  C115  1  0.07340000  0.16240000  0.02240000  1
  C  C116  1  0.07860000  0.90440000  0.50080000  1
  C  C117  1  0.08740000  0.95700000  0.47130000  1
  C  C118  1  0.08900000  0.16240000  0.52240000  1
  C  C119  1  0.09100000  0.38000000  0.74810000  1
  C  C120  1  0.11640000  0.33020000  0.71180000  1
  C  C121  1  0.12610000  0.60080000  0.21380000  1
  C  C122  1  0.12850000  0.69080000  0.63610000  1
  C  C123  1  0.13040000  0.04300000  0.02870000  1
  C  C124  1  0.13340000  0.34720000  0.20260000  1
  C  C125  1  0.13600000  0.74260000  0.60640000  1
  C  C126  1  0.13610000  0.48460000  0.80650000  1
  C  C127  1  0.14360000  0.15400000  0.99500000  1
  C  C128  1  0.14680000  0.21860000  0.15150000  1
  C  C129  1  0.15450000  0.54860000  0.18520000  1
  C  C130  1  0.16570000  0.91180000  0.52840000  1
  C  C131  1  0.17420000  0.09560000  0.99920000  1
  C  C132  1  0.19480000  0.59400000  0.87470000  1
  C  C133  1  0.19730000  0.66360000  0.24390000  1
  C  C134  1  0.21380000  0.33020000  0.21180000  1
  C  C135  1  0.21380000  0.34720000  0.70260000  1
  C  C136  1  0.21530000  0.54780000  0.83790000  1
  C  C137  1  0.21640000  0.81720000  0.61310000  1
  C  C138  1  0.21930000  0.26500000  0.18490000  1
  C  C139  1  0.22780000  0.87060000  0.58120000  1
  C  C140  1  0.23200000  0.29740000  0.66860000  1
  C  C141  1  0.23720000  0.61900000  0.36310000  1
  C  C142  1  0.25080000  0.56140000  0.33200000  1
  C  C143  1  0.25120000  0.56120000  0.18560000  1
  C  C144  1  0.25390000  0.08820000  0.97160000  1
  C  C145  1  0.26760000  0.78200000  0.67750000  1
  C  C146  1  0.26950000  0.64980000  0.90400000  1
  C  C147  1  0.28080000  0.83480000  0.64850000  1
  C  C148  1  0.28900000  0.38000000  0.24810000  1
  C  C149  1  0.29110000  0.67080000  0.24290000  1
  C  C150  1  0.31000000  0.56120000  0.68560000  1
  C  C151  1  0.31060000  0.56140000  0.83200000  1
  C  C152  1  0.32510000  0.97420000  0.55040000  1
  C  C153  1  0.33250000  0.54780000  0.33790000  1
  C  C154  1  0.34850000  0.48460000  0.30650000  1
  C  C155  1  0.35090000  0.02580000  0.94960000  1
  C  C156  1  0.35720000  0.12940000  0.91880000  1
  C  C157  1  0.36800000  0.92500000  0.98710000  1
  C  C158  1  0.37970000  0.67080000  0.74290000  1
  C  C159  1  0.38030000  0.64980000  0.40400000  1
  C  C160  1  0.38180000  0.61900000  0.86310000  1
  C  C161  1  0.38580000  0.96320000  0.95280000  1
  C  C162  1  0.39340000  0.25740000  0.89360000  1
  C  C163  1  0.39410000  0.54860000  0.68520000  1
  C  C164  1  0.39680000  0.86280000  0.98860000  1
  C  C165  1  0.39920000  0.18280000  0.88690000  1
  C  C166  1  0.39920000  0.59400000  0.37470000  1
  C  C167  1  0.41940000  0.87680000  0.41850000  1
  C  C168  1  0.42260000  0.03680000  0.54720000  1
  C  C169  1  0.43290000  0.94040000  0.91640000  1
  C  C170  1  0.43550000  0.41260000  0.28400000  1
  C  C171  1  0.43770000  0.30920000  0.86390000  1
  C  C172  1  0.44300000  0.07500000  0.51290000  1
  C  C173  1  0.44600000  0.16520000  0.85150000  1
  C  C174  1  0.45740000  0.87680000  0.91850000  1
  C  C175  1  0.46600000  0.86280000  0.48860000  1
  C  C176  1  0.46630000  0.66360000  0.74390000  1
  C  C177  1  0.47470000  0.60080000  0.71380000  1
  C  C178  1  0.48560000  0.21800000  0.82250000  1
  C  C179  1  0.49250000  0.05960000  0.58360000  1
  C  C180  1  0.50750000  0.94040000  0.41640000  1
  C  C181  1  0.51440000  0.78200000  0.17750000  1
  C  C182  1  0.52530000  0.39920000  0.28620000  1
  C  C183  1  0.53370000  0.33640000  0.25610000  1
  C  C184  1  0.53400000  0.13720000  0.51140000  1
  C  C185  1  0.54260000  0.12320000  0.08150000  1
  C  C186  1  0.55400000  0.83480000  0.14850000  1
  C  C187  1  0.55700000  0.92500000  0.48710000  1
  C  C188  1  0.56230000  0.69080000  0.13610000  1
  C  C189  1  0.56450000  0.58740000  0.71600000  1
  C  C190  1  0.56710000  0.05960000  0.08360000  1
  C  C191  1  0.57740000  0.96320000  0.45280000  1
  C  C192  1  0.58060000  0.12320000  0.58150000  1
  C  C193  1  0.60080000  0.40600000  0.62530000  1
  C  C194  1  0.60080000  0.81720000  0.11310000  1
  C  C195  1  0.60320000  0.13720000  0.01140000  1
  C  C196  1  0.60590000  0.45140000  0.31480000  1
  C  C197  1  0.60660000  0.74260000  0.10640000  1
  C  C198  1  0.61420000  0.03680000  0.04720000  1
  C  C199  1  0.61820000  0.38100000  0.13690000  1
  C  C200  1  0.61970000  0.35020000  0.59600000  1
  C  C201  1  0.62030000  0.32920000  0.25710000  1
  C  C202  1  0.63200000  0.07500000  0.01290000  1
  C  C203  1  0.64280000  0.87060000  0.08120000  1
  C  C204  1  0.64910000  0.97420000  0.05040000  1
  C  C205  1  0.65150000  0.51540000  0.69350000  1
  C  C206  1  0.66750000  0.45220000  0.66210000  1
  C  C207  1  0.67490000  0.02580000  0.44960000  1
  C  C208  1  0.68940000  0.43860000  0.16800000  1
  C  C209  1  0.69000000  0.43880000  0.31440000  1
  C  C210  1  0.70890000  0.32920000  0.75710000  1
  C  C211  1  0.71100000  0.62000000  0.75190000  1
  C  C212  1  0.71920000  0.16520000  0.35150000  1
  C  C213  1  0.73050000  0.35020000  0.09600000  1
  C  C214  1  0.73240000  0.21800000  0.32250000  1
  C  C215  1  0.74610000  0.91180000  0.02840000  1
  C  C216  1  0.74880000  0.43880000  0.81440000  1
  C  C217  1  0.74920000  0.43860000  0.66800000  1
  C  C218  1  0.76280000  0.38100000  0.63690000  1
  C  C219  1  0.76800000  0.70260000  0.33140000  1
  C  C220  1  0.77220000  0.12940000  0.41880000  1
  C  C221  1  0.78070000  0.73500000  0.81510000  1
  C  C222  1  0.78360000  0.18280000  0.38690000  1
  C  C223  1  0.78470000  0.45220000  0.16210000  1
  C  C224  1  0.78620000  0.65280000  0.29740000  1
  C  C225  1  0.78620000  0.66980000  0.78820000  1
  C  C226  1  0.80270000  0.33640000  0.75610000  1
  C  C227  1  0.80520000  0.40600000  0.12530000  1
  C  C228  1  0.82580000  0.90440000  0.00080000  1
  C  C229  1  0.83430000  0.08820000  0.47160000  1
  C  C230  1  0.84550000  0.45140000  0.81480000  1
  C  C231  1  0.85320000  0.78140000  0.84850000  1
  C  C232  1  0.85640000  0.84600000  0.00500000  1
  C  C233  1  0.86390000  0.51540000  0.19350000  1
  C  C234  1  0.86400000  0.25740000  0.39360000  1
  C  C235  1  0.86660000  0.65280000  0.79740000  1
  C  C236  1  0.86960000  0.95700000  0.97130000  1
  C  C237  1  0.87150000  0.30920000  0.36390000  1
  C  C238  1  0.87390000  0.39920000  0.78620000  1
  C  C239  1  0.88360000  0.66980000  0.28820000  1
  C  C240  1  0.90900000  0.62000000  0.25190000  1
  C  C241  1  0.91100000  0.83760000  0.47760000  1
  C  C242  1  0.91260000  0.04300000  0.52870000  1
  C  C243  1  0.92140000  0.09560000  0.49920000  1
  C  C244  1  0.92660000  0.83760000  0.97760000  1
  C  C245  1  0.92820000  0.78140000  0.34850000  1
  C  C246  1  0.93460000  0.70260000  0.83140000  1
  C  C247  1  0.93970000  0.94460000  0.94610000  1
  C  C248  1  0.95430000  0.73500000  0.31510000  1
  C  C249  1  0.97710000  0.41260000  0.78400000  1
  C  C250  1  0.98960000  0.84600000  0.50500000  1
  C  C251  1  0.99510000  0.05540000  0.55390000  1
  I  I252  1  0.03090000  0.51132000  0.68777000  1
  I  I253  1  0.12189000  0.77142000  0.93686000  1
  I  I254  1  0.13277000  0.96190000  0.85877000  1
  I  I255  1  0.13961000  0.77136000  0.41354000  1
  I  I256  1  0.17087000  0.03810000  0.64123000  1
  I  I257  1  0.18795000  0.72908000  0.79491000  1
  I  I258  1  0.26114000  0.68230000  0.51793000  1
  I  I259  1  0.35047000  0.22858000  0.56314000  1
  I  I260  1  0.36825000  0.22864000  0.08646000  1
  I  I261  1  0.42116000  0.68230000  0.01793000  1
  I  I262  1  0.45887000  0.27092000  0.70509000  1
  I  I263  1  0.48042000  0.51132000  0.18777000  1
  I  I264  1  0.51958000  0.48868000  0.81223000  1
  I  I265  1  0.54113000  0.72908000  0.29491000  1
  I  I266  1  0.57884000  0.31770000  0.98207000  1
  I  I267  1  0.63175000  0.77136000  0.91354000  1
  I  I268  1  0.64953000  0.77142000  0.43686000  1
  I  I269  1  0.73886000  0.31770000  0.48207000  1
  I  I270  1  0.81205000  0.27092000  0.20509000  1
  I  I271  1  0.82913000  0.96190000  0.35877000  1
  I  I272  1  0.86039000  0.22864000  0.58646000  1
  I  I273  1  0.86723000  0.03810000  0.14123000  1
  I  I274  1  0.87811000  0.22858000  0.06314000  1
  I  I275  1  0.96910000  0.48868000  0.31223000  1
  N  N276  1  0.00340000  0.63720000  0.24760000  1
  N  N277  1  0.03350000  0.11580000  0.05180000  1
  N  N278  1  0.04350000  0.47380000  0.81240000  1
  N  N279  1  0.06910000  0.23140000  0.14380000  1
  N  N280  1  0.08230000  0.11580000  0.55180000  1
  N  N281  1  0.15080000  0.86080000  0.55630000  1
  N  N282  1  0.16230000  0.23140000  0.64380000  1
  N  N283  1  0.16300000  0.44140000  0.77330000  1
  N  N284  1  0.19320000  0.71200000  0.67070000  1
  N  N285  1  0.25200000  0.96860000  0.52330000  1
  N  N286  1  0.27840000  0.44140000  0.27330000  1
  N  N287  1  0.28340000  0.03140000  0.97670000  1
  N  N288  1  0.29000000  0.13920000  0.94370000  1
  N  N289  1  0.29960000  0.66280000  0.39840000  1
  N  N290  1  0.30150000  0.62100000  0.71560000  1
  N  N291  1  0.31660000  0.92780000  0.57990000  1
  N  N292  1  0.31950000  0.62100000  0.21560000  1
  N  N293  1  0.36320000  0.66280000  0.89840000  1
  N  N294  1  0.36620000  0.36280000  0.25240000  1
  N  N295  1  0.38880000  0.07220000  0.92010000  1
  N  N296  1  0.39910000  0.83960000  0.45390000  1
  N  N297  1  0.43030000  0.47380000  0.31240000  1
  N  N298  1  0.44050000  0.83960000  0.95390000  1
  N  N299  1  0.48120000  0.28800000  0.82930000  1
  N  N300  1  0.51880000  0.71200000  0.17070000  1
  N  N301  1  0.55950000  0.16040000  0.04610000  1
  N  N302  1  0.56970000  0.52620000  0.68760000  1
  N  N303  1  0.60090000  0.16040000  0.54610000  1
  N  N304  1  0.61120000  0.92780000  0.07990000  1
  N  N305  1  0.63380000  0.63720000  0.74760000  1
  N  N306  1  0.63680000  0.33720000  0.10160000  1
  N  N307  1  0.68050000  0.37900000  0.78440000  1
  N  N308  1  0.68340000  0.07220000  0.42010000  1
  N  N309  1  0.69850000  0.37900000  0.28440000  1
  N  N310  1  0.70040000  0.33720000  0.60160000  1
  N  N311  1  0.71000000  0.86080000  0.05630000  1
  N  N312  1  0.71660000  0.96860000  0.02330000  1
  N  N313  1  0.72160000  0.55860000  0.72670000  1
  N  N314  1  0.74800000  0.03140000  0.47670000  1
  N  N315  1  0.80680000  0.28800000  0.32930000  1
  N  N316  1  0.83700000  0.55860000  0.22670000  1
  N  N317  1  0.83770000  0.76860000  0.35620000  1
  N  N318  1  0.84920000  0.13920000  0.44370000  1
  N  N319  1  0.91770000  0.88420000  0.44820000  1
  N  N320  1  0.93090000  0.76860000  0.85620000  1
  N  N321  1  0.95650000  0.52620000  0.18760000  1
  N  N322  1  0.96650000  0.88420000  0.94820000  1
  N  N323  1  0.99660000  0.36280000  0.75240000  1
