# generated using pymatgen
data_Cd3H10C8(N9Cl)2
_symmetry_space_group_name_H-M   'P 1'
_cell_length_a   9.95700000
_cell_length_b   16.02145631
_cell_length_c   16.02145631
_cell_angle_alpha   115.82521611
_cell_angle_beta   101.95595483
_cell_angle_gamma   101.95595483
_symmetry_Int_Tables_number   1
_chemical_formula_structural   Cd3H10C8(N9Cl)2
_chemical_formula_sum   'Cd9 H30 C24 N54 Cl6'
_cell_volume   2118.42730307
_cell_formula_units_Z   3
loop_
 _symmetry_equiv_pos_site_id
 _symmetry_equiv_pos_as_xyz
  1  'x, y, z'
loop_
 _atom_site_type_symbol
 _atom_site_label
 _atom_site_symmetry_multiplicity
 _atom_site_fract_x
 _atom_site_fract_y
 _atom_site_fract_z
 _atom_site_occupancy
  C  C0  1  0.32342000  0.65734000  0.49482000  1
  C  C1  1  0.66608000  0.83748000  0.34266000  1
  C  C2  1  0.37138000  0.92426000  0.26728000  1
  C  C3  1  0.25616000  0.65748000  0.56890000  1
  C  C4  1  0.28505000  0.91467000  0.32958000  1
  C  C5  1  0.59868000  0.91142000  0.34252000  1
  C  C6  1  0.95547000  0.67042000  0.58509000  1
  C  C7  1  0.17140000  0.49482000  0.83748000  1
  C  C8  1  0.10410000  0.73272000  0.65698000  1
  C  C9  1  0.44712000  0.34302000  0.07574000  1
  C  C10  1  0.31274000  0.56890000  0.91142000  1
  C  C11  1  0.62962000  0.58509000  0.91467000  1
  C  C12  1  0.37038000  0.41491000  0.08533000  1
  C  C13  1  0.68726000  0.43110000  0.08858000  1
  C  C14  1  0.55288000  0.65698000  0.92426000  1
  C  C15  1  0.89590000  0.26728000  0.34302000  1
  C  C16  1  0.82860000  0.50518000  0.16252000  1
  C  C17  1  0.04453000  0.32958000  0.41491000  1
  C  C18  1  0.40132000  0.08858000  0.65748000  1
  C  C19  1  0.71495000  0.08533000  0.67042000  1
  C  C20  1  0.74384000  0.34252000  0.43110000  1
  C  C21  1  0.62862000  0.07574000  0.73272000  1
  C  C22  1  0.33392000  0.16252000  0.65734000  1
  C  C23  1  0.67658000  0.34266000  0.50518000  1
  Cd  Cd24  1  0.50000000  0.50000000  0.50000000  1
  Cd  Cd25  1  0.67461667  0.29387000  0.75209000  1
  Cd  Cd26  1  0.38075000  0.45822333  0.70613667  1
  Cd  Cd27  1  0.07747333  0.75208667  0.45822333  1
  Cd  Cd28  1  1.00000000  0.00000000  0.50000000  1
  Cd  Cd29  1  1.00000000  0.50000000  0.00000000  1
  Cd  Cd30  1  0.92252667  0.24791333  0.54177667  1
  Cd  Cd31  1  0.61925000  0.54177333  0.29386667  1
  Cd  Cd32  1  0.32538667  0.70613667  0.24791333  1
  Cl  Cl33  1  0.84703000  0.31272000  0.91112000  1
  Cl  Cl34  1  0.53431000  0.59840000  0.68728000  1
  Cl  Cl35  1  0.93591000  0.08888000  0.40160000  1
  Cl  Cl36  1  0.06409000  0.91112000  0.59840000  1
  Cl  Cl37  1  0.46569000  0.40160000  0.31272000  1
  Cl  Cl38  1  0.15297000  0.68728000  0.08888000  1
  H  H39  1  0.47810000  0.84810000  0.19320000  1
  H  H40  1  0.30660000  0.90440000  0.20260000  1
  H  H41  1  0.17540000  0.59660000  0.53990000  1
  H  H42  1  0.32730000  0.66260000  0.62390000  1
  H  H43  1  0.43290000  0.99240000  0.29700000  1
  H  H44  1  0.66470000  0.96130000  0.33740000  1
  H  H45  1  0.44050000  0.30460000  0.00760000  1
  H  H46  1  0.57880000  0.94330000  0.40340000  1
  H  H47  1  0.40220000  0.29820000  0.09560000  1
  H  H48  1  0.13590000  0.70300000  0.69540000  1
  H  H49  1  0.70340000  0.37610000  0.03870000  1
  H  H50  1  0.28490000  0.80680000  0.65490000  1
  H  H51  1  0.36450000  0.53990000  0.94330000  1
  H  H52  1  0.63000000  0.34510000  0.15190000  1
  H  H53  1  0.10400000  0.79740000  0.70180000  1
  H  H54  1  0.89600000  0.20260000  0.29820000  1
  H  H55  1  0.37000000  0.65490000  0.84810000  1
  H  H56  1  0.63550000  0.46010000  0.05670000  1
  H  H57  1  0.71510000  0.19320000  0.34510000  1
  H  H58  1  0.29660000  0.62390000  0.96130000  1
  H  H59  1  0.86410000  0.29700000  0.30460000  1
  H  H60  1  0.59780000  0.70180000  0.90440000  1
  H  H61  1  0.42120000  0.05670000  0.59660000  1
  H  H62  1  0.55950000  0.69540000  0.99240000  1
  H  H63  1  0.33530000  0.03870000  0.66260000  1
  H  H64  1  0.56710000  0.00760000  0.70300000  1
  H  H65  1  0.67270000  0.33740000  0.37610000  1
  H  H66  1  0.82460000  0.40340000  0.46010000  1
  H  H67  1  0.69340000  0.09560000  0.79740000  1
  H  H68  1  0.52190000  0.15190000  0.80680000  1
  N  N69  1  0.43971000  0.62523000  0.39430000  1
  N  N70  1  0.68651000  0.70204000  0.32129000  1
  N  N71  1  0.58971000  0.74326000  0.29987000  1
  N  N72  1  0.77188000  0.60175000  0.45519000  1
  N  N73  1  0.36522000  0.67871000  0.38075000  1
  N  N74  1  0.41533000  0.61043000  0.46646000  1
  N  N75  1  0.01553000  0.38075000  0.70204000  1
  N  N76  1  0.73466000  0.58143000  0.51955000  1
  N  N77  1  0.46184000  0.86137000  0.25805000  1
  N  N78  1  0.28984000  0.70013000  0.44339000  1
  N  N79  1  0.81448000  0.76907000  0.37477000  1
  N  N80  1  0.91127000  0.65756000  0.49505000  1
  N  N81  1  0.95459000  0.39430000  0.76907000  1
  N  N82  1  0.25371000  0.83749000  0.34244000  1
  N  N83  1  0.15355000  0.44339000  0.74326000  1
  N  N84  1  0.84760000  0.62334000  0.60196000  1
  N  N85  1  0.80490000  0.85603000  0.38957000  1
  N  N86  1  0.17013000  0.85344000  0.39825000  1
  N  N87  1  0.68331000  0.45519000  0.85344000  1
  N  N88  1  0.05113000  0.46646000  0.85603000  1
  N  N89  1  0.58378000  0.49505000  0.83749000  1
  N  N90  1  0.20379000  0.74195000  0.60332000  1
  N  N91  1  0.22426000  0.97862000  0.37666000  1
  N  N92  1  0.15323000  0.93812000  0.41857000  1
  N  N93  1  0.24564000  0.39804000  0.02138000  1
  N  N94  1  0.78489000  0.51955000  0.93812000  1
  N  N95  1  0.39953000  0.60332000  0.86137000  1
  N  N96  1  0.60047000  0.39668000  0.13863000  1
  N  N97  1  0.21511000  0.48045000  0.06188000  1
  N  N98  1  0.75436000  0.60196000  0.97862000  1
  N  N99  1  0.84677000  0.06188000  0.58143000  1
  N  N100  1  0.77574000  0.02138000  0.62334000  1
  N  N101  1  0.79621000  0.25805000  0.39668000  1
  N  N102  1  0.41622000  0.50495000  0.16251000  1
  N  N103  1  0.94887000  0.53354000  0.14397000  1
  N  N104  1  0.31669000  0.54481000  0.14656000  1
  N  N105  1  0.82987000  0.14656000  0.60175000  1
  N  N106  1  0.19510000  0.14397000  0.61043000  1
  N  N107  1  0.15240000  0.37666000  0.39804000  1
  N  N108  1  0.84645000  0.55661000  0.25674000  1
  N  N109  1  0.74629000  0.16251000  0.65756000  1
  N  N110  1  0.04541000  0.60570000  0.23093000  1
  N  N111  1  0.08873000  0.34244000  0.50495000  1
  N  N112  1  0.18552000  0.23093000  0.62523000  1
  N  N113  1  0.71016000  0.29987000  0.55661000  1
  N  N114  1  0.53816000  0.13863000  0.74195000  1
  N  N115  1  0.26534000  0.41857000  0.48045000  1
  N  N116  1  0.98447000  0.61925000  0.29796000  1
  N  N117  1  0.58467000  0.38957000  0.53354000  1
  N  N118  1  0.63478000  0.32129000  0.61925000  1
  N  N119  1  0.22812000  0.39825000  0.54481000  1
  N  N120  1  0.41029000  0.25674000  0.70013000  1
  N  N121  1  0.31349000  0.29796000  0.67871000  1
  N  N122  1  0.56029000  0.37477000  0.60570000  1
