# generated using pymatgen
data_V2P2H7C3O7
_symmetry_space_group_name_H-M   'P 1'
_cell_length_a   9.26789553
_cell_length_b   9.26789553
_cell_length_c   18.78130000
_cell_angle_alpha   77.93666845
_cell_angle_beta   77.93666845
_cell_angle_gamma   65.91734646
_symmetry_Int_Tables_number   1
_chemical_formula_structural   V2P2H7C3O7
_chemical_formula_sum   'V8 P8 H28 C12 O28'
_cell_volume   1426.36511269
_cell_formula_units_Z   4
loop_
 _symmetry_equiv_pos_site_id
 _symmetry_equiv_pos_as_xyz
  1  'x, y, z'
loop_
 _atom_site_type_symbol
 _atom_site_label
 _atom_site_symmetry_multiplicity
 _atom_site_fract_x
 _atom_site_fract_y
 _atom_site_fract_z
 _atom_site_occupancy
  C  C0  1  0.17240000  0.86220000  0.62271000  1
  C  C1  1  0.86220000  0.17240000  0.12271000  1
  C  C2  1  0.31212000  0.80812000  0.86848000  1
  C  C3  1  0.80812000  0.31212000  0.36848000  1
  C  C4  1  0.33668000  0.87430000  0.60851000  1
  C  C5  1  0.87430000  0.33668000  0.10851000  1
  C  C6  1  0.66332000  0.12570000  0.39149000  1
  C  C7  1  0.12570000  0.66332000  0.89149000  1
  C  C8  1  0.68788000  0.19188000  0.13152000  1
  C  C9  1  0.19188000  0.68788000  0.63152000  1
  C  C10  1  0.82760000  0.13780000  0.37729000  1
  C  C11  1  0.13780000  0.82760000  0.87729000  1
  H  H12  1  0.11060000  0.90860000  0.66790000  1
  H  H13  1  0.90860000  0.11060000  0.16790000  1
  H  H14  1  0.11270000  0.92370000  0.58110000  1
  H  H15  1  0.92370000  0.11270000  0.08110000  1
  H  H16  1  0.37460000  0.73440000  0.83190000  1
  H  H17  1  0.73440000  0.37460000  0.33190000  1
  H  H18  1  0.35280000  0.75700000  0.91600000  1
  H  H19  1  0.75700000  0.35280000  0.41600000  1
  H  H20  1  0.40520000  0.80780000  0.57000000  1
  H  H21  1  0.80780000  0.40520000  0.07000000  1
  H  H22  1  0.38680000  0.83000000  0.65400000  1
  H  H23  1  0.83000000  0.38680000  0.15400000  1
  H  H24  1  0.42600000  0.02800000  0.29970000  1
  H  H25  1  0.02800000  0.42600000  0.79970000  1
  H  H26  1  0.57400000  0.97200000  0.70030000  1
  H  H27  1  0.97200000  0.57400000  0.20030000  1
  H  H28  1  0.61320000  0.17000000  0.34600000  1
  H  H29  1  0.17000000  0.61320000  0.84600000  1
  H  H30  1  0.59480000  0.19220000  0.43000000  1
  H  H31  1  0.19220000  0.59480000  0.93000000  1
  H  H32  1  0.64720000  0.24300000  0.08400000  1
  H  H33  1  0.24300000  0.64720000  0.58400000  1
  H  H34  1  0.62540000  0.26560000  0.16810000  1
  H  H35  1  0.26560000  0.62540000  0.66810000  1
  H  H36  1  0.88730000  0.07630000  0.41890000  1
  H  H37  1  0.07630000  0.88730000  0.91890000  1
  H  H38  1  0.88940000  0.09140000  0.33210000  1
  H  H39  1  0.09140000  0.88940000  0.83210000  1
  O  O40  1  0.29064000  0.05958000  0.76550000  1
  O  O41  1  0.05958000  0.29064000  0.26550000  1
  O  O42  1  0.26464000  0.10188000  0.89774000  1
  O  O43  1  0.10188000  0.26464000  0.39774000  1
  O  O44  1  0.20683000  0.18261000  0.63413000  1
  O  O45  1  0.18261000  0.20683000  0.13413000  1
  O  O46  1  0.26896000  0.13596000  0.50539000  1
  O  O47  1  0.13596000  0.26896000  0.00539000  1
  O  O48  1  0.50556000  0.92712000  0.42164000  1
  O  O49  1  0.92712000  0.50556000  0.92164000  1
  O  O50  1  0.34893000  0.08389000  0.30745000  1
  O  O51  1  0.08389000  0.34893000  0.80745000  1
  O  O52  1  0.52887000  0.94203000  0.83479000  1
  O  O53  1  0.94203000  0.52887000  0.33479000  1
  O  O54  1  0.47113000  0.05797000  0.16521000  1
  O  O55  1  0.05797000  0.47113000  0.66521000  1
  O  O56  1  0.65107000  0.91611000  0.69255000  1
  O  O57  1  0.91611000  0.65107000  0.19255000  1
  O  O58  1  0.49444000  0.07288000  0.57836000  1
  O  O59  1  0.07288000  0.49444000  0.07836000  1
  O  O60  1  0.73104000  0.86404000  0.49461000  1
  O  O61  1  0.86404000  0.73104000  0.99461000  1
  O  O62  1  0.79317000  0.81739000  0.36587000  1
  O  O63  1  0.81739000  0.79317000  0.86587000  1
  O  O64  1  0.73536000  0.89812000  0.10226000  1
  O  O65  1  0.89812000  0.73536000  0.60226000  1
  O  O66  1  0.70936000  0.94042000  0.23450000  1
  O  O67  1  0.94042000  0.70936000  0.73450000  1
  P  P68  1  0.34890000  0.98820000  0.84034000  1
  P  P69  1  0.98820000  0.34890000  0.34034000  1
  P  P70  1  0.32972000  0.07330000  0.58018000  1
  P  P71  1  0.07330000  0.32972000  0.08018000  1
  P  P72  1  0.67028000  0.92670000  0.41982000  1
  P  P73  1  0.92670000  0.67028000  0.91982000  1
  P  P74  1  0.65110000  0.01180000  0.15966000  1
  P  P75  1  0.01180000  0.65110000  0.65966000  1
  V  V76  1  0.27882000  0.05916000  0.41430000  1
  V  V77  1  0.05916000  0.27882000  0.91430000  1
  V  V78  1  0.27990000  0.21866000  0.21512000  1
  V  V79  1  0.21866000  0.27990000  0.71512000  1
  V  V80  1  0.72010000  0.78134000  0.78488000  1
  V  V81  1  0.78134000  0.72010000  0.28488000  1
  V  V82  1  0.72118000  0.94084000  0.58570000  1
  V  V83  1  0.94084000  0.72118000  0.08570000  1
