# generated using pymatgen
data_Co2H39C63(N2O)6
_symmetry_space_group_name_H-M   'P 1'
_cell_length_a   13.92800000
_cell_length_b   17.03300000
_cell_length_c   17.03300000
_cell_angle_alpha   120.00000000
_cell_angle_beta   90.00000000
_cell_angle_gamma   90.00000000
_symmetry_Int_Tables_number   1
_chemical_formula_structural   Co2H39C63(N2O)6
_chemical_formula_sum   'Co4 H78 C126 N24 O12'
_cell_volume   3499.46522868
_cell_formula_units_Z   2
loop_
 _symmetry_equiv_pos_site_id
 _symmetry_equiv_pos_as_xyz
  1  'x, y, z'
loop_
 _atom_site_type_symbol
 _atom_site_label
 _atom_site_symmetry_multiplicity
 _atom_site_fract_x
 _atom_site_fract_y
 _atom_site_fract_z
 _atom_site_occupancy
  Co  Co0  1  0.49672000  0.66666667  0.33333333  1
  Co  Co1  1  0.20180000  0.66666667  0.33333333  1
  Co  Co2  1  0.99672000  0.33333333  0.66666667  1
  Co  Co3  1  0.70180000  0.33333333  0.66666667  1
  H  H4  1  0.63260000  0.99900000  0.23210000  1
  H  H5  1  0.51500000  0.99560000  0.32310000  1
  H  H6  1  0.04580000  0.98640000  0.75850000  1
  H  H7  1  0.16070000  0.96910000  0.64840000  1
  H  H8  1  0.21140000  0.93760000  0.50950000  1
  H  H9  1  0.48490000  0.93030000  0.42900000  1
  H  H10  1  0.42780000  0.89610000  0.70650000  1
  H  H11  1  0.22070000  0.87580000  0.15660000  1
  H  H12  1  0.22070000  0.84340000  0.71920000  1
  H  H13  1  0.84660000  0.83090000  0.42250000  1
  H  H14  1  0.42780000  0.81040000  0.10390000  1
  H  H15  1  0.46450000  0.79600000  0.22970000  1
  H  H16  1  0.68150000  0.78950000  0.35960000  1
  H  H17  1  0.25830000  0.78350000  0.22190000  1
  H  H18  1  0.00890000  0.78260000  0.41180000  1
  H  H19  1  0.25830000  0.77810000  0.56160000  1
  H  H20  1  0.04580000  0.77210000  0.01360000  1
  H  H21  1  0.46450000  0.77030000  0.56630000  1
  H  H22  1  0.63260000  0.76790000  0.76690000  1
  H  H23  1  0.13260000  0.76690000  0.76790000  1
  H  H24  1  0.54580000  0.75850000  0.98640000  1
  H  H25  1  0.72070000  0.71920000  0.84340000  1
  H  H26  1  0.92780000  0.70650000  0.89610000  1
  H  H27  1  0.16070000  0.67930000  0.03090000  1
  H  H28  1  0.51500000  0.67690000  0.67250000  1
  H  H29  1  0.01500000  0.67250000  0.67690000  1
  H  H30  1  0.66070000  0.64840000  0.96910000  1
  H  H31  1  0.68150000  0.64040000  0.42990000  1
  H  H32  1  0.00890000  0.62920000  0.21740000  1
  H  H33  1  0.84660000  0.59160000  0.16910000  1
  H  H34  1  0.00890000  0.58820000  0.37080000  1
  H  H35  1  0.84660000  0.57750000  0.40840000  1
  H  H36  1  0.21140000  0.57190000  0.06240000  1
  H  H37  1  0.48490000  0.57100000  0.50130000  1
  H  H38  1  0.68150000  0.57010000  0.21050000  1
  H  H39  1  0.96450000  0.56630000  0.77030000  1
  H  H40  1  0.75830000  0.56160000  0.77810000  1
  H  H41  1  0.71140000  0.50950000  0.93760000  1
  H  H42  1  0.98490000  0.50130000  0.57100000  1
  H  H43  1  0.48490000  0.49870000  0.06970000  1
  H  H44  1  0.21140000  0.49050000  0.42810000  1
  H  H45  1  0.25830000  0.43840000  0.21650000  1
  H  H46  1  0.46450000  0.43370000  0.20400000  1
  H  H47  1  0.18150000  0.42990000  0.64040000  1
  H  H48  1  0.98490000  0.42900000  0.93030000  1
  H  H49  1  0.71140000  0.42810000  0.49050000  1
  H  H50  1  0.34660000  0.42250000  0.83090000  1
  H  H51  1  0.50890000  0.41180000  0.78260000  1
  H  H52  1  0.34660000  0.40840000  0.57750000  1
  H  H53  1  0.50890000  0.37080000  0.58820000  1
  H  H54  1  0.18150000  0.35960000  0.78950000  1
  H  H55  1  0.16070000  0.35160000  0.32070000  1
  H  H56  1  0.51500000  0.32750000  0.00440000  1
  H  H57  1  0.01500000  0.32310000  0.99560000  1
  H  H58  1  0.66070000  0.32070000  0.35160000  1
  H  H59  1  0.42780000  0.29350000  0.18960000  1
  H  H60  1  0.22070000  0.28080000  0.12420000  1
  H  H61  1  0.04580000  0.24150000  0.22790000  1
  H  H62  1  0.63260000  0.23310000  0.00100000  1
  H  H63  1  0.13260000  0.23210000  0.99900000  1
  H  H64  1  0.96450000  0.22970000  0.79600000  1
  H  H65  1  0.54580000  0.22790000  0.24150000  1
  H  H66  1  0.75830000  0.22190000  0.78350000  1
  H  H67  1  0.50890000  0.21740000  0.62920000  1
  H  H68  1  0.75830000  0.21650000  0.43840000  1
  H  H69  1  0.18150000  0.21050000  0.57010000  1
  H  H70  1  0.96450000  0.20400000  0.43370000  1
  H  H71  1  0.92780000  0.18960000  0.29350000  1
  H  H72  1  0.34660000  0.16910000  0.59160000  1
  H  H73  1  0.72070000  0.15660000  0.87580000  1
  H  H74  1  0.72070000  0.12420000  0.28080000  1
  H  H75  1  0.92780000  0.10390000  0.81040000  1
  H  H76  1  0.98490000  0.06970000  0.49870000  1
  H  H77  1  0.71140000  0.06240000  0.57190000  1
  H  H78  1  0.66070000  0.03090000  0.67930000  1
  H  H79  1  0.54580000  0.01360000  0.77210000  1
  H  H80  1  0.01500000  0.00440000  0.32750000  1
  H  H81  1  0.13260000  0.00100000  0.23310000  1
  C  C82  1  0.62110000  0.98030000  0.65750000  1
  C  C83  1  0.54950000  0.97060000  0.71080000  1
  C  C84  1  0.26640000  0.96800000  0.50840000  1
  C  C85  1  0.42990000  0.96240000  0.45870000  1
  C  C86  1  0.06370000  0.96130000  0.30790000  1
  C  C87  1  0.12880000  0.95530000  0.24780000  1
  C  C88  1  0.76970000  0.94160000  0.49560000  1
  C  C89  1  0.93010000  0.94090000  0.44710000  1
  C  C90  1  0.34980000  0.91810000  0.45730000  1
  C  C91  1  0.06990000  0.90800000  0.33670000  1
  C  C92  1  0.62770000  0.90020000  0.56100000  1
  C  C93  1  0.48110000  0.89580000  0.67350000  1
  C  C94  1  0.84690000  0.89380000  0.45080000  1
  C  C95  1  0.18850000  0.88500000  0.20830000  1
  C  C96  1  0.13420000  0.83240000  0.29890000  1
  C  C97  1  0.56480000  0.82950000  0.52810000  1
  C  C98  1  0.49850000  0.82400000  0.58630000  1
  C  C99  1  0.20670000  0.82330000  0.23890000  1
  C  C100  1  0.34560000  0.81580000  0.40730000  1
  C  C101  1  0.65660000  0.81180000  0.41760000  1
  C  C102  1  0.04100000  0.81000000  0.38400000  1
  C  C103  1  0.18850000  0.79170000  0.67670000  1
  C  C104  1  0.48110000  0.77770000  0.10420000  1
  C  C105  1  0.49850000  0.76230000  0.17600000  1
  C  C106  1  0.20670000  0.76110000  0.58440000  1
  C  C107  1  0.12880000  0.75220000  0.70750000  1
  C  C108  1  0.54950000  0.74020000  0.02940000  1
  C  C109  1  0.04950000  0.71080000  0.97060000  1
  C  C110  1  0.62880000  0.70750000  0.75220000  1
  C  C111  1  0.13420000  0.70110000  0.53350000  1
  C  C112  1  0.56480000  0.69860000  0.17050000  1
  C  C113  1  0.06370000  0.69210000  0.65340000  1
  C  C114  1  0.62110000  0.67720000  0.01970000  1
  C  C115  1  0.68850000  0.67670000  0.79170000  1
  C  C116  1  0.98110000  0.67350000  0.89580000  1
  C  C117  1  0.06990000  0.66330000  0.57130000  1
  C  C118  1  0.62770000  0.66080000  0.09980000  1
  C  C119  1  0.12110000  0.65750000  0.98030000  1
  C  C120  1  0.56370000  0.65340000  0.69210000  1
  C  C121  1  0.04100000  0.61600000  0.42600000  1
  C  C122  1  0.65660000  0.60580000  0.18820000  1
  C  C123  1  0.34560000  0.59270000  0.40850000  1
  C  C124  1  0.34560000  0.59150000  0.18420000  1
  C  C125  1  0.99850000  0.58630000  0.82400000  1
  C  C126  1  0.70670000  0.58440000  0.76110000  1
  C  C127  1  0.65660000  0.58240000  0.39420000  1
  C  C128  1  0.04100000  0.57400000  0.19000000  1
  C  C129  1  0.56990000  0.57130000  0.66330000  1
  C  C130  1  0.12770000  0.56100000  0.90020000  1
  C  C131  1  0.84690000  0.55700000  0.10620000  1
  C  C132  1  0.76970000  0.55400000  0.05840000  1
  C  C133  1  0.93010000  0.55290000  0.49380000  1
  C  C134  1  0.84690000  0.54920000  0.44300000  1
  C  C135  1  0.34980000  0.54270000  0.46080000  1
  C  C136  1  0.42990000  0.54130000  0.50370000  1
  C  C137  1  0.26640000  0.54040000  0.03200000  1
  C  C138  1  0.34980000  0.53920000  0.08190000  1
  C  C139  1  0.63420000  0.53350000  0.70110000  1
  C  C140  1  0.06480000  0.52810000  0.82950000  1
  C  C141  1  0.76640000  0.50840000  0.96800000  1
  C  C142  1  0.93010000  0.50620000  0.05910000  1
  C  C143  1  0.76970000  0.50440000  0.44600000  1
  C  C144  1  0.92990000  0.50370000  0.54130000  1
  C  C145  1  0.42990000  0.49630000  0.03760000  1
  C  C146  1  0.26970000  0.49560000  0.94160000  1
  C  C147  1  0.43010000  0.49380000  0.55290000  1
  C  C148  1  0.26640000  0.49160000  0.45960000  1
  C  C149  1  0.56480000  0.47190000  0.30140000  1
  C  C150  1  0.13420000  0.46650000  0.16760000  1
  C  C151  1  0.84980000  0.46080000  0.54270000  1
  C  C152  1  0.76640000  0.45960000  0.49160000  1
  C  C153  1  0.92990000  0.45870000  0.96240000  1
  C  C154  1  0.84980000  0.45730000  0.91810000  1
  C  C155  1  0.34690000  0.45080000  0.89380000  1
  C  C156  1  0.43010000  0.44710000  0.94090000  1
  C  C157  1  0.26970000  0.44600000  0.50440000  1
  C  C158  1  0.34690000  0.44300000  0.54920000  1
  C  C159  1  0.62770000  0.43900000  0.33920000  1
  C  C160  1  0.06990000  0.42870000  0.09200000  1
  C  C161  1  0.54100000  0.42600000  0.61600000  1
  C  C162  1  0.15660000  0.41760000  0.81180000  1
  C  C163  1  0.20670000  0.41560000  0.17670000  1
  C  C164  1  0.49850000  0.41370000  0.23770000  1
  C  C165  1  0.84560000  0.40850000  0.59270000  1
  C  C166  1  0.84560000  0.40730000  0.81580000  1
  C  C167  1  0.15660000  0.39420000  0.58240000  1
  C  C168  1  0.54100000  0.38400000  0.81000000  1
  C  C169  1  0.06370000  0.34660000  0.03870000  1
  C  C170  1  0.62110000  0.34250000  0.32280000  1
  C  C171  1  0.12770000  0.33920000  0.43900000  1
  C  C172  1  0.56990000  0.33670000  0.90800000  1
  C  C173  1  0.48110000  0.32650000  0.22230000  1
  C  C174  1  0.18850000  0.32330000  0.11500000  1
  C  C175  1  0.12110000  0.32280000  0.34250000  1
  C  C176  1  0.56370000  0.30790000  0.96130000  1
  C  C177  1  0.06480000  0.30140000  0.47190000  1
  C  C178  1  0.63420000  0.29890000  0.83240000  1
  C  C179  1  0.12880000  0.29250000  0.04470000  1
  C  C180  1  0.54950000  0.28920000  0.25980000  1
  C  C181  1  0.04950000  0.25980000  0.28920000  1
  C  C182  1  0.62880000  0.24780000  0.95530000  1
  C  C183  1  0.70670000  0.23890000  0.82330000  1
  C  C184  1  0.99850000  0.23770000  0.41370000  1
  C  C185  1  0.98110000  0.22230000  0.32650000  1
  C  C186  1  0.68850000  0.20830000  0.88500000  1
  C  C187  1  0.54100000  0.19000000  0.57400000  1
  C  C188  1  0.15660000  0.18820000  0.60580000  1
  C  C189  1  0.84560000  0.18420000  0.59150000  1
  C  C190  1  0.70670000  0.17670000  0.41560000  1
  C  C191  1  0.99850000  0.17600000  0.76230000  1
  C  C192  1  0.06480000  0.17050000  0.69860000  1
  C  C193  1  0.63420000  0.16760000  0.46650000  1
  C  C194  1  0.68850000  0.11500000  0.32330000  1
  C  C195  1  0.34690000  0.10620000  0.55700000  1
  C  C196  1  0.98110000  0.10420000  0.77770000  1
  C  C197  1  0.12770000  0.09980000  0.66080000  1
  C  C198  1  0.56990000  0.09200000  0.42870000  1
  C  C199  1  0.84980000  0.08190000  0.53920000  1
  C  C200  1  0.43010000  0.05910000  0.50620000  1
  C  C201  1  0.26970000  0.05840000  0.55400000  1
  C  C202  1  0.62880000  0.04470000  0.29250000  1
  C  C203  1  0.56370000  0.03870000  0.34660000  1
  C  C204  1  0.92990000  0.03760000  0.49630000  1
  C  C205  1  0.76640000  0.03200000  0.54040000  1
  C  C206  1  0.04950000  0.02940000  0.74020000  1
  C  C207  1  0.12110000  0.01970000  0.67720000  1
  N  N208  1  0.68640000  0.89090000  0.49310000  1
  N  N209  1  0.01140000  0.88910000  0.39440000  1
  N  N210  1  0.11430000  0.77330000  0.33490000  1
  N  N211  1  0.58500000  0.77030000  0.43980000  1
  N  N212  1  0.58500000  0.66950000  0.22970000  1
  N  N213  1  0.11430000  0.66510000  0.43840000  1
  N  N214  1  0.01140000  0.60560000  0.49470000  1
  N  N215  1  0.68640000  0.60220000  0.10910000  1
  N  N216  1  0.11430000  0.56160000  0.22670000  1
  N  N217  1  0.58500000  0.56020000  0.33050000  1
  N  N218  1  0.68640000  0.50690000  0.39780000  1
  N  N219  1  0.01140000  0.50530000  0.11090000  1
  N  N220  1  0.51140000  0.49470000  0.60560000  1
  N  N221  1  0.18640000  0.49310000  0.89090000  1
  N  N222  1  0.08500000  0.43980000  0.77030000  1
  N  N223  1  0.61430000  0.43840000  0.66510000  1
  N  N224  1  0.18640000  0.39780000  0.50690000  1
  N  N225  1  0.51140000  0.39440000  0.88910000  1
  N  N226  1  0.61430000  0.33490000  0.77330000  1
  N  N227  1  0.08500000  0.33050000  0.56020000  1
  N  N228  1  0.08500000  0.22970000  0.66950000  1
  N  N229  1  0.61430000  0.22670000  0.56160000  1
  N  N230  1  0.51140000  0.11090000  0.50530000  1
  N  N231  1  0.18640000  0.10910000  0.60220000  1
  O  O232  1  0.28180000  0.77990000  0.42440000  1
  O  O233  1  0.41990000  0.77690000  0.35380000  1
  O  O234  1  0.41990000  0.64620000  0.42310000  1
  O  O235  1  0.28180000  0.64450000  0.22010000  1
  O  O236  1  0.41990000  0.57690000  0.22310000  1
  O  O237  1  0.28180000  0.57560000  0.35550000  1
  O  O238  1  0.78180000  0.42440000  0.77990000  1
  O  O239  1  0.91990000  0.42310000  0.64620000  1
  O  O240  1  0.78180000  0.35550000  0.57560000  1
  O  O241  1  0.91990000  0.35380000  0.77690000  1
  O  O242  1  0.91990000  0.22310000  0.57690000  1
  O  O243  1  0.78180000  0.22010000  0.64450000  1
