# generated using pymatgen
data_KCd3H48C72(NO2)6
_symmetry_space_group_name_H-M   'P 1'
_cell_length_a   18.00700000
_cell_length_b   18.00700000
_cell_length_c   19.28800000
_cell_angle_alpha   90.00000000
_cell_angle_beta   90.00000000
_cell_angle_gamma   120.00000000
_symmetry_Int_Tables_number   1
_chemical_formula_structural   KCd3H48C72(NO2)6
_chemical_formula_sum   'K2 Cd6 H96 C144 N12 O24'
_cell_volume   5416.27314896
_cell_formula_units_Z   2
loop_
 _symmetry_equiv_pos_site_id
 _symmetry_equiv_pos_as_xyz
  1  'x, y, z'
loop_
 _atom_site_type_symbol
 _atom_site_label
 _atom_site_symmetry_multiplicity
 _atom_site_fract_x
 _atom_site_fract_y
 _atom_site_fract_z
 _atom_site_occupancy
  K  K0  1  0.66666667  0.33333333  0.25000000  1
  K  K1  1  0.33333333  0.66666667  0.75000000  1
  Cd  Cd2  1  0.79277000  0.20723000  0.25000000  1
  Cd  Cd3  1  0.79277000  0.58553000  0.25000000  1
  Cd  Cd4  1  0.58553000  0.79277000  0.75000000  1
  Cd  Cd5  1  0.41447000  0.20723000  0.25000000  1
  Cd  Cd6  1  0.20723000  0.41447000  0.75000000  1
  Cd  Cd7  1  0.20723000  0.79277000  0.75000000  1
  H  H8  1  0.97590000  0.32510000  0.02630000  1
  H  H9  1  0.97590000  0.65080000  0.47370000  1
  H  H10  1  0.96070000  0.46550000  0.66740000  1
  H  H11  1  0.96070000  0.49520000  0.83260000  1
  H  H12  1  0.94020000  0.40370000  0.23780000  1
  H  H13  1  0.94020000  0.53650000  0.26220000  1
  H  H14  1  0.92890000  0.33730000  0.46230000  1
  H  H15  1  0.92890000  0.59160000  0.03770000  1
  H  H16  1  0.87590000  0.22970000  0.10010000  1
  H  H17  1  0.87590000  0.64620000  0.39990000  1
  H  H18  1  0.87390000  0.40440000  0.90120000  1
  H  H19  1  0.87390000  0.46950000  0.59880000  1
  H  H20  1  0.77740000  0.30620000  0.97840000  1
  H  H21  1  0.77740000  0.47120000  0.52160000  1
  H  H22  1  0.77030000  0.12410000  0.39990000  1
  H  H23  1  0.77030000  0.64620000  0.10010000  1
  H  H24  1  0.75970000  0.34940000  0.08650000  1
  H  H25  1  0.75970000  0.41030000  0.41350000  1
  H  H26  1  0.69380000  0.22260000  0.52160000  1
  H  H27  1  0.69380000  0.47120000  0.97840000  1
  H  H28  1  0.67490000  0.02410000  0.47370000  1
  H  H29  1  0.67490000  0.65080000  0.02630000  1
  H  H30  1  0.66270000  0.07110000  0.03770000  1
  H  H31  1  0.66270000  0.59160000  0.46230000  1
  H  H32  1  0.65080000  0.67490000  0.52630000  1
  H  H33  1  0.65080000  0.97590000  0.97370000  1
  H  H34  1  0.65060000  0.24030000  0.41350000  1
  H  H35  1  0.65060000  0.41030000  0.08650000  1
  H  H36  1  0.64620000  0.77030000  0.60010000  1
  H  H37  1  0.64620000  0.87590000  0.89990000  1
  H  H38  1  0.59630000  0.05980000  0.26220000  1
  H  H39  1  0.59630000  0.53650000  0.23780000  1
  H  H40  1  0.59560000  0.12610000  0.59880000  1
  H  H41  1  0.59560000  0.46950000  0.90120000  1
  H  H42  1  0.59160000  0.66270000  0.96230000  1
  H  H43  1  0.59160000  0.92890000  0.53770000  1
  H  H44  1  0.58970000  0.24030000  0.08650000  1
  H  H45  1  0.58970000  0.34940000  0.41350000  1
  H  H46  1  0.53650000  0.59630000  0.73780000  1
  H  H47  1  0.53650000  0.94020000  0.76220000  1
  H  H48  1  0.53450000  0.03930000  0.83260000  1
  H  H49  1  0.53450000  0.49520000  0.66740000  1
  H  H50  1  0.53050000  0.12610000  0.90120000  1
  H  H51  1  0.53050000  0.40440000  0.59880000  1
  H  H52  1  0.52880000  0.22260000  0.97840000  1
  H  H53  1  0.52880000  0.30620000  0.52160000  1
  H  H54  1  0.50480000  0.03930000  0.66740000  1
  H  H55  1  0.50480000  0.46550000  0.83260000  1
  H  H56  1  0.49520000  0.53450000  0.16740000  1
  H  H57  1  0.49520000  0.96070000  0.33260000  1
  H  H58  1  0.47120000  0.69380000  0.47840000  1
  H  H59  1  0.47120000  0.77740000  0.02160000  1
  H  H60  1  0.46950000  0.59560000  0.40120000  1
  H  H61  1  0.46950000  0.87390000  0.09880000  1
  H  H62  1  0.46550000  0.50480000  0.33260000  1
  H  H63  1  0.46550000  0.96070000  0.16740000  1
  H  H64  1  0.46350000  0.05980000  0.23780000  1
  H  H65  1  0.46350000  0.40370000  0.26220000  1
  H  H66  1  0.41030000  0.65060000  0.58650000  1
  H  H67  1  0.41030000  0.75970000  0.91350000  1
  H  H68  1  0.40840000  0.07110000  0.46230000  1
  H  H69  1  0.40840000  0.33730000  0.03770000  1
  H  H70  1  0.40440000  0.53050000  0.09880000  1
  H  H71  1  0.40440000  0.87390000  0.40120000  1
  H  H72  1  0.40370000  0.46350000  0.76220000  1
  H  H73  1  0.40370000  0.94020000  0.73780000  1
  H  H74  1  0.35380000  0.12410000  0.10010000  1
  H  H75  1  0.35380000  0.22970000  0.39990000  1
  H  H76  1  0.34940000  0.58970000  0.91350000  1
  H  H77  1  0.34940000  0.75970000  0.58650000  1
  H  H78  1  0.34920000  0.02410000  0.02630000  1
  H  H79  1  0.34920000  0.32510000  0.47370000  1
  H  H80  1  0.33730000  0.40840000  0.53770000  1
  H  H81  1  0.33730000  0.92890000  0.96230000  1
  H  H82  1  0.32510000  0.34920000  0.97370000  1
  H  H83  1  0.32510000  0.97590000  0.52630000  1
  H  H84  1  0.30620000  0.52880000  0.02160000  1
  H  H85  1  0.30620000  0.77740000  0.47840000  1
  H  H86  1  0.24030000  0.58970000  0.58650000  1
  H  H87  1  0.24030000  0.65060000  0.91350000  1
  H  H88  1  0.22970000  0.35380000  0.89990000  1
  H  H89  1  0.22970000  0.87590000  0.60010000  1
  H  H90  1  0.22260000  0.52880000  0.47840000  1
  H  H91  1  0.22260000  0.69380000  0.02160000  1
  H  H92  1  0.12610000  0.53050000  0.40120000  1
  H  H93  1  0.12610000  0.59560000  0.09880000  1
  H  H94  1  0.12410000  0.35380000  0.60010000  1
  H  H95  1  0.12410000  0.77030000  0.89990000  1
  H  H96  1  0.07110000  0.40840000  0.96230000  1
  H  H97  1  0.07110000  0.66270000  0.53770000  1
  H  H98  1  0.05980000  0.46350000  0.73780000  1
  H  H99  1  0.05980000  0.59630000  0.76220000  1
  H  H100  1  0.03930000  0.50480000  0.16740000  1
  H  H101  1  0.03930000  0.53450000  0.33260000  1
  H  H102  1  0.02410000  0.34920000  0.52630000  1
  H  H103  1  0.02410000  0.67490000  0.97370000  1
  C  C104  1  0.99190000  0.44020000  0.65200000  1
  C  C105  1  0.99190000  0.55170000  0.84800000  1
  C  C106  1  0.97680000  0.40390000  0.58750000  1
  C  C107  1  0.97680000  0.57290000  0.91250000  1
  C  C108  1  0.97070000  0.34370000  0.07010000  1
  C  C109  1  0.97070000  0.62700000  0.42990000  1
  C  C110  1  0.94730000  0.38670000  0.19390000  1
  C  C111  1  0.94730000  0.56060000  0.30610000  1
  C  C112  1  0.91240000  0.40350000  0.53920000  1
  C  C113  1  0.91240000  0.50890000  0.96080000  1
  C  C114  1  0.91020000  0.28590000  0.11490000  1
  C  C115  1  0.91020000  0.62430000  0.38510000  1
  C  C116  1  0.89860000  0.36470000  0.47460000  1
  C  C117  1  0.89860000  0.53390000  0.02540000  1
  C  C118  1  0.86610000  0.42280000  0.94420000  1
  C  C119  1  0.86610000  0.44330000  0.55580000  1
  C  C120  1  0.84060000  0.36580000  0.42800000  1
  C  C121  1  0.84060000  0.47480000  0.07200000  1
  C  C122  1  0.82560000  0.32020000  0.35920000  1
  C  C123  1  0.82560000  0.50540000  0.14080000  1
  C  C124  1  0.80860000  0.36390000  0.99060000  1
  C  C125  1  0.80860000  0.44470000  0.50940000  1
  C  C126  1  0.79710000  0.38970000  0.05480000  1
  C  C127  1  0.79710000  0.40740000  0.44520000  1
  C  C128  1  0.71410000  0.08980000  0.38510000  1
  C  C129  1  0.71410000  0.62430000  0.11490000  1
  C  C130  1  0.67980000  0.17440000  0.14080000  1
  C  C131  1  0.67980000  0.50540000  0.35920000  1
  C  C132  1  0.65630000  0.02930000  0.42990000  1
  C  C133  1  0.65630000  0.62700000  0.07010000  1
  C  C134  1  0.63610000  0.19140000  0.50940000  1
  C  C135  1  0.63610000  0.44470000  0.99060000  1
  C  C136  1  0.63530000  0.10140000  0.02540000  1
  C  C137  1  0.63530000  0.53390000  0.47460000  1
  C  C138  1  0.63420000  0.15940000  0.07200000  1
  C  C139  1  0.63420000  0.47480000  0.42800000  1
  C  C140  1  0.62700000  0.65630000  0.57010000  1
  C  C141  1  0.62700000  0.97070000  0.92990000  1
  C  C142  1  0.62430000  0.71410000  0.61490000  1
  C  C143  1  0.62430000  0.91020000  0.88510000  1
  C  C144  1  0.61330000  0.05270000  0.30610000  1
  C  C145  1  0.61330000  0.56060000  0.19390000  1
  C  C146  1  0.61030000  0.20290000  0.44520000  1
  C  C147  1  0.61030000  0.40740000  0.05480000  1
  C  C148  1  0.59650000  0.08760000  0.96080000  1
  C  C149  1  0.59650000  0.50890000  0.53920000  1
  C  C150  1  0.59610000  0.02320000  0.91250000  1
  C  C151  1  0.59610000  0.57290000  0.58750000  1
  C  C152  1  0.59260000  0.20290000  0.05480000  1
  C  C153  1  0.59260000  0.38970000  0.44520000  1
  C  C154  1  0.57720000  0.13390000  0.55580000  1
  C  C155  1  0.57720000  0.44330000  0.94420000  1
  C  C156  1  0.57290000  0.59610000  0.08750000  1
  C  C157  1  0.57290000  0.97680000  0.41250000  1
  C  C158  1  0.56060000  0.61330000  0.69390000  1
  C  C159  1  0.56060000  0.94730000  0.80610000  1
  C  C160  1  0.55980000  0.00810000  0.84800000  1
  C  C161  1  0.55980000  0.55170000  0.65200000  1
  C  C162  1  0.55670000  0.13390000  0.94420000  1
  C  C163  1  0.55670000  0.42280000  0.55580000  1
  C  C164  1  0.55530000  0.19140000  0.99060000  1
  C  C165  1  0.55530000  0.36390000  0.50940000  1
  C  C166  1  0.55170000  0.55980000  0.15200000  1
  C  C167  1  0.55170000  0.99190000  0.34800000  1
  C  C168  1  0.53390000  0.63530000  0.97460000  1
  C  C169  1  0.53390000  0.89860000  0.52540000  1
  C  C170  1  0.52520000  0.15940000  0.42800000  1
  C  C171  1  0.52520000  0.36580000  0.07200000  1
  C  C172  1  0.50890000  0.59650000  0.03920000  1
  C  C173  1  0.50890000  0.91240000  0.46080000  1
  C  C174  1  0.50540000  0.67980000  0.85920000  1
  C  C175  1  0.50540000  0.82560000  0.64080000  1
  C  C176  1  0.49460000  0.17440000  0.35920000  1
  C  C177  1  0.49460000  0.32020000  0.14080000  1
  C  C178  1  0.49110000  0.08760000  0.53920000  1
  C  C179  1  0.49110000  0.40350000  0.96080000  1
  C  C180  1  0.47480000  0.63420000  0.92800000  1
  C  C181  1  0.47480000  0.84060000  0.57200000  1
  C  C182  1  0.46610000  0.10140000  0.47460000  1
  C  C183  1  0.46610000  0.36470000  0.02540000  1
  C  C184  1  0.44830000  0.00810000  0.65200000  1
  C  C185  1  0.44830000  0.44020000  0.84800000  1
  C  C186  1  0.44470000  0.63610000  0.49060000  1
  C  C187  1  0.44470000  0.80860000  0.00940000  1
  C  C188  1  0.44330000  0.57720000  0.44420000  1
  C  C189  1  0.44330000  0.86610000  0.05580000  1
  C  C190  1  0.44020000  0.44830000  0.34800000  1
  C  C191  1  0.44020000  0.99190000  0.15200000  1
  C  C192  1  0.43940000  0.05270000  0.19390000  1
  C  C193  1  0.43940000  0.38670000  0.30610000  1
  C  C194  1  0.42710000  0.02320000  0.58750000  1
  C  C195  1  0.42710000  0.40390000  0.91250000  1
  C  C196  1  0.42280000  0.55670000  0.05580000  1
  C  C197  1  0.42280000  0.86610000  0.44420000  1
  C  C198  1  0.40740000  0.61030000  0.55480000  1
  C  C199  1  0.40740000  0.79710000  0.94520000  1
  C  C200  1  0.40390000  0.42710000  0.41250000  1
  C  C201  1  0.40390000  0.97680000  0.08750000  1
  C  C202  1  0.40350000  0.49110000  0.46080000  1
  C  C203  1  0.40350000  0.91240000  0.03920000  1
  C  C204  1  0.38970000  0.59260000  0.94520000  1
  C  C205  1  0.38970000  0.79710000  0.55480000  1
  C  C206  1  0.38670000  0.43940000  0.80610000  1
  C  C207  1  0.38670000  0.94730000  0.69390000  1
  C  C208  1  0.37570000  0.08980000  0.11490000  1
  C  C209  1  0.37570000  0.28590000  0.38510000  1
  C  C210  1  0.37300000  0.02930000  0.07010000  1
  C  C211  1  0.37300000  0.34370000  0.42990000  1
  C  C212  1  0.36580000  0.52520000  0.57200000  1
  C  C213  1  0.36580000  0.84060000  0.92800000  1
  C  C214  1  0.36470000  0.46610000  0.52540000  1
  C  C215  1  0.36470000  0.89860000  0.97460000  1
  C  C216  1  0.36390000  0.55530000  0.00940000  1
  C  C217  1  0.36390000  0.80860000  0.49060000  1
  C  C218  1  0.34370000  0.37300000  0.92990000  1
  C  C219  1  0.34370000  0.97070000  0.57010000  1
  C  C220  1  0.32020000  0.49460000  0.64080000  1
  C  C221  1  0.32020000  0.82560000  0.85920000  1
  C  C222  1  0.28590000  0.37570000  0.88510000  1
  C  C223  1  0.28590000  0.91020000  0.61490000  1
  C  C224  1  0.20290000  0.59260000  0.55480000  1
  C  C225  1  0.20290000  0.61030000  0.94520000  1
  C  C226  1  0.19140000  0.55530000  0.49060000  1
  C  C227  1  0.19140000  0.63610000  0.00940000  1
  C  C228  1  0.17440000  0.49460000  0.85920000  1
  C  C229  1  0.17440000  0.67980000  0.64080000  1
  C  C230  1  0.15940000  0.52520000  0.92800000  1
  C  C231  1  0.15940000  0.63420000  0.57200000  1
  C  C232  1  0.13390000  0.55670000  0.44420000  1
  C  C233  1  0.13390000  0.57720000  0.05580000  1
  C  C234  1  0.10140000  0.46610000  0.97460000  1
  C  C235  1  0.10140000  0.63530000  0.52540000  1
  C  C236  1  0.08980000  0.37570000  0.61490000  1
  C  C237  1  0.08980000  0.71410000  0.88510000  1
  C  C238  1  0.08760000  0.49110000  0.03920000  1
  C  C239  1  0.08760000  0.59650000  0.46080000  1
  C  C240  1  0.05270000  0.43940000  0.69390000  1
  C  C241  1  0.05270000  0.61330000  0.80610000  1
  C  C242  1  0.02930000  0.37300000  0.57010000  1
  C  C243  1  0.02930000  0.65630000  0.92990000  1
  C  C244  1  0.02320000  0.42710000  0.08750000  1
  C  C245  1  0.02320000  0.59610000  0.41250000  1
  C  C246  1  0.00810000  0.44830000  0.15200000  1
  C  C247  1  0.00810000  0.55980000  0.34800000  1
  N  N248  1  0.89840000  0.30630000  0.17780000  1
  N  N249  1  0.89840000  0.59210000  0.32220000  1
  N  N250  1  0.69370000  0.10160000  0.32220000  1
  N  N251  1  0.69370000  0.59210000  0.17780000  1
  N  N252  1  0.59210000  0.69370000  0.67780000  1
  N  N253  1  0.59210000  0.89840000  0.82220000  1
  N  N254  1  0.40790000  0.10160000  0.17780000  1
  N  N255  1  0.40790000  0.30630000  0.32220000  1
  N  N256  1  0.30630000  0.40790000  0.82220000  1
  N  N257  1  0.30630000  0.89840000  0.67780000  1
  N  N258  1  0.10160000  0.40790000  0.67780000  1
  N  N259  1  0.10160000  0.69370000  0.82220000  1
  O  O260  1  0.86680000  0.28280000  0.34717000  1
  O  O261  1  0.86680000  0.58400000  0.15283000  1
  O  O262  1  0.77290000  0.32020000  0.31781000  1
  O  O263  1  0.77290000  0.45270000  0.18219000  1
  O  O264  1  0.71720000  0.13320000  0.15283000  1
  O  O265  1  0.71720000  0.58400000  0.34717000  1
  O  O266  1  0.67980000  0.22710000  0.18219000  1
  O  O267  1  0.67980000  0.45270000  0.31781000  1
  O  O268  1  0.58400000  0.71720000  0.84717000  1
  O  O269  1  0.58400000  0.86680000  0.65283000  1
  O  O270  1  0.54730000  0.22710000  0.31781000  1
  O  O271  1  0.54730000  0.32020000  0.18219000  1
  O  O272  1  0.45270000  0.67980000  0.81781000  1
  O  O273  1  0.45270000  0.77290000  0.68219000  1
  O  O274  1  0.41600000  0.13320000  0.34717000  1
  O  O275  1  0.41600000  0.28280000  0.15283000  1
  O  O276  1  0.32020000  0.54730000  0.68219000  1
  O  O277  1  0.32020000  0.77290000  0.81781000  1
  O  O278  1  0.28280000  0.41600000  0.65283000  1
  O  O279  1  0.28280000  0.86680000  0.84717000  1
  O  O280  1  0.22710000  0.54730000  0.81781000  1
  O  O281  1  0.22710000  0.67980000  0.68219000  1
  O  O282  1  0.13320000  0.41600000  0.84717000  1
  O  O283  1  0.13320000  0.71720000  0.65283000  1
