# generated using pymatgen
data_Zn3P4(HO3)4
_symmetry_space_group_name_H-M   'P 1'
_cell_length_a   8.32470000
_cell_length_b   9.09571355
_cell_length_c   16.07212236
_cell_angle_alpha   80.20250228
_cell_angle_beta   74.99048288
_cell_angle_gamma   62.76657886
_symmetry_Int_Tables_number   1
_chemical_formula_structural   Zn3P4(HO3)4
_chemical_formula_sum   'Zn6 P8 H8 O24'
_cell_volume   1043.25612482
_cell_formula_units_Z   2
loop_
 _symmetry_equiv_pos_site_id
 _symmetry_equiv_pos_as_xyz
  1  'x, y, z'
loop_
 _atom_site_type_symbol
 _atom_site_label
 _atom_site_symmetry_multiplicity
 _atom_site_fract_x
 _atom_site_fract_y
 _atom_site_fract_z
 _atom_site_occupancy
  H  H0  1  0.72900000  0.31200000  0.66800000  1
  H  H1  1  0.29100000  0.81200000  0.16800000  1
  H  H2  1  0.08700000  0.16200000  0.62800000  1
  H  H3  1  0.12300000  0.66200000  0.12800000  1
  H  H4  1  0.91300000  0.83800000  0.37200000  1
  H  H5  1  0.87700000  0.33800000  0.87200000  1
  H  H6  1  0.27100000  0.68800000  0.33200000  1
  H  H7  1  0.70900000  0.18800000  0.83200000  1
  O  O8  1  0.58310000  0.58700000  0.31520000  1
  O  O9  1  0.51470000  0.08700000  0.81520000  1
  O  O10  1  0.75230000  0.94650000  0.90670000  1
  O  O11  1  0.39450000  0.44650000  0.40670000  1
  O  O12  1  0.64570000  0.28140000  0.55160000  1
  O  O13  1  0.52130000  0.78140000  0.05160000  1
  O  O14  1  0.88970000  0.60830000  0.18070000  1
  O  O15  1  0.32130000  0.10830000  0.68070000  1
  O  O16  1  0.97200000  0.69700000  0.02540000  1
  O  O17  1  0.30560000  0.19700000  0.52540000  1
  O  O18  1  0.18280000  0.42800000  0.09180000  1
  O  O19  1  0.29740000  0.92800000  0.59180000  1
  O  O20  1  0.81720000  0.57200000  0.90820000  1
  O  O21  1  0.70260000  0.07200000  0.40820000  1
  O  O22  1  0.02800000  0.30300000  0.97460000  1
  O  O23  1  0.69440000  0.80300000  0.47460000  1
  O  O24  1  0.11030000  0.39170000  0.81930000  1
  O  O25  1  0.67870000  0.89170000  0.31930000  1
  O  O26  1  0.35430000  0.71860000  0.44840000  1
  O  O27  1  0.47870000  0.21860000  0.94840000  1
  O  O28  1  0.24770000  0.05350000  0.09330000  1
  O  O29  1  0.60550000  0.55350000  0.59330000  1
  O  O30  1  0.41690000  0.41300000  0.68480000  1
  O  O31  1  0.48530000  0.91300000  0.18480000  1
  P  P32  1  0.61065000  0.10871000  0.87625000  1
  P  P33  1  0.40439000  0.60871000  0.37625000  1
  P  P34  1  0.04079000  0.60056000  0.10616000  1
  P  P35  1  0.25249000  0.10056000  0.60616000  1
  P  P36  1  0.95921000  0.39944000  0.89384000  1
  P  P37  1  0.74751000  0.89944000  0.39384000  1
  P  P38  1  0.38935000  0.89129000  0.12375000  1
  P  P39  1  0.59561000  0.39129000  0.62375000  1
  Zn  Zn40  1  0.66137000  0.75000000  0.25000000  1
  Zn  Zn41  1  0.33863000  0.25000000  0.75000000  1
  Zn  Zn42  1  0.75421000  0.75118000  0.97818000  1
  Zn  Zn43  1  0.51643000  0.25118000  0.47818000  1
  Zn  Zn44  1  0.24579000  0.24882000  0.02182000  1
  Zn  Zn45  1  0.48357000  0.74882000  0.52182000  1
