# generated using pymatgen
data_U2P2H3(C4O5)2
_symmetry_space_group_name_H-M   'P 1'
_cell_length_a   9.75610000
_cell_length_b   10.28520000
_cell_length_c   11.04650000
_cell_angle_alpha   95.12700000
_cell_angle_beta   95.10900000
_cell_angle_gamma   105.97400000
_symmetry_Int_Tables_number   1
_chemical_formula_structural   U2P2H3(C4O5)2
_chemical_formula_sum   'U4 P4 H6 C16 O20'
_cell_volume   1053.87791805
_cell_formula_units_Z   2
loop_
 _symmetry_equiv_pos_site_id
 _symmetry_equiv_pos_as_xyz
  1  'x, y, z'
loop_
 _atom_site_type_symbol
 _atom_site_label
 _atom_site_symmetry_multiplicity
 _atom_site_fract_x
 _atom_site_fract_y
 _atom_site_fract_z
 _atom_site_occupancy
  U  U0  1  0.13500000  0.17206000  0.82735000  1
  U  U1  1  0.33279000  0.38788000  0.36936000  1
  U  U2  1  0.66721000  0.61212000  0.63064000  1
  U  U3  1  0.86500000  0.82794000  0.17265000  1
  P  P4  1  0.05420000  0.18340000  0.14520000  1
  P  P5  1  0.36730000  0.45870000  0.70960000  1
  P  P6  1  0.63270000  0.54130000  0.29040000  1
  P  P7  1  0.94580000  0.81660000  0.85480000  1
  H  H8  1  0.11430000  0.67660000  0.98170000  1
  H  H9  1  0.19270000  0.60210000  0.57750000  1
  H  H10  1  0.34740000  0.55350000  0.12280000  1
  H  H11  1  0.65260000  0.44650000  0.87720000  1
  H  H12  1  0.80730000  0.39790000  0.42250000  1
  H  H13  1  0.88570000  0.32340000  0.01830000  1
  C  C14  1  0.01980000  0.74300000  0.58190000  1
  C  C15  1  0.05930000  0.71360000  0.80890000  1
  C  C16  1  0.08460000  0.68880000  0.68620000  1
  C  C17  1  0.12780000  0.65860000  0.90030000  1
  C  C18  1  0.17520000  0.61480000  0.65850000  1
  C  C19  1  0.21680000  0.57630000  0.86990000  1
  C  C20  1  0.24640000  0.55410000  0.74970000  1
  C  C21  1  0.27860000  0.51320000  0.96850000  1
  C  C22  1  0.72140000  0.48680000  0.03150000  1
  C  C23  1  0.75360000  0.44590000  0.25030000  1
  C  C24  1  0.78320000  0.42370000  0.13010000  1
  C  C25  1  0.82480000  0.38520000  0.34150000  1
  C  C26  1  0.87220000  0.34140000  0.09970000  1
  C  C27  1  0.91540000  0.31120000  0.31380000  1
  C  C28  1  0.94070000  0.28640000  0.19110000  1
  C  C29  1  0.98020000  0.25700000  0.41810000  1
  O  O30  1  0.01100000  0.04910000  0.20040000  1
  O  O31  1  0.03380000  0.16470000  0.00700000  1
  O  O32  1  0.10820000  0.81140000  0.52020000  1
  O  O33  1  0.11280000  0.27350000  0.43650000  1
  O  O34  1  0.20690000  0.26560000  0.19640000  1
  O  O35  1  0.26390000  0.39000000  0.95830000  1
  O  O36  1  0.30560000  0.31320000  0.72650000  1
  O  O37  1  0.35330000  0.59400000  0.06190000  1
  O  O38  1  0.39750000  0.47860000  0.57760000  1
  O  O39  1  0.48840000  0.47150000  0.21210000  1
  O  O40  1  0.51160000  0.52850000  0.78790000  1
  O  O41  1  0.60250000  0.52140000  0.42240000  1
  O  O42  1  0.64670000  0.40600000  0.93810000  1
  O  O43  1  0.69440000  0.68680000  0.27350000  1
  O  O44  1  0.73610000  0.61000000  0.04170000  1
  O  O45  1  0.79310000  0.73440000  0.80360000  1
  O  O46  1  0.88720000  0.72650000  0.56350000  1
  O  O47  1  0.89180000  0.18860000  0.47980000  1
  O  O48  1  0.96620000  0.83530000  0.99300000  1
  O  O49  1  0.98900000  0.95090000  0.79960000  1
