# generated using pymatgen
data_GaH4C8O5
_symmetry_space_group_name_H-M   'P 1'
_cell_length_a   11.87370000
_cell_length_b   12.18811384
_cell_length_c   12.18811384
_cell_angle_alpha   76.27464927
_cell_angle_beta   60.84974316
_cell_angle_gamma   60.84974316
_symmetry_Int_Tables_number   1
_chemical_formula_structural   GaH4C8O5
_chemical_formula_sum   'Ga4 H16 C32 O20'
_cell_volume   1345.33688700
_cell_formula_units_Z   4
loop_
 _symmetry_equiv_pos_site_id
 _symmetry_equiv_pos_as_xyz
  1  'x, y, z'
loop_
 _atom_site_type_symbol
 _atom_site_label
 _atom_site_symmetry_multiplicity
 _atom_site_fract_x
 _atom_site_fract_y
 _atom_site_fract_z
 _atom_site_occupancy
  C  C0  1  0.80020000  0.00000000  0.00000000  1
  C  C1  1  0.56360000  0.00000000  0.00000000  1
  C  C2  1  0.43640000  0.00000000  0.00000000  1
  C  C3  1  0.19980000  0.00000000  0.00000000  1
  C  C4  1  0.94980000  0.50000000  0.50000000  1
  C  C5  1  0.55020000  0.50000000  0.50000000  1
  C  C6  1  0.31360000  0.50000000  0.50000000  1
  C  C7  1  0.18640000  0.50000000  0.50000000  1
  C  C8  1  0.65890000  0.89210000  0.03190000  1
  C  C9  1  0.16710000  0.53190000  0.39210000  1
  C  C10  1  0.78080000  0.88920000  0.02860000  1
  C  C11  1  0.05140000  0.52860000  0.38920000  1
  C  C12  1  0.33000000  0.88920000  0.97140000  1
  C  C13  1  0.55940000  0.47140000  0.38920000  1
  C  C14  1  0.44900000  0.89210000  0.96810000  1
  C  C15  1  0.44080000  0.46810000  0.39210000  1
  C  C16  1  0.89070000  0.76960000  0.04580000  1
  C  C17  1  0.04390000  0.54580000  0.26960000  1
  C  C18  1  0.33970000  0.76960000  0.95420000  1
  C  C19  1  0.68650000  0.45420000  0.26960000  1
  C  C20  1  0.41030000  0.54580000  0.73040000  1
  C  C21  1  0.06350000  0.23040000  0.04580000  1
  C  C22  1  0.85930000  0.45420000  0.73040000  1
  C  C23  1  0.70610000  0.23040000  0.95420000  1
  C  C24  1  0.30100000  0.53190000  0.60790000  1
  C  C25  1  0.30920000  0.10790000  0.03190000  1
  C  C26  1  0.42000000  0.52860000  0.61080000  1
  C  C27  1  0.19060000  0.11080000  0.02860000  1
  C  C28  1  0.96920000  0.47140000  0.61080000  1
  C  C29  1  0.69860000  0.11080000  0.97140000  1
  C  C30  1  0.09110000  0.46810000  0.60790000  1
  C  C31  1  0.58290000  0.10790000  0.96810000  1
  Ga  Ga32  1  0.19473000  0.61054000  0.00000000  1
  Ga  Ga33  1  0.94473000  0.50000000  0.11054000  1
  Ga  Ga34  1  0.55527000  0.50000000  0.88946000  1
  Ga  Ga35  1  0.80527000  0.38946000  0.00000000  1
  H  H36  1  0.88020000  0.00000000  0.00000000  1
  H  H37  1  0.11980000  0.00000000  0.00000000  1
  H  H38  1  0.86980000  0.50000000  0.50000000  1
  H  H39  1  0.63020000  0.50000000  0.50000000  1
  H  H40  1  0.64260000  0.81910000  0.05630000  1
  H  H41  1  0.23200000  0.55630000  0.31910000  1
  H  H42  1  0.53830000  0.81910000  0.94370000  1
  H  H43  1  0.44890000  0.44370000  0.31910000  1
  H  H44  1  0.56710000  0.55790000  0.05790000  1
  H  H45  1  0.87500000  0.55790000  0.94210000  1
  H  H46  1  0.37500000  0.44210000  0.05790000  1
  H  H47  1  0.18290000  0.44210000  0.94210000  1
  H  H48  1  0.21170000  0.55630000  0.68090000  1
  H  H49  1  0.30110000  0.18090000  0.05630000  1
  H  H50  1  0.10740000  0.44370000  0.68090000  1
  H  H51  1  0.51800000  0.18090000  0.94370000  1
  O  O52  1  0.84840000  0.68620000  0.11460000  1
  O  O53  1  0.10080000  0.61460000  0.18620000  1
  O  O54  1  0.22680000  0.75560000  0.00580000  1
  O  O55  1  0.76180000  0.50580000  0.25560000  1
  O  O56  1  0.01760000  0.75560000  0.99420000  1
  O  O57  1  0.98260000  0.49420000  0.25560000  1
  O  O58  1  0.46540000  0.68620000  0.88540000  1
  O  O59  1  0.71300000  0.38540000  0.18620000  1
  O  O60  1  0.62270000  0.50230000  0.00230000  1
  O  O61  1  0.87500000  0.50230000  0.99770000  1
  O  O62  1  0.37500000  0.49770000  0.00230000  1
  O  O63  1  0.12730000  0.49770000  0.99770000  1
  O  O64  1  0.28460000  0.61460000  0.81380000  1
  O  O65  1  0.03700000  0.31380000  0.11460000  1
  O  O66  1  0.73240000  0.50580000  0.74440000  1
  O  O67  1  0.76740000  0.24440000  0.00580000  1
  O  O68  1  0.52320000  0.49420000  0.74440000  1
  O  O69  1  0.98820000  0.24440000  0.99420000  1
  O  O70  1  0.90160000  0.38540000  0.81380000  1
  O  O71  1  0.64920000  0.31380000  0.88540000  1
