# generated using pymatgen
data_MnH6C9O4
_symmetry_space_group_name_H-M   'P 1'
_cell_length_a   7.49100000
_cell_length_b   11.22600000
_cell_length_c   15.38600000
_cell_angle_alpha   90.00000000
_cell_angle_beta   90.00000000
_cell_angle_gamma   90.00000000
_symmetry_Int_Tables_number   1
_chemical_formula_structural   MnH6C9O4
_chemical_formula_sum   'Mn4 H24 C36 O16'
_cell_volume   1293.86976088
_cell_formula_units_Z   4
loop_
 _symmetry_equiv_pos_site_id
 _symmetry_equiv_pos_as_xyz
  1  'x, y, z'
loop_
 _atom_site_type_symbol
 _atom_site_label
 _atom_site_symmetry_multiplicity
 _atom_site_fract_x
 _atom_site_fract_y
 _atom_site_fract_z
 _atom_site_occupancy
  Mn  Mn0  1  0.97669000  0.14255000  0.28234000  1
  Mn  Mn1  1  0.52331000  0.64255000  0.78234000  1
  Mn  Mn2  1  0.47669000  0.14255000  0.21766000  1
  Mn  Mn3  1  0.02331000  0.64255000  0.71766000  1
  H  H4  1  0.94890000  0.39180000  0.80440000  1
  H  H5  1  0.88000000  0.81620000  0.35660000  1
  H  H6  1  0.86390000  0.69420000  0.40550000  1
  H  H7  1  0.85470000  0.19220000  0.01470000  1
  H  H8  1  0.80720000  0.38350000  0.50170000  1
  H  H9  1  0.78610000  0.70780000  0.31150000  1
  H  H10  1  0.71390000  0.20780000  0.81150000  1
  H  H11  1  0.69280000  0.88350000  0.00170000  1
  H  H12  1  0.64530000  0.69220000  0.51470000  1
  H  H13  1  0.63610000  0.19420000  0.90550000  1
  H  H14  1  0.62000000  0.31620000  0.85660000  1
  H  H15  1  0.55110000  0.89180000  0.30440000  1
  H  H16  1  0.44890000  0.39180000  0.69560000  1
  H  H17  1  0.38000000  0.81620000  0.14340000  1
  H  H18  1  0.36390000  0.69420000  0.09450000  1
  H  H19  1  0.35470000  0.19220000  0.48530000  1
  H  H20  1  0.30720000  0.38350000  0.99830000  1
  H  H21  1  0.28610000  0.70780000  0.18850000  1
  H  H22  1  0.21390000  0.20780000  0.68850000  1
  H  H23  1  0.19280000  0.88350000  0.49830000  1
  H  H24  1  0.14530000  0.69220000  0.98530000  1
  H  H25  1  0.13610000  0.19420000  0.59450000  1
  H  H26  1  0.12000000  0.31620000  0.64340000  1
  H  H27  1  0.05110000  0.89180000  0.19560000  1
  C  C28  1  0.98310000  0.36450000  0.85890000  1
  C  C29  1  0.92740000  0.24460000  0.98404000  1
  C  C30  1  0.90910000  0.77970000  0.98003000  1
  C  C31  1  0.87140000  0.28650000  0.90360000  1
  C  C32  1  0.85560000  0.90270000  0.10612000  1
  C  C33  1  0.85290000  0.72570000  0.89409000  1
  C  C34  1  0.80590000  0.74760000  0.36580000  1
  C  C35  1  0.80120000  0.85930000  0.02525000  1
  C  C36  1  0.76120000  0.48860000  0.65513000  1
  C  C37  1  0.73880000  0.98860000  0.15513000  1
  C  C38  1  0.69880000  0.35930000  0.52525000  1
  C  C39  1  0.69410000  0.24760000  0.86580000  1
  C  C40  1  0.64710000  0.22570000  0.39409000  1
  C  C41  1  0.64440000  0.40270000  0.60612000  1
  C  C42  1  0.62860000  0.78650000  0.40360000  1
  C  C43  1  0.59090000  0.27970000  0.48003000  1
  C  C44  1  0.57260000  0.74460000  0.48404000  1
  C  C45  1  0.51690000  0.86450000  0.35890000  1
  C  C46  1  0.48310000  0.36450000  0.64110000  1
  C  C47  1  0.42740000  0.24460000  0.51596000  1
  C  C48  1  0.40910000  0.77970000  0.51997000  1
  C  C49  1  0.37140000  0.28650000  0.59640000  1
  C  C50  1  0.35560000  0.90270000  0.39388000  1
  C  C51  1  0.35290000  0.72570000  0.60591000  1
  C  C52  1  0.30590000  0.74760000  0.13420000  1
  C  C53  1  0.30120000  0.85930000  0.47475000  1
  C  C54  1  0.26120000  0.48860000  0.84487000  1
  C  C55  1  0.23880000  0.98860000  0.34487000  1
  C  C56  1  0.19880000  0.35930000  0.97475000  1
  C  C57  1  0.19410000  0.24760000  0.63420000  1
  C  C58  1  0.14710000  0.22570000  0.10591000  1
  C  C59  1  0.14440000  0.40270000  0.89388000  1
  C  C60  1  0.12860000  0.78650000  0.09640000  1
  C  C61  1  0.09090000  0.27970000  0.01997000  1
  C  C62  1  0.07260000  0.74460000  0.01596000  1
  C  C63  1  0.01690000  0.86450000  0.14110000  1
  O  O64  1  0.97480000  0.68060000  0.84916000  1
  O  O65  1  0.90370000  0.52420000  0.62206000  1
  O  O66  1  0.81030000  0.22760000  0.37599000  1
  O  O67  1  0.78560000  0.02030000  0.23122000  1
  O  O68  1  0.71440000  0.52030000  0.73122000  1
  O  O69  1  0.68970000  0.72760000  0.87599000  1
  O  O70  1  0.59630000  0.02420000  0.12206000  1
  O  O71  1  0.52520000  0.18060000  0.34916000  1
  O  O72  1  0.47480000  0.68060000  0.65084000  1
  O  O73  1  0.40370000  0.52420000  0.87794000  1
  O  O74  1  0.31030000  0.22760000  0.12401000  1
  O  O75  1  0.28560000  0.02030000  0.26878000  1
  O  O76  1  0.21440000  0.52030000  0.76878000  1
  O  O77  1  0.18970000  0.72760000  0.62401000  1
  O  O78  1  0.09630000  0.02420000  0.37794000  1
  O  O79  1  0.02520000  0.18060000  0.15084000  1
