# generated using pymatgen
data_FeH4C8O5
_symmetry_space_group_name_H-M   'P 1'
_cell_length_a   6.83060000
_cell_length_b   7.64270000
_cell_length_c   10.58437975
_cell_angle_alpha   111.16371688
_cell_angle_beta   102.97502525
_cell_angle_gamma   90.00000000
_symmetry_Int_Tables_number   1
_chemical_formula_structural   FeH4C8O5
_chemical_formula_sum   'Fe2 H8 C16 O10'
_cell_volume   500.12350741
_cell_formula_units_Z   2
loop_
 _symmetry_equiv_pos_site_id
 _symmetry_equiv_pos_as_xyz
  1  'x, y, z'
loop_
 _atom_site_type_symbol
 _atom_site_label
 _atom_site_symmetry_multiplicity
 _atom_site_fract_x
 _atom_site_fract_y
 _atom_site_fract_z
 _atom_site_occupancy
  Fe  Fe0  1  0.00000000  0.00000000  0.00000000  1
  Fe  Fe1  1  0.50000000  0.00000000  0.00000000  1
  H  H2  1  0.83950000  0.95030000  0.57000000  1
  H  H3  1  0.80500000  0.56230000  0.66520000  1
  H  H4  1  0.69500000  0.89710000  0.33480000  1
  H  H5  1  0.66050000  0.38030000  0.43000000  1
  H  H6  1  0.33950000  0.61970000  0.57000000  1
  H  H7  1  0.30500000  0.10290000  0.66520000  1
  H  H8  1  0.19500000  0.43770000  0.33480000  1
  H  H9  1  0.16050000  0.04970000  0.43000000  1
  C  C10  1  0.91580000  0.39400000  0.36300000  1
  C  C11  1  0.88650000  0.53630000  0.59620000  1
  C  C12  1  0.82550000  0.28030000  0.21620000  1
  C  C13  1  0.80230000  0.43030000  0.45920000  1
  C  C14  1  0.69770000  0.97110000  0.54080000  1
  C  C15  1  0.67450000  0.06410000  0.78380000  1
  C  C16  1  0.61350000  0.94010000  0.40380000  1
  C  C17  1  0.58420000  0.03100000  0.63700000  1
  C  C18  1  0.41580000  0.96900000  0.36300000  1
  C  C19  1  0.38650000  0.05990000  0.59620000  1
  C  C20  1  0.32550000  0.93590000  0.21620000  1
  C  C21  1  0.30230000  0.02890000  0.45920000  1
  C  C22  1  0.19770000  0.56970000  0.54080000  1
  C  C23  1  0.17450000  0.71970000  0.78380000  1
  C  C24  1  0.11350000  0.46370000  0.40380000  1
  C  C25  1  0.08420000  0.60600000  0.63700000  1
  O  O26  1  0.93240000  0.24260000  0.12740000  1
  O  O27  1  0.85950000  0.04180000  0.82220000  1
  O  O28  1  0.75000000  0.88650000  0.00000000  1
  O  O29  1  0.64050000  0.21960000  0.17780000  1
  O  O30  1  0.56760000  0.11520000  0.87260000  1
  O  O31  1  0.43240000  0.88480000  0.12740000  1
  O  O32  1  0.35950000  0.78040000  0.82220000  1
  O  O33  1  0.25000000  0.11350000  0.00000000  1
  O  O34  1  0.14050000  0.95820000  0.17780000  1
  O  O35  1  0.06760000  0.75740000  0.87260000  1
