# generated using pymatgen
data_CaCu6H27C24(N2O7)3
_symmetry_space_group_name_H-M   'P 1'
_cell_length_a   13.29210000
_cell_length_b   17.69430000
_cell_length_c   17.69430000
_cell_angle_alpha   120.00000000
_cell_angle_beta   90.00000000
_cell_angle_gamma   90.00000000
_symmetry_Int_Tables_number   1
_chemical_formula_structural   CaCu6H27C24(N2O7)3
_chemical_formula_sum   'Ca2 Cu12 H54 C48 N12 O42'
_cell_volume   3604.05163296
_cell_formula_units_Z   2
loop_
 _symmetry_equiv_pos_site_id
 _symmetry_equiv_pos_as_xyz
  1  'x, y, z'
loop_
 _atom_site_type_symbol
 _atom_site_label
 _atom_site_symmetry_multiplicity
 _atom_site_fract_x
 _atom_site_fract_y
 _atom_site_fract_z
 _atom_site_occupancy
  Ca  Ca0  1  0.44370000  0.66666667  0.33333333  1
  Ca  Ca1  1  0.94370000  0.33333333  0.66666667  1
  Cu  Cu2  1  0.31953000  0.86691000  0.44217000  1
  Cu  Cu3  1  0.56949000  0.86637000  0.44662000  1
  Cu  Cu4  1  0.56949000  0.58025000  0.13363000  1
  Cu  Cu5  1  0.31953000  0.57526000  0.13309000  1
  Cu  Cu6  1  0.31953000  0.55783000  0.42474000  1
  Cu  Cu7  1  0.56949000  0.55338000  0.41975000  1
  Cu  Cu8  1  0.06949000  0.44662000  0.58025000  1
  Cu  Cu9  1  0.81953000  0.44217000  0.57526000  1
  Cu  Cu10  1  0.81953000  0.42474000  0.86691000  1
  Cu  Cu11  1  0.06949000  0.41975000  0.86637000  1
  Cu  Cu12  1  0.06949000  0.13363000  0.55338000  1
  Cu  Cu13  1  0.81953000  0.13309000  0.55783000  1
  H  H14  1  0.14820000  0.93870000  0.27230000  1
  H  H15  1  0.26180000  0.90420000  0.25380000  1
  H  H16  1  0.73640000  0.86560000  0.28590000  1
  H  H17  1  0.87580000  0.84930000  0.36520000  1
  H  H18  1  0.17330000  0.84470000  0.19070000  1
  H  H19  1  0.10330000  0.82880000  0.30860000  1
  H  H20  1  0.44100000  0.82200000  0.50700000  1
  H  H21  1  0.17330000  0.80930000  0.65400000  1
  H  H22  1  0.81840000  0.76900000  0.36360000  1
  H  H23  1  0.85690000  0.76150000  0.27440000  1
  H  H24  1  0.26180000  0.74620000  0.65040000  1
  H  H25  1  0.14820000  0.72770000  0.66640000  1
  H  H26  1  0.85690000  0.72560000  0.48710000  1
  H  H27  1  0.73640000  0.71410000  0.57970000  1
  H  H28  1  0.10330000  0.69140000  0.52020000  1
  H  H29  1  0.44100000  0.68500000  0.17800000  1
  H  H30  1  0.64820000  0.66640000  0.93870000  1
  H  H31  1  0.67330000  0.65400000  0.84470000  1
  H  H32  1  0.76180000  0.65040000  0.90420000  1
  H  H33  1  0.81840000  0.63640000  0.40540000  1
  H  H34  1  0.87580000  0.63480000  0.48410000  1
  H  H35  1  0.81840000  0.59460000  0.23100000  1
  H  H36  1  0.23640000  0.57970000  0.86560000  1
  H  H37  1  0.60330000  0.52020000  0.82880000  1
  H  H38  1  0.87580000  0.51590000  0.15070000  1
  H  H39  1  0.85690000  0.51290000  0.23850000  1
  H  H40  1  0.94100000  0.50700000  0.68500000  1
  H  H41  1  0.44100000  0.49300000  0.31500000  1
  H  H42  1  0.35690000  0.48710000  0.76150000  1
  H  H43  1  0.37580000  0.48410000  0.84930000  1
  H  H44  1  0.10330000  0.47980000  0.17120000  1
  H  H45  1  0.73640000  0.42030000  0.13440000  1
  H  H46  1  0.31840000  0.40540000  0.76900000  1
  H  H47  1  0.37580000  0.36520000  0.51590000  1
  H  H48  1  0.31840000  0.36360000  0.59460000  1
  H  H49  1  0.26180000  0.34960000  0.09580000  1
  H  H50  1  0.17330000  0.34600000  0.15530000  1
  H  H51  1  0.14820000  0.33360000  0.06130000  1
  H  H52  1  0.94100000  0.31500000  0.82200000  1
  H  H53  1  0.60330000  0.30860000  0.47980000  1
  H  H54  1  0.23640000  0.28590000  0.42030000  1
  H  H55  1  0.35690000  0.27440000  0.51290000  1
  H  H56  1  0.64820000  0.27230000  0.33360000  1
  H  H57  1  0.76180000  0.25380000  0.34960000  1
  H  H58  1  0.35690000  0.23850000  0.72560000  1
  H  H59  1  0.31840000  0.23100000  0.63640000  1
  H  H60  1  0.67330000  0.19070000  0.34600000  1
  H  H61  1  0.94100000  0.17800000  0.49300000  1
  H  H62  1  0.60330000  0.17120000  0.69140000  1
  H  H63  1  0.67330000  0.15530000  0.80930000  1
  H  H64  1  0.37580000  0.15070000  0.63480000  1
  H  H65  1  0.23640000  0.13440000  0.71410000  1
  H  H66  1  0.76180000  0.09580000  0.74620000  1
  H  H67  1  0.64820000  0.06130000  0.72770000  1
  C  C68  1  0.72180000  0.97740000  0.45980000  1
  C  C69  1  0.16480000  0.97620000  0.45370000  1
  C  C70  1  0.19120000  0.88700000  0.25110000  1
  C  C71  1  0.17570000  0.84470000  0.30970000  1
  C  C72  1  0.72710000  0.83760000  0.32240000  1
  C  C73  1  0.82890000  0.80100000  0.33230000  1
  C  C74  1  0.24090000  0.76240000  0.27400000  1
  C  C75  1  0.64940000  0.76230000  0.27820000  1
  C  C76  1  0.19120000  0.74890000  0.63590000  1
  C  C77  1  0.24090000  0.72600000  0.48840000  1
  C  C78  1  0.64940000  0.72180000  0.48410000  1
  C  C79  1  0.17570000  0.69030000  0.53500000  1
  C  C80  1  0.72710000  0.67760000  0.51520000  1
  C  C81  1  0.82890000  0.66770000  0.46870000  1
  C  C82  1  0.69120000  0.63590000  0.88700000  1
  C  C83  1  0.16480000  0.54630000  0.52250000  1
  C  C84  1  0.72180000  0.54020000  0.51760000  1
  C  C85  1  0.67570000  0.53500000  0.84470000  1
  C  C86  1  0.82890000  0.53130000  0.19900000  1
  C  C87  1  0.66480000  0.52250000  0.97620000  1
  C  C88  1  0.22180000  0.51760000  0.97740000  1
  C  C89  1  0.64940000  0.51590000  0.23770000  1
  C  C90  1  0.22710000  0.51520000  0.83760000  1
  C  C91  1  0.24090000  0.51160000  0.23760000  1
  C  C92  1  0.74090000  0.48840000  0.76240000  1
  C  C93  1  0.72710000  0.48480000  0.16240000  1
  C  C94  1  0.14940000  0.48410000  0.76230000  1
  C  C95  1  0.72180000  0.48240000  0.02260000  1
  C  C96  1  0.16480000  0.47750000  0.02380000  1
  C  C97  1  0.32890000  0.46870000  0.80100000  1
  C  C98  1  0.17570000  0.46500000  0.15530000  1
  C  C99  1  0.22180000  0.45980000  0.48240000  1
  C  C100  1  0.66480000  0.45370000  0.47750000  1
  C  C101  1  0.19120000  0.36410000  0.11300000  1
  C  C102  1  0.32890000  0.33230000  0.53130000  1
  C  C103  1  0.22710000  0.32240000  0.48480000  1
  C  C104  1  0.67570000  0.30970000  0.46500000  1
  C  C105  1  0.14940000  0.27820000  0.51590000  1
  C  C106  1  0.74090000  0.27400000  0.51160000  1
  C  C107  1  0.69120000  0.25110000  0.36410000  1
  C  C108  1  0.14940000  0.23770000  0.72180000  1
  C  C109  1  0.74090000  0.23760000  0.72600000  1
  C  C110  1  0.32890000  0.19900000  0.66770000  1
  C  C111  1  0.22710000  0.16240000  0.67760000  1
  C  C112  1  0.67570000  0.15530000  0.69030000  1
  C  C113  1  0.69120000  0.11300000  0.74890000  1
  C  C114  1  0.66480000  0.02380000  0.54630000  1
  C  C115  1  0.22180000  0.02260000  0.54020000  1
  N  N116  1  0.20680000  0.90290000  0.39920000  1
  N  N117  1  0.68500000  0.90070000  0.40660000  1
  N  N118  1  0.20680000  0.60080000  0.50370000  1
  N  N119  1  0.68500000  0.59340000  0.49410000  1
  N  N120  1  0.68500000  0.50590000  0.09930000  1
  N  N121  1  0.70680000  0.50370000  0.90290000  1
  N  N122  1  0.20680000  0.49630000  0.09710000  1
  N  N123  1  0.18500000  0.49410000  0.90070000  1
  N  N124  1  0.18500000  0.40660000  0.50590000  1
  N  N125  1  0.70680000  0.39920000  0.49630000  1
  N  N126  1  0.18500000  0.09930000  0.59340000  1
  N  N127  1  0.70680000  0.09710000  0.60080000  1
  O  O128  1  0.58830000  0.98540000  0.55600000  1
  O  O129  1  0.29950000  0.98490000  0.55130000  1
  O  O130  1  0.44250000  0.82756000  0.46602000  1
  O  O131  1  0.22260000  0.80150000  0.50100000  1
  O  O132  1  0.66640000  0.79740000  0.50120000  1
  O  O133  1  0.57450000  0.76330000  0.32440000  1
  O  O134  1  0.31450000  0.76250000  0.32150000  1
  O  O135  1  0.66640000  0.70380000  0.20260000  1
  O  O136  1  0.22260000  0.69950000  0.19850000  1
  O  O137  1  0.31450000  0.67850000  0.44100000  1
  O  O138  1  0.57450000  0.67560000  0.43890000  1
  O  O139  1  0.44250000  0.63846000  0.17244000  1
  O  O140  1  0.58830000  0.57060000  0.01460000  1
  O  O141  1  0.29950000  0.56640000  0.01510000  1
  O  O142  1  0.57450000  0.56110000  0.23670000  1
  O  O143  1  0.31450000  0.55900000  0.23750000  1
  O  O144  1  0.08830000  0.55600000  0.57060000  1
  O  O145  1  0.79950000  0.55130000  0.56640000  1
  O  O146  1  0.44250000  0.53398000  0.36154000  1
  O  O147  1  0.16640000  0.50120000  0.70380000  1
  O  O148  1  0.72260000  0.50100000  0.69950000  1
  O  O149  1  0.22260000  0.49900000  0.30050000  1
  O  O150  1  0.66640000  0.49880000  0.29620000  1
  O  O151  1  0.94250000  0.46602000  0.63846000  1
  O  O152  1  0.29950000  0.44870000  0.43360000  1
  O  O153  1  0.58830000  0.44400000  0.42940000  1
  O  O154  1  0.81450000  0.44100000  0.76250000  1
  O  O155  1  0.07450000  0.43890000  0.76330000  1
  O  O156  1  0.79950000  0.43360000  0.98490000  1
  O  O157  1  0.08830000  0.42940000  0.98540000  1
  O  O158  1  0.94250000  0.36154000  0.82756000  1
  O  O159  1  0.07450000  0.32440000  0.56110000  1
  O  O160  1  0.81450000  0.32150000  0.55900000  1
  O  O161  1  0.72260000  0.30050000  0.80150000  1
  O  O162  1  0.16640000  0.29620000  0.79740000  1
  O  O163  1  0.81450000  0.23750000  0.67850000  1
  O  O164  1  0.07450000  0.23670000  0.67560000  1
  O  O165  1  0.16640000  0.20260000  0.49880000  1
  O  O166  1  0.72260000  0.19850000  0.49900000  1
  O  O167  1  0.94250000  0.17244000  0.53398000  1
  O  O168  1  0.79950000  0.01510000  0.44870000  1
  O  O169  1  0.08830000  0.01460000  0.44400000  1
