# generated using pymatgen
data_NiHC4O3
_symmetry_space_group_name_H-M   'P 1'
_cell_length_a   6.72920000
_cell_length_b   15.06190000
_cell_length_c   15.06188960
_cell_angle_alpha   117.82243508
_cell_angle_beta   98.56439842
_cell_angle_gamma   98.56460000
_symmetry_Int_Tables_number   1
_chemical_formula_structural   NiHC4O3
_chemical_formula_sum   'Ni6 H6 C24 O18'
_cell_volume   1292.74578841
_cell_formula_units_Z   6
loop_
 _symmetry_equiv_pos_site_id
 _symmetry_equiv_pos_as_xyz
  1  'x, y, z'
loop_
 _atom_site_type_symbol
 _atom_site_label
 _atom_site_symmetry_multiplicity
 _atom_site_fract_x
 _atom_site_fract_y
 _atom_site_fract_z
 _atom_site_occupancy
  Ni  Ni0  1  0.39760000  0.57710000  0.28130000  1
  Ni  Ni1  1  0.82050000  0.42290000  0.70420000  1
  Ni  Ni2  1  0.82050000  0.70420000  0.42290000  1
  Ni  Ni3  1  0.11630000  0.29580000  0.71870000  1
  Ni  Ni4  1  0.11630000  0.71870000  0.29580000  1
  Ni  Ni5  1  0.39760000  0.28130000  0.57710000  1
  H  H6  1  0.53440000  0.00000000  0.42820000  1
  H  H7  1  0.74100000  0.48150000  0.48150000  1
  H  H8  1  0.25950000  0.51850000  1.00000000  1
  H  H9  1  0.10620000  0.57180000  0.57180000  1
  H  H10  1  0.53440000  0.42820000  0.00000000  1
  H  H11  1  0.25950000  0.00000000  0.51850000  1
  C  C12  1  0.50500000  0.56210000  0.46390000  1
  C  C13  1  0.94290000  0.43790000  0.90180000  1
  C  C14  1  0.58830000  0.50145000  0.50145000  1
  C  C15  1  0.08685000  0.49855000  1.00000000  1
  C  C16  1  0.55690000  0.81380000  0.35490000  1
  C  C17  1  0.74310000  0.18620000  0.54110000  1
  C  C18  1  0.68590000  0.00000000  0.44170000  1
  C  C19  1  0.73070000  0.90800000  0.41310000  1
  C  C20  1  0.82270000  0.09200000  0.50510000  1
  C  C21  1  0.94290000  0.90180000  0.43790000  1
  C  C22  1  0.04110000  0.09820000  0.53610000  1
  C  C23  1  0.74310000  0.54110000  0.18620000  1
  C  C24  1  0.20200000  0.45890000  0.64510000  1
  C  C25  1  0.08685000  0.00000000  0.49855000  1
  C  C26  1  0.24420000  0.55830000  0.55830000  1
  C  C27  1  0.68590000  0.44170000  1.00000000  1
  C  C28  1  0.82270000  0.50510000  0.09200000  1
  C  C29  1  0.31760000  0.49490000  0.58690000  1
  C  C30  1  0.20200000  0.64510000  0.45890000  1
  C  C31  1  0.55690000  0.35490000  0.81380000  1
  C  C32  1  0.31760000  0.58690000  0.49490000  1
  C  C33  1  0.73070000  0.41310000  0.90800000  1
  C  C34  1  0.04110000  0.53610000  0.09820000  1
  C  C35  1  0.50500000  0.46390000  0.56210000  1
  O  O36  1  0.38060000  0.82740000  0.32840000  1
  O  O37  1  0.55320000  0.17260000  0.50100000  1
  O  O38  1  0.58200000  0.58740000  0.40560000  1
  O  O39  1  0.99460000  0.41260000  0.81820000  1
  O  O40  1  0.59390000  0.72750000  0.34220000  1
  O  O41  1  0.86640000  0.27250000  0.61470000  1
  O  O42  1  0.55320000  0.50100000  0.17260000  1
  O  O43  1  0.05220000  0.49900000  0.67160000  1
  O  O44  1  0.05220000  0.67160000  0.49900000  1
  O  O45  1  0.38060000  0.32840000  0.82740000  1
  O  O46  1  0.99460000  0.81820000  0.41260000  1
  O  O47  1  0.17640000  0.18180000  0.59440000  1
  O  O48  1  0.86640000  0.61470000  0.27250000  1
  O  O49  1  0.25170000  0.38530000  0.65780000  1
  O  O50  1  0.25170000  0.65780000  0.38530000  1
  O  O51  1  0.59390000  0.34220000  0.72750000  1
  O  O52  1  0.17640000  0.59440000  0.18180000  1
  O  O53  1  0.58200000  0.40560000  0.58740000  1
