# generated using pymatgen
data_CdHgC4(SN)4
_symmetry_space_group_name_H-M   'P 1'
_cell_length_a   9.25150000
_cell_length_b   14.16700000
_cell_length_c   16.58980000
_cell_angle_alpha   90.00000000
_cell_angle_beta   93.03200000
_cell_angle_gamma   90.00000000
_symmetry_Int_Tables_number   1
_chemical_formula_structural   CdHgC4(SN)4
_chemical_formula_sum   'Cd4 Hg4 C16 S16 N16'
_cell_volume   2171.31495705
_cell_formula_units_Z   4
loop_
 _symmetry_equiv_pos_site_id
 _symmetry_equiv_pos_as_xyz
  1  'x, y, z'
loop_
 _atom_site_type_symbol
 _atom_site_label
 _atom_site_symmetry_multiplicity
 _atom_site_fract_x
 _atom_site_fract_y
 _atom_site_fract_z
 _atom_site_occupancy
  Cd  Cd0  1  0.02684000  0.15683000  0.75583000  1
  Cd  Cd1  1  0.47316000  0.65683000  0.74417000  1
  Cd  Cd2  1  0.52684000  0.34317000  0.25583000  1
  Cd  Cd3  1  0.97316000  0.84317000  0.24417000  1
  Hg  Hg4  1  0.02003000  0.20431000  0.08183000  1
  Hg  Hg5  1  0.47997000  0.70431000  0.41817000  1
  Hg  Hg6  1  0.52003000  0.29569000  0.58183000  1
  Hg  Hg7  1  0.97997000  0.79569000  0.91817000  1
  C  C8  1  0.05700000  0.70470000  0.08460000  1
  C  C9  1  0.13320000  0.99440000  0.89790000  1
  C  C10  1  0.13530000  0.74860000  0.75750000  1
  C  C11  1  0.14110000  0.71080000  0.39290000  1
  C  C12  1  0.35890000  0.21080000  0.10710000  1
  C  C13  1  0.36470000  0.24860000  0.74250000  1
  C  C14  1  0.36680000  0.49440000  0.60210000  1
  C  C15  1  0.44300000  0.20470000  0.41540000  1
  C  C16  1  0.55700000  0.79530000  0.58460000  1
  C  C17  1  0.63320000  0.50560000  0.39790000  1
  C  C18  1  0.63530000  0.75140000  0.25750000  1
  C  C19  1  0.64110000  0.78920000  0.89290000  1
  C  C20  1  0.85890000  0.28920000  0.60710000  1
  C  C21  1  0.86470000  0.25140000  0.24250000  1
  C  C22  1  0.86680000  0.00560000  0.10210000  1
  C  C23  1  0.94300000  0.29530000  0.91540000  1
  S  S24  1  0.03656000  0.22186000  0.23248000  1
  S  S25  1  0.06034000  0.64743000  0.99806000  1
  S  S26  1  0.18187000  0.90793000  0.96081000  1
  S  S27  1  0.23573000  0.65489000  0.46509000  1
  S  S28  1  0.26427000  0.15489000  0.03491000  1
  S  S29  1  0.31813000  0.40793000  0.53919000  1
  S  S30  1  0.43966000  0.14743000  0.50194000  1
  S  S31  1  0.46344000  0.72186000  0.26752000  1
  S  S32  1  0.53656000  0.27814000  0.73248000  1
  S  S33  1  0.56034000  0.85257000  0.49806000  1
  S  S34  1  0.68187000  0.59207000  0.46081000  1
  S  S35  1  0.73573000  0.84511000  0.96509000  1
  S  S36  1  0.76427000  0.34511000  0.53491000  1
  S  S37  1  0.81813000  0.09207000  0.03919000  1
  S  S38  1  0.93966000  0.35257000  0.00194000  1
  S  S39  1  0.96344000  0.77814000  0.76752000  1
  N  N40  1  0.05290000  0.74390000  0.14450000  1
  N  N41  1  0.07250000  0.74990000  0.34410000  1
  N  N42  1  0.10330000  0.05360000  0.85590000  1
  N  N43  1  0.24910000  0.22790000  0.75290000  1
  N  N44  1  0.25090000  0.72790000  0.74710000  1
  N  N45  1  0.39670000  0.55360000  0.64410000  1
  N  N46  1  0.42750000  0.24990000  0.15590000  1
  N  N47  1  0.44710000  0.24390000  0.35550000  1
  N  N48  1  0.55290000  0.75610000  0.64450000  1
  N  N49  1  0.57250000  0.75010000  0.84410000  1
  N  N50  1  0.60330000  0.44640000  0.35590000  1
  N  N51  1  0.74910000  0.27210000  0.25290000  1
  N  N52  1  0.75090000  0.77210000  0.24710000  1
  N  N53  1  0.89670000  0.94640000  0.14410000  1
  N  N54  1  0.92750000  0.25010000  0.65590000  1
  N  N55  1  0.94710000  0.25610000  0.85550000  1
