# generated using pymatgen
data_BaH15(C9O2)3
_symmetry_space_group_name_H-M   'P 1'
_cell_length_a   7.29930000
_cell_length_b   19.36150000
_cell_length_c   26.09840000
_cell_angle_alpha   90.00000000
_cell_angle_beta   90.00000000
_cell_angle_gamma   90.00000000
_symmetry_Int_Tables_number   1
_chemical_formula_structural   BaH15(C9O2)3
_chemical_formula_sum   'Ba4 H60 C108 O24'
_cell_volume   3688.36673976
_cell_formula_units_Z   4
loop_
 _symmetry_equiv_pos_site_id
 _symmetry_equiv_pos_as_xyz
  1  'x, y, z'
loop_
 _atom_site_type_symbol
 _atom_site_label
 _atom_site_symmetry_multiplicity
 _atom_site_fract_x
 _atom_site_fract_y
 _atom_site_fract_z
 _atom_site_occupancy
  Ba  Ba0  1  0.12795000  0.69239000  0.98982000  1
  Ba  Ba1  1  0.37205000  0.19239000  0.48982000  1
  Ba  Ba2  1  0.62795000  0.80761000  0.98982000  1
  Ba  Ba3  1  0.87205000  0.30761000  0.48982000  1
  H  H4  1  0.02740000  0.04040000  0.48410000  1
  H  H5  1  0.02960000  0.18140000  0.04300000  1
  H  H6  1  0.04640000  0.91470000  0.67740000  1
  H  H7  1  0.05920000  0.37170000  0.12700000  1
  H  H8  1  0.06850000  0.93030000  0.51490000  1
  H  H9  1  0.08010000  0.47240000  0.08020000  1
  H  H10  1  0.08120000  0.71900000  0.75560000  1
  H  H11  1  0.10610000  0.62760000  0.45580000  1
  H  H12  1  0.10910000  0.41230000  0.31440000  1
  H  H13  1  0.11040000  0.72890000  0.50060000  1
  H  H14  1  0.12990000  0.71120000  0.66590000  1
  H  H15  1  0.18440000  0.72280000  0.83930000  1
  H  H16  1  0.20540000  0.01700000  0.14250000  1
  H  H17  1  0.22180000  0.41010000  0.23250000  1
  H  H18  1  0.23930000  0.40900000  0.60840000  1
  H  H19  1  0.26070000  0.90900000  0.10840000  1
  H  H20  1  0.27820000  0.91010000  0.73250000  1
  H  H21  1  0.29460000  0.51700000  0.64250000  1
  H  H22  1  0.31560000  0.22280000  0.33930000  1
  H  H23  1  0.37010000  0.21120000  0.16590000  1
  H  H24  1  0.38960000  0.22890000  0.00060000  1
  H  H25  1  0.39090000  0.91230000  0.81440000  1
  H  H26  1  0.39390000  0.12760000  0.95580000  1
  H  H27  1  0.41880000  0.21900000  0.25560000  1
  H  H28  1  0.41990000  0.97240000  0.58020000  1
  H  H29  1  0.43150000  0.43030000  0.01490000  1
  H  H30  1  0.44080000  0.87170000  0.62700000  1
  H  H31  1  0.45360000  0.41470000  0.17740000  1
  H  H32  1  0.47040000  0.68140000  0.54300000  1
  H  H33  1  0.47260000  0.54040000  0.98410000  1
  H  H34  1  0.52740000  0.45960000  0.48410000  1
  H  H35  1  0.52960000  0.31860000  0.04300000  1
  H  H36  1  0.54640000  0.58530000  0.67740000  1
  H  H37  1  0.55920000  0.12830000  0.12700000  1
  H  H38  1  0.56850000  0.56970000  0.51490000  1
  H  H39  1  0.58010000  0.02760000  0.08020000  1
  H  H40  1  0.58120000  0.78100000  0.75560000  1
  H  H41  1  0.60610000  0.87240000  0.45580000  1
  H  H42  1  0.60910000  0.08770000  0.31440000  1
  H  H43  1  0.61040000  0.77110000  0.50060000  1
  H  H44  1  0.62990000  0.78880000  0.66590000  1
  H  H45  1  0.68440000  0.77720000  0.83930000  1
  H  H46  1  0.70540000  0.48300000  0.14250000  1
  H  H47  1  0.72180000  0.08990000  0.23250000  1
  H  H48  1  0.73930000  0.09100000  0.60840000  1
  H  H49  1  0.76070000  0.59100000  0.10840000  1
  H  H50  1  0.77820000  0.58990000  0.73250000  1
  H  H51  1  0.79460000  0.98300000  0.64250000  1
  H  H52  1  0.81560000  0.27720000  0.33930000  1
  H  H53  1  0.87010000  0.28880000  0.16590000  1
  H  H54  1  0.88960000  0.27110000  0.00060000  1
  H  H55  1  0.89090000  0.58770000  0.81440000  1
  H  H56  1  0.89390000  0.37240000  0.95580000  1
  H  H57  1  0.91880000  0.28100000  0.25560000  1
  H  H58  1  0.91990000  0.52760000  0.58020000  1
  H  H59  1  0.93150000  0.06970000  0.01490000  1
  H  H60  1  0.94080000  0.62830000  0.62700000  1
  H  H61  1  0.95360000  0.08530000  0.17740000  1
  H  H62  1  0.97040000  0.81860000  0.54300000  1
  H  H63  1  0.97260000  0.95960000  0.98410000  1
  C  C64  1  0.00190000  0.18300000  0.07780000  1
  C  C65  1  0.00350000  0.49960000  0.98480000  1
  C  C66  1  0.00770000  0.96290000  0.53480000  1
  C  C67  1  0.00830000  0.12220000  0.10710000  1
  C  C68  1  0.01040000  0.56690000  0.51300000  1
  C  C69  1  0.01990000  0.97120000  0.01610000  1
  C  C70  1  0.02790000  0.37140000  0.09240000  1
  C  C71  1  0.02920000  0.69020000  0.56990000  1
  C  C72  1  0.03930000  0.43220000  0.06450000  1
  C  C73  1  0.04560000  0.87440000  0.65800000  1
  C  C74  1  0.04570000  0.75440000  0.60040000  1
  C  C75  1  0.05430000  0.05480000  0.08290000  1
  C  C76  1  0.06990000  0.62800000  0.49000000  1
  C  C77  1  0.07560000  0.68840000  0.51700000  1
  C  C78  1  0.09620000  0.75300000  0.65110000  1
  C  C79  1  0.09810000  0.81290000  0.68090000  1
  C  C80  1  0.11500000  0.92240000  0.04320000  1
  C  C81  1  0.13390000  0.85020000  0.02390000  1
  C  C82  1  0.14090000  0.75830000  0.76750000  1
  C  C83  1  0.14600000  0.31920000  0.39130000  1
  C  C84  1  0.15800000  0.00550000  0.11050000  1
  C  C85  1  0.16840000  0.81370000  0.73460000  1
  C  C86  1  0.17640000  0.37450000  0.30320000  1
  C  C87  1  0.18950000  0.94060000  0.09040000  1
  C  C88  1  0.20170000  0.76090000  0.81820000  1
  C  C89  1  0.21430000  0.31810000  0.33750000  1
  C  C90  1  0.23980000  0.37210000  0.25380000  1
  C  C91  1  0.26020000  0.87210000  0.75380000  1
  C  C92  1  0.28570000  0.81810000  0.83750000  1
  C  C93  1  0.29830000  0.26090000  0.31820000  1
  C  C94  1  0.31050000  0.44060000  0.59040000  1
  C  C95  1  0.32360000  0.87450000  0.80320000  1
  C  C96  1  0.33160000  0.31370000  0.23460000  1
  C  C97  1  0.34200000  0.50550000  0.61050000  1
  C  C98  1  0.35400000  0.81920000  0.89130000  1
  C  C99  1  0.35910000  0.25830000  0.26750000  1
  C  C100  1  0.36610000  0.35020000  0.52390000  1
  C  C101  1  0.38500000  0.42240000  0.54320000  1
  C  C102  1  0.40190000  0.31290000  0.18090000  1
  C  C103  1  0.40380000  0.25300000  0.15110000  1
  C  C104  1  0.42440000  0.18840000  0.01700000  1
  C  C105  1  0.43010000  0.12800000  0.99000000  1
  C  C106  1  0.44570000  0.55480000  0.58290000  1
  C  C107  1  0.45430000  0.25440000  0.10040000  1
  C  C108  1  0.45440000  0.37440000  0.15800000  1
  C  C109  1  0.46070000  0.93220000  0.56450000  1
  C  C110  1  0.47080000  0.19020000  0.06990000  1
  C  C111  1  0.47210000  0.87140000  0.59240000  1
  C  C112  1  0.48010000  0.47120000  0.51610000  1
  C  C113  1  0.48960000  0.06690000  0.01300000  1
  C  C114  1  0.49170000  0.62220000  0.60710000  1
  C  C115  1  0.49230000  0.46290000  0.03480000  1
  C  C116  1  0.49650000  0.99960000  0.48480000  1
  C  C117  1  0.49810000  0.68300000  0.57780000  1
  C  C118  1  0.50190000  0.31700000  0.07780000  1
  C  C119  1  0.50350000  0.00040000  0.98480000  1
  C  C120  1  0.50770000  0.53710000  0.53480000  1
  C  C121  1  0.50830000  0.37780000  0.10710000  1
  C  C122  1  0.51040000  0.93310000  0.51300000  1
  C  C123  1  0.51990000  0.52880000  0.01610000  1
  C  C124  1  0.52790000  0.12860000  0.09240000  1
  C  C125  1  0.52920000  0.80980000  0.56990000  1
  C  C126  1  0.53930000  0.06780000  0.06450000  1
  C  C127  1  0.54560000  0.62560000  0.65800000  1
  C  C128  1  0.54570000  0.74560000  0.60040000  1
  C  C129  1  0.55430000  0.44520000  0.08290000  1
  C  C130  1  0.56990000  0.87200000  0.49000000  1
  C  C131  1  0.57560000  0.81160000  0.51700000  1
  C  C132  1  0.59620000  0.74700000  0.65110000  1
  C  C133  1  0.59810000  0.68710000  0.68090000  1
  C  C134  1  0.61500000  0.57760000  0.04320000  1
  C  C135  1  0.63390000  0.64980000  0.02390000  1
  C  C136  1  0.64090000  0.74170000  0.76750000  1
  C  C137  1  0.64600000  0.18080000  0.39130000  1
  C  C138  1  0.65800000  0.49450000  0.11050000  1
  C  C139  1  0.66840000  0.68630000  0.73460000  1
  C  C140  1  0.67640000  0.12550000  0.30320000  1
  C  C141  1  0.68950000  0.55940000  0.09040000  1
  C  C142  1  0.70170000  0.73910000  0.81820000  1
  C  C143  1  0.71430000  0.18190000  0.33750000  1
  C  C144  1  0.73980000  0.12790000  0.25380000  1
  C  C145  1  0.76020000  0.62790000  0.75380000  1
  C  C146  1  0.78570000  0.68190000  0.83750000  1
  C  C147  1  0.79830000  0.23910000  0.31820000  1
  C  C148  1  0.81050000  0.05940000  0.59040000  1
  C  C149  1  0.82360000  0.62550000  0.80320000  1
  C  C150  1  0.83160000  0.18630000  0.23460000  1
  C  C151  1  0.84200000  0.99450000  0.61050000  1
  C  C152  1  0.85400000  0.68080000  0.89130000  1
  C  C153  1  0.85910000  0.24170000  0.26750000  1
  C  C154  1  0.86610000  0.14980000  0.52390000  1
  C  C155  1  0.88500000  0.07760000  0.54320000  1
  C  C156  1  0.90190000  0.18710000  0.18090000  1
  C  C157  1  0.90380000  0.24700000  0.15110000  1
  C  C158  1  0.92440000  0.31160000  0.01700000  1
  C  C159  1  0.93010000  0.37200000  0.99000000  1
  C  C160  1  0.94570000  0.94520000  0.58290000  1
  C  C161  1  0.95430000  0.24560000  0.10040000  1
  C  C162  1  0.95440000  0.12560000  0.15800000  1
  C  C163  1  0.96070000  0.56780000  0.56450000  1
  C  C164  1  0.97080000  0.30980000  0.06990000  1
  C  C165  1  0.97210000  0.62860000  0.59240000  1
  C  C166  1  0.98010000  0.02880000  0.51610000  1
  C  C167  1  0.98960000  0.43310000  0.01300000  1
  C  C168  1  0.99170000  0.87780000  0.60710000  1
  C  C169  1  0.99230000  0.03710000  0.03480000  1
  C  C170  1  0.99650000  0.50040000  0.48480000  1
  C  C171  1  0.99810000  0.81700000  0.57780000  1
  O  O172  1  0.00380000  0.82630000  0.99680000  1
  O  O173  1  0.05130000  0.37110000  0.40570000  1
  O  O174  1  0.07350000  0.49900000  0.43930000  1
  O  O175  1  0.07360000  0.55070000  0.00360000  1
  O  O176  1  0.17020000  0.26800000  0.41890000  1
  O  O177  1  0.22330000  0.31620000  0.53270000  1
  O  O178  1  0.27670000  0.81620000  0.03270000  1
  O  O179  1  0.32980000  0.76800000  0.91890000  1
  O  O180  1  0.42640000  0.05070000  0.50360000  1
  O  O181  1  0.42650000  0.99900000  0.93930000  1
  O  O182  1  0.44870000  0.87110000  0.90570000  1
  O  O183  1  0.49620000  0.32630000  0.49680000  1
  O  O184  1  0.50380000  0.67370000  0.99680000  1
  O  O185  1  0.55130000  0.12890000  0.40570000  1
  O  O186  1  0.57350000  0.00100000  0.43930000  1
  O  O187  1  0.57360000  0.94930000  0.00360000  1
  O  O188  1  0.67020000  0.23200000  0.41890000  1
  O  O189  1  0.72330000  0.18380000  0.53270000  1
  O  O190  1  0.77670000  0.68380000  0.03270000  1
  O  O191  1  0.82980000  0.73200000  0.91890000  1
  O  O192  1  0.92640000  0.44930000  0.50360000  1
  O  O193  1  0.92650000  0.50100000  0.93930000  1
  O  O194  1  0.94870000  0.62890000  0.90570000  1
  O  O195  1  0.99620000  0.17370000  0.49680000  1
