# generated using pymatgen
data_Na2Zn8Co2H36C92N12O43
_symmetry_space_group_name_H-M   'P 1'
_cell_length_a   13.64600000
_cell_length_b   17.24119543
_cell_length_c   17.24119543
_cell_angle_alpha   112.69728668
_cell_angle_beta   95.29255662
_cell_angle_gamma   95.29255662
_symmetry_Int_Tables_number   1
_chemical_formula_structural   Na2Zn8Co2H36C92N12O43
_chemical_formula_sum   'Na2 Zn8 Co2 H36 C92 N12 O43'
_cell_volume   3690.04149030
_cell_formula_units_Z   1
loop_
 _symmetry_equiv_pos_site_id
 _symmetry_equiv_pos_as_xyz
  1  'x, y, z'
loop_
 _atom_site_type_symbol
 _atom_site_label
 _atom_site_symmetry_multiplicity
 _atom_site_fract_x
 _atom_site_fract_y
 _atom_site_fract_z
 _atom_site_occupancy
  C  C0  1  0.14530000  0.76589000  0.17431000  1
  C  C1  1  0.14530000  0.17431000  0.76589000  1
  C  C2  1  0.11810000  0.80060000  0.11660000  1
  C  C3  1  0.11810000  0.11660000  0.80060000  1
  C  C4  1  0.83590000  0.60410000  0.29750000  1
  C  C5  1  0.83590000  0.29750000  0.60410000  1
  C  C6  1  0.21270000  0.70930000  0.15590000  1
  C  C7  1  0.21270000  0.15590000  0.70930000  1
  C  C8  1  0.73960000  0.60050000  0.26050000  1
  C  C9  1  0.73960000  0.26050000  0.60050000  1
  C  C10  1  0.10720000  0.58580000  0.26180000  1
  C  C11  1  0.10720000  0.26180000  0.58580000  1
  C  C12  1  0.16430000  0.78130000  0.04330000  1
  C  C13  1  0.16430000  0.04330000  0.78130000  1
  C  C14  1  0.87140000  0.53090000  0.29250000  1
  C  C15  1  0.87140000  0.29250000  0.53090000  1
  C  C16  1  0.85950000  0.68550000  0.13770000  1
  C  C17  1  0.85950000  0.13770000  0.68550000  1
  C  C18  1  0.13390000  0.81710000  0.98010000  1
  C  C19  1  0.13390000  0.98010000  0.81710000  1
  C  C20  1  0.25850000  0.68830000  0.08470000  1
  C  C21  1  0.25850000  0.08470000  0.68830000  1
  C  C22  1  0.23530000  0.72670000  0.02830000  1
  C  C23  1  0.23530000  0.02830000  0.72670000  1
  C  C24  1  0.68080000  0.52260000  0.21980000  1
  C  C25  1  0.68080000  0.21980000  0.52260000  1
  C  C26  1  0.03370000  0.55822000  0.18398000  1
  C  C27  1  0.03370000  0.18398000  0.55822000  1
  C  C28  1  0.90890000  0.60800000  0.12120000  1
  C  C29  1  0.90890000  0.12120000  0.60800000  1
  C  C30  1  0.81420000  0.45370000  0.25010000  1
  C  C31  1  0.81420000  0.25010000  0.45370000  1
  C  C32  1  0.57560000  0.51650000  0.18130000  1
  C  C33  1  0.57560000  0.18130000  0.51650000  1
  C  C34  1  0.32910000  0.62440000  0.06580000  1
  C  C35  1  0.32910000  0.06580000  0.62440000  1
  C  C36  1  0.71860000  0.44920000  0.21500000  1
  C  C37  1  0.71860000  0.21500000  0.44920000  1
  C  C38  1  0.85490000  0.36990000  0.23890000  1
  C  C39  1  0.85490000  0.23890000  0.36990000  1
  C  C40  1  0.01420000  0.47820000  0.12000000  1
  C  C41  1  0.01420000  0.12000000  0.47820000  1
  C  C42  1  0.88130000  0.52860000  0.05660000  1
  C  C43  1  0.88130000  0.05660000  0.52860000  1
  C  C44  1  0.93600000  0.46300000  0.05660000  1
  C  C45  1  0.93600000  0.05660000  0.46300000  1
  C  C46  1  0.06400000  0.53700000  0.94340000  1
  C  C47  1  0.06400000  0.94340000  0.53700000  1
  C  C48  1  0.11870000  0.47140000  0.94340000  1
  C  C49  1  0.11870000  0.94340000  0.47140000  1
  C  C50  1  0.98580000  0.52180000  0.88000000  1
  C  C51  1  0.98580000  0.88000000  0.52180000  1
  C  C52  1  0.14510000  0.63010000  0.76110000  1
  C  C53  1  0.14510000  0.76110000  0.63010000  1
  C  C54  1  0.28140000  0.55080000  0.78500000  1
  C  C55  1  0.28140000  0.78500000  0.55080000  1
  C  C56  1  0.67090000  0.37560000  0.93420000  1
  C  C57  1  0.67090000  0.93420000  0.37560000  1
  C  C58  1  0.42440000  0.48350000  0.81870000  1
  C  C59  1  0.42440000  0.81870000  0.48350000  1
  C  C60  1  0.18580000  0.54630000  0.74990000  1
  C  C61  1  0.18580000  0.74990000  0.54630000  1
  C  C62  1  0.09110000  0.39200000  0.87880000  1
  C  C63  1  0.09110000  0.87880000  0.39200000  1
  C  C64  1  0.96630000  0.44178000  0.81602000  1
  C  C65  1  0.96630000  0.81602000  0.44178000  1
  C  C66  1  0.31920000  0.47740000  0.78020000  1
  C  C67  1  0.31920000  0.78020000  0.47740000  1
  C  C68  1  0.76470000  0.27330000  0.97170000  1
  C  C69  1  0.76470000  0.97170000  0.27330000  1
  C  C70  1  0.74150000  0.31170000  0.91530000  1
  C  C71  1  0.74150000  0.91530000  0.31170000  1
  C  C72  1  0.86610000  0.18290000  0.01990000  1
  C  C73  1  0.86610000  0.01990000  0.18290000  1
  C  C74  1  0.14050000  0.31450000  0.86230000  1
  C  C75  1  0.14050000  0.86230000  0.31450000  1
  C  C76  1  0.12860000  0.46910000  0.70750000  1
  C  C77  1  0.12860000  0.70750000  0.46910000  1
  C  C78  1  0.83570000  0.21870000  0.95670000  1
  C  C79  1  0.83570000  0.95670000  0.21870000  1
  C  C80  1  0.89280000  0.41420000  0.73820000  1
  C  C81  1  0.89280000  0.73820000  0.41420000  1
  C  C82  1  0.26040000  0.39950000  0.73950000  1
  C  C83  1  0.26040000  0.73950000  0.39950000  1
  C  C84  1  0.78730000  0.29070000  0.84410000  1
  C  C85  1  0.78730000  0.84410000  0.29070000  1
  C  C86  1  0.16410000  0.39590000  0.70250000  1
  C  C87  1  0.16410000  0.70250000  0.39590000  1
  C  C88  1  0.88190000  0.19940000  0.88340000  1
  C  C89  1  0.88190000  0.88340000  0.19940000  1
  C  C90  1  0.85470000  0.23411000  0.82569000  1
  C  C91  1  0.85470000  0.82569000  0.23411000  1
  Co  Co92  1  1.00000000  0.72133000  0.27867000  1
  Co  Co93  1  1.00000000  0.27867000  0.72133000  1
  H  H94  1  0.06960000  0.83640000  0.12640000  1
  H  H95  1  0.06960000  0.12640000  0.83640000  1
  H  H96  1  0.71510000  0.64980000  0.26320000  1
  H  H97  1  0.71510000  0.26320000  0.64980000  1
  H  H98  1  0.22800000  0.68410000  0.19370000  1
  H  H99  1  0.22800000  0.19370000  0.68410000  1
  H  H100  1  0.93520000  0.53360000  0.31840000  1
  H  H101  1  0.93520000  0.31840000  0.53360000  1
  H  H102  1  0.26770000  0.71560000  0.98080000  1
  H  H103  1  0.26770000  0.98080000  0.71560000  1
  H  H104  1  0.67890000  0.39680000  0.18780000  1
  H  H105  1  0.67890000  0.18780000  0.39680000  1
  H  H106  1  0.08070000  0.59100000  0.98640000  1
  H  H107  1  0.08070000  0.98640000  0.59100000  1
  H  H108  1  0.05220000  0.43600000  0.11940000  1
  H  H109  1  0.05220000  0.11940000  0.43600000  1
  H  H110  1  0.82830000  0.51880000  0.01440000  1
  H  H111  1  0.82830000  0.01440000  0.51880000  1
  H  H112  1  0.17170000  0.48120000  0.98560000  1
  H  H113  1  0.17170000  0.98560000  0.48120000  1
  H  H114  1  0.94780000  0.56400000  0.88060000  1
  H  H115  1  0.94780000  0.88060000  0.56400000  1
  H  H116  1  0.91930000  0.40900000  0.01360000  1
  H  H117  1  0.91930000  0.01360000  0.40900000  1
  H  H118  1  0.32110000  0.60320000  0.81220000  1
  H  H119  1  0.32110000  0.81220000  0.60320000  1
  H  H120  1  0.73230000  0.28440000  0.01920000  1
  H  H121  1  0.73230000  0.01920000  0.28440000  1
  H  H122  1  0.06480000  0.46640000  0.68160000  1
  H  H123  1  0.06480000  0.68160000  0.46640000  1
  H  H124  1  0.77200000  0.31590000  0.80630000  1
  H  H125  1  0.77200000  0.80630000  0.31590000  1
  H  H126  1  0.28490000  0.35020000  0.73680000  1
  H  H127  1  0.28490000  0.73680000  0.35020000  1
  H  H128  1  0.93040000  0.16360000  0.87360000  1
  H  H129  1  0.93040000  0.87360000  0.16360000  1
  N  N130  1  0.10100000  0.66508000  0.31652000  1
  N  N131  1  0.10100000  0.31652000  0.66508000  1
  N  N132  1  0.89590000  0.74840000  0.21060000  1
  N  N133  1  0.89590000  0.21060000  0.74840000  1
  N  N134  1  0.98240000  0.61990000  0.18310000  1
  N  N135  1  0.98240000  0.18310000  0.61990000  1
  N  N136  1  0.01760000  0.38010000  0.81690000  1
  N  N137  1  0.01760000  0.81690000  0.38010000  1
  N  N138  1  0.10410000  0.25160000  0.78940000  1
  N  N139  1  0.10410000  0.78940000  0.25160000  1
  N  N140  1  0.89900000  0.33492000  0.68348000  1
  N  N141  1  0.89900000  0.68348000  0.33492000  1
  Na  Na142  1  0.01480000  0.90340000  0.90340000  1
  Na  Na143  1  0.98520000  0.09660000  0.09660000  1
  O  O144  1  0.00000000  0.00000000  0.00000000  1
  O  O145  1  0.16530000  0.53728000  0.27452000  1
  O  O146  1  0.16530000  0.27452000  0.53728000  1
  O  O147  1  0.04730000  0.82780000  0.96880000  1
  O  O148  1  0.04730000  0.96880000  0.82780000  1
  O  O149  1  0.20090000  0.83627000  0.94193000  1
  O  O150  1  0.20090000  0.94193000  0.83627000  1
  O  O151  1  0.79320000  0.68410000  0.08610000  1
  O  O152  1  0.79320000  0.08610000  0.68410000  1
  O  O153  1  0.54940000  0.57470000  0.16650000  1
  O  O154  1  0.54940000  0.16650000  0.57470000  1
  O  O155  1  0.31780000  0.57400000  0.10220000  1
  O  O156  1  0.31780000  0.10220000  0.57400000  1
  O  O157  1  0.94380000  0.38060000  0.27360000  1
  O  O158  1  0.94380000  0.27360000  0.38060000  1
  O  O159  1  0.39230000  0.62420000  0.01660000  1
  O  O160  1  0.39230000  0.01660000  0.62420000  1
  O  O161  1  0.51630000  0.45090000  0.16570000  1
  O  O162  1  0.51630000  0.16570000  0.45090000  1
  O  O163  1  0.02870000  0.80150000  0.80150000  1
  O  O164  1  0.79910000  0.30730000  0.20970000  1
  O  O165  1  0.79910000  0.20970000  0.30730000  1
  O  O166  1  0.20090000  0.69270000  0.79030000  1
  O  O167  1  0.20090000  0.79030000  0.69270000  1
  O  O168  1  0.97130000  0.19850000  0.19850000  1
  O  O169  1  0.48370000  0.54910000  0.83430000  1
  O  O170  1  0.48370000  0.83430000  0.54910000  1
  O  O171  1  0.60770000  0.37580000  0.98340000  1
  O  O172  1  0.60770000  0.98340000  0.37580000  1
  O  O173  1  0.05620000  0.61940000  0.72640000  1
  O  O174  1  0.05620000  0.72640000  0.61940000  1
  O  O175  1  0.68220000  0.42600000  0.89780000  1
  O  O176  1  0.68220000  0.89780000  0.42600000  1
  O  O177  1  0.45060000  0.42530000  0.83350000  1
  O  O178  1  0.45060000  0.83350000  0.42530000  1
  O  O179  1  0.20680000  0.31590000  0.91390000  1
  O  O180  1  0.20680000  0.91390000  0.31590000  1
  O  O181  1  0.79910000  0.16373000  0.05807000  1
  O  O182  1  0.79910000  0.05807000  0.16373000  1
  O  O183  1  0.95270000  0.17220000  0.03120000  1
  O  O184  1  0.95270000  0.03120000  0.17220000  1
  O  O185  1  0.83470000  0.46272000  0.72548000  1
  O  O186  1  0.83470000  0.72548000  0.46272000  1
  Zn  Zn187  1  0.19872000  0.81612000  0.81612000  1
  Zn  Zn188  1  0.03083000  0.30786000  0.30786000  1
  Zn  Zn189  1  0.39312000  0.48882000  0.11704000  1
  Zn  Zn190  1  0.39312000  0.11704000  0.48882000  1
  Zn  Zn191  1  0.60688000  0.51118000  0.88296000  1
  Zn  Zn192  1  0.60688000  0.88296000  0.51118000  1
  Zn  Zn193  1  0.96917000  0.69214000  0.69214000  1
  Zn  Zn194  1  0.80128000  0.18388000  0.18388000  1
