# generated using pymatgen
data_Cu3H6C12(NO4)2
_symmetry_space_group_name_H-M   'P 1'
_cell_length_a   5.85950000
_cell_length_b   11.53820000
_cell_length_c   11.53820000
_cell_angle_alpha   85.89090000
_cell_angle_beta   78.27900000
_cell_angle_gamma   78.27920000
_symmetry_Int_Tables_number   1
_chemical_formula_structural   Cu3H6C12(NO4)2
_chemical_formula_sum   'Cu6 H12 C24 N4 O16'
_cell_volume   747.50789882
_cell_formula_units_Z   2
loop_
 _symmetry_equiv_pos_site_id
 _symmetry_equiv_pos_as_xyz
  1  'x, y, z'
loop_
 _atom_site_type_symbol
 _atom_site_label
 _atom_site_symmetry_multiplicity
 _atom_site_fract_x
 _atom_site_fract_y
 _atom_site_fract_z
 _atom_site_occupancy
  Cu  Cu0  1  0.85151000  0.26013000  0.00893000  1
  Cu  Cu1  1  0.75000000  0.99122000  0.00878000  1
  Cu  Cu2  1  0.64849000  0.99107000  0.73987000  1
  Cu  Cu3  1  0.35151000  0.00893000  0.26013000  1
  Cu  Cu4  1  0.25000000  0.00878000  0.99122000  1
  Cu  Cu5  1  0.14849000  0.73987000  0.99107000  1
  H  H6  1  0.92750000  0.09510000  0.13850000  1
  H  H7  1  0.84180000  0.45850000  0.26330000  1
  H  H8  1  0.83400000  0.69480000  0.75740000  1
  H  H9  1  0.66600000  0.24260000  0.30520000  1
  H  H10  1  0.65820000  0.73670000  0.54150000  1
  H  H11  1  0.57250000  0.86150000  0.90490000  1
  H  H12  1  0.42750000  0.13850000  0.09510000  1
  H  H13  1  0.34180000  0.26330000  0.45850000  1
  H  H14  1  0.33400000  0.75740000  0.69480000  1
  H  H15  1  0.16600000  0.30520000  0.24260000  1
  H  H16  1  0.15820000  0.54150000  0.73670000  1
  H  H17  1  0.07250000  0.90490000  0.86150000  1
  C  C18  1  0.99530000  0.56500000  0.13720000  1
  C  C19  1  0.97930000  0.46430000  0.20830000  1
  C  C20  1  0.89420000  0.04407000  0.48911000  1
  C  C21  1  0.88030000  0.11180000  0.38100000  1
  C  C22  1  0.82740000  0.62640000  0.80480000  1
  C  C23  1  0.78660000  0.66600000  0.13840000  1
  C  C24  1  0.71340000  0.86160000  0.33400000  1
  C  C25  1  0.67260000  0.19520000  0.37360000  1
  C  C26  1  0.61970000  0.61900000  0.88820000  1
  C  C27  1  0.60580000  0.51089000  0.95593000  1
  C  C28  1  0.52070000  0.79170000  0.53570000  1
  C  C29  1  0.50470000  0.86280000  0.43500000  1
  C  C30  1  0.49530000  0.13720000  0.56500000  1
  C  C31  1  0.47930000  0.20830000  0.46430000  1
  C  C32  1  0.39420000  0.48911000  0.04407000  1
  C  C33  1  0.38030000  0.38100000  0.11180000  1
  C  C34  1  0.32740000  0.80480000  0.62640000  1
  C  C35  1  0.28660000  0.13840000  0.66600000  1
  C  C36  1  0.21340000  0.33400000  0.86160000  1
  C  C37  1  0.17260000  0.37360000  0.19520000  1
  C  C38  1  0.11970000  0.88820000  0.61900000  1
  C  C39  1  0.10580000  0.95593000  0.51089000  1
  C  C40  1  0.02070000  0.53570000  0.79170000  1
  C  C41  1  0.00470000  0.43500000  0.86280000  1
  N  N42  1  0.80360000  0.42269000  0.93973000  1
  N  N43  1  0.69640000  0.06027000  0.57731000  1
  N  N44  1  0.30360000  0.93973000  0.42269000  1
  N  N45  1  0.19640000  0.57731000  0.06027000  1
  O  O46  1  0.95300000  0.89750000  0.71620000  1
  O  O47  1  0.93320000  0.09251000  0.06701000  1
  O  O48  1  0.90610000  0.79692000  0.34098000  1
  O  O49  1  0.82290000  0.75292000  0.06670000  1
  O  O50  1  0.67710000  0.93330000  0.24708000  1
  O  O51  1  0.59390000  0.65902000  0.20308000  1
  O  O52  1  0.56680000  0.93299000  0.90749000  1
  O  O53  1  0.54700000  0.28380000  0.10250000  1
  O  O54  1  0.45300000  0.71620000  0.89750000  1
  O  O55  1  0.43320000  0.06701000  0.09251000  1
  O  O56  1  0.40610000  0.34098000  0.79692000  1
  O  O57  1  0.32290000  0.06670000  0.75292000  1
  O  O58  1  0.17710000  0.24708000  0.93330000  1
  O  O59  1  0.09390000  0.20308000  0.65902000  1
  O  O60  1  0.06680000  0.90749000  0.93299000  1
  O  O61  1  0.04700000  0.10250000  0.28380000  1
