# generated using pymatgen
data_Zn3H36C66(NO6)2
_symmetry_space_group_name_H-M   'P 1'
_cell_length_a   16.18700000
_cell_length_b   17.06928688
_cell_length_c   21.89400000
_cell_angle_alpha   111.39559980
_cell_angle_beta   90.00000000
_cell_angle_gamma   118.30439323
_symmetry_Int_Tables_number   1
_chemical_formula_structural   Zn3H36C66(NO6)2
_chemical_formula_sum   'Zn6 H72 C132 N4 O24'
_cell_volume   4847.36788974
_cell_formula_units_Z   2
loop_
 _symmetry_equiv_pos_site_id
 _symmetry_equiv_pos_as_xyz
  1  'x, y, z'
loop_
 _atom_site_type_symbol
 _atom_site_label
 _atom_site_symmetry_multiplicity
 _atom_site_fract_x
 _atom_site_fract_y
 _atom_site_fract_z
 _atom_site_occupancy
  C  C0  1  0.52511000  0.98808000  0.65933000  1
  C  C1  1  0.46297000  0.98808000  0.15933000  1
  C  C2  1  0.57357000  0.98762000  0.42719000  1
  C  C3  1  0.41405000  0.98762000  0.92719000  1
  C  C4  1  0.73289000  0.92780000  0.48756000  1
  C  C5  1  0.19491000  0.92780000  0.98756000  1
  C  C6  1  0.46192000  0.91918000  0.32565000  1
  C  C7  1  0.45726000  0.91918000  0.82565000  1
  C  C8  1  0.50786000  0.91834000  0.05854000  1
  C  C9  1  0.41048000  0.91834000  0.55854000  1
  C  C10  1  0.64273000  0.91654000  0.47910000  1
  C  C11  1  0.27381000  0.91654000  0.97910000  1
  C  C12  1  0.59374000  0.90762000  0.97599000  1
  C  C13  1  0.31388000  0.90762000  0.47599000  1
  C  C14  1  0.46134000  0.90678000  0.60276000  1
  C  C15  1  0.44544000  0.90678000  0.10276000  1
  C  C16  1  0.51091000  0.90636000  0.36970000  1
  C  C17  1  0.39545000  0.90636000  0.86970000  1
  C  C18  1  0.61826000  0.86610000  0.91646000  1
  C  C19  1  0.24784000  0.86610000  0.41646000  1
  C  C20  1  0.74342000  0.85382000  0.49048000  1
  C  C21  1  0.11040000  0.85382000  0.99048000  1
  C  C22  1  0.51278000  0.85158000  0.99694000  1
  C  C23  1  0.33880000  0.85158000  0.49694000  1
  C  C24  1  0.43847000  0.83540000  0.76160000  1
  C  C25  1  0.39693000  0.83540000  0.26160000  1
  C  C26  1  0.56320000  0.82990000  0.47285000  1
  C  C27  1  0.26670000  0.82990000  0.97285000  1
  C  C28  1  0.51482000  0.82934000  0.73544000  1
  C  C29  1  0.31452000  0.82934000  0.23544000  1
  C  C30  1  0.66489000  0.76736000  0.48488000  1
  C  C31  1  0.10247000  0.76736000  0.98488000  1
  C  C32  1  0.56301000  0.76610000  0.87887000  1
  C  C33  1  0.20309000  0.76610000  0.37887000  1
  C  C34  1  0.41816000  0.76392000  0.22542000  1
  C  C35  1  0.34576000  0.76392000  0.72542000  1
  C  C36  1  0.68202000  0.76118000  0.80647000  1
  C  C37  1  0.07916000  0.76118000  0.30647000  1
  C  C38  1  0.57420000  0.75572000  0.47522000  1
  C  C39  1  0.18152000  0.75572000  0.97522000  1
  C  C40  1  0.49807000  0.75256000  0.67525000  1
  C  C41  1  0.25449000  0.75256000  0.17525000  1
  C  C42  1  0.45690000  0.75152000  0.95830000  1
  C  C43  1  0.29462000  0.75152000  0.45830000  1
  C  C44  1  0.70489000  0.72014000  0.74669000  1
  C  C45  1  0.01525000  0.72014000  0.24669000  1
  C  C46  1  0.58837000  0.71940000  0.81551000  1
  C  C47  1  0.13103000  0.71940000  0.31551000  1
  C  C48  1  0.48197000  0.70928000  0.90009000  1
  C  C49  1  0.22731000  0.70928000  0.40009000  1
  C  C50  1  0.67713000  0.68926000  0.49102000  1
  C  C51  1  0.01213000  0.68926000  0.99102000  1
  C  C52  1  0.35741000  0.68656000  0.16511000  1
  C  C53  1  0.32915000  0.68656000  0.66511000  1
  C  C54  1  0.40547000  0.68078000  0.64030000  1
  C  C55  1  0.27531000  0.68078000  0.14030000  1
  C  C56  1  0.63371000  0.63524000  0.69415000  1
  C  C57  1  0.00153000  0.63524000  0.19415000  1
  C  C58  1  0.51840000  0.63338000  0.76313000  1
  C  C59  1  0.11498000  0.63338000  0.26313000  1
  C  C60  1  0.65711000  0.59602000  0.62757000  1
  C  C61  1  0.93891000  0.59602000  0.12757000  1
  C  C62  1  0.38945000  0.59514000  0.57769000  1
  C  C63  1  0.20569000  0.59514000  0.07769000  1
  C  C64  1  0.54250000  0.59320000  0.70320000  1
  C  C65  1  0.05070000  0.59320000  0.20320000  1
  C  C66  1  0.45750000  0.40680000  0.29680000  1
  C  C67  1  0.94930000  0.40680000  0.79680000  1
  C  C68  1  0.61055000  0.40486000  0.42231000  1
  C  C69  1  0.79431000  0.40486000  0.92231000  1
  C  C70  1  0.34289000  0.40398000  0.37243000  1
  C  C71  1  0.06109000  0.40398000  0.87243000  1
  C  C72  1  0.48160000  0.36662000  0.23687000  1
  C  C73  1  0.88502000  0.36662000  0.73687000  1
  C  C74  1  0.36629000  0.36476000  0.30585000  1
  C  C75  1  0.99847000  0.36476000  0.80585000  1
  C  C76  1  0.59453000  0.31922000  0.35970000  1
  C  C77  1  0.72469000  0.31922000  0.85970000  1
  C  C78  1  0.64259000  0.31344000  0.83489000  1
  C  C79  1  0.67085000  0.31344000  0.33489000  1
  C  C80  1  0.32287000  0.31074000  0.50898000  1
  C  C81  1  0.98787000  0.31074000  0.00898000  1
  C  C82  1  0.51803000  0.29072000  0.09991000  1
  C  C83  1  0.77269000  0.29072000  0.59991000  1
  C  C84  1  0.41163000  0.28060000  0.18449000  1
  C  C85  1  0.86897000  0.28060000  0.68449000  1
  C  C86  1  0.29511000  0.27986000  0.25331000  1
  C  C87  1  0.98475000  0.27986000  0.75331000  1
  C  C88  1  0.54310000  0.24848000  0.04170000  1
  C  C89  1  0.70538000  0.24848000  0.54170000  1
  C  C90  1  0.50193000  0.24744000  0.32475000  1
  C  C91  1  0.74551000  0.24744000  0.82475000  1
  C  C92  1  0.42580000  0.24428000  0.52478000  1
  C  C93  1  0.81848000  0.24428000  0.02478000  1
  C  C94  1  0.31798000  0.23882000  0.19353000  1
  C  C95  1  0.92084000  0.23882000  0.69353000  1
  C  C96  1  0.58184000  0.23608000  0.77458000  1
  C  C97  1  0.65424000  0.23608000  0.27458000  1
  C  C98  1  0.43699000  0.23390000  0.12113000  1
  C  C99  1  0.79691000  0.23390000  0.62113000  1
  C  C100  1  0.33511000  0.23264000  0.51512000  1
  C  C101  1  0.89753000  0.23264000  0.01512000  1
  C  C102  1  0.48518000  0.17066000  0.26456000  1
  C  C103  1  0.68548000  0.17066000  0.76456000  1
  C  C104  1  0.43680000  0.17010000  0.52715000  1
  C  C105  1  0.73330000  0.17010000  0.02715000  1
  C  C106  1  0.56153000  0.16460000  0.23840000  1
  C  C107  1  0.60307000  0.16460000  0.73840000  1
  C  C108  1  0.48722000  0.14842000  0.00306000  1
  C  C109  1  0.66120000  0.14842000  0.50306000  1
  C  C110  1  0.25658000  0.14618000  0.50952000  1
  C  C111  1  0.88960000  0.14618000  0.00952000  1
  C  C112  1  0.38174000  0.13390000  0.08354000  1
  C  C113  1  0.75216000  0.13390000  0.58354000  1
  C  C114  1  0.48909000  0.09364000  0.63030000  1
  C  C115  1  0.60455000  0.09364000  0.13030000  1
  C  C116  1  0.53866000  0.09322000  0.39724000  1
  C  C117  1  0.55456000  0.09322000  0.89724000  1
  C  C118  1  0.40626000  0.09238000  0.02401000  1
  C  C119  1  0.68612000  0.09238000  0.52401000  1
  C  C120  1  0.35727000  0.08346000  0.52090000  1
  C  C121  1  0.72619000  0.08346000  0.02090000  1
  C  C122  1  0.49214000  0.08166000  0.94146000  1
  C  C123  1  0.58952000  0.08166000  0.44146000  1
  C  C124  1  0.53808000  0.08082000  0.67435000  1
  C  C125  1  0.54274000  0.08082000  0.17435000  1
  C  C126  1  0.26711000  0.07220000  0.51244000  1
  C  C127  1  0.80509000  0.07220000  0.01244000  1
  C  C128  1  0.42643000  0.01238000  0.57281000  1
  C  C129  1  0.58595000  0.01238000  0.07281000  1
  C  C130  1  0.47489000  0.01192000  0.34067000  1
  C  C131  1  0.53703000  0.01192000  0.84067000  1
  H  H132  1  0.78660000  0.98560000  0.49130000  1
  H  H133  1  0.19900000  0.98560000  0.99130000  1
  H  H134  1  0.56040000  0.98100000  0.68830000  1
  H  H135  1  0.42060000  0.98100000  0.18830000  1
  H  H136  1  0.67060000  0.90480000  0.90240000  1
  H  H137  1  0.23420000  0.90480000  0.40240000  1
  H  H138  1  0.57760000  0.87720000  0.75850000  1
  H  H139  1  0.29960000  0.87720000  0.25850000  1
  H  H140  1  0.80440000  0.86220000  0.49630000  1
  H  H141  1  0.05780000  0.86220000  0.99630000  1
  H  H142  1  0.45260000  0.84560000  0.59430000  1
  H  H143  1  0.39300000  0.84560000  0.09430000  1
  H  H144  1  0.50200000  0.84500000  0.36100000  1
  H  H145  1  0.34300000  0.84500000  0.86100000  1
  H  H146  1  0.50220000  0.82160000  0.46700000  1
  H  H147  1  0.31940000  0.82160000  0.96700000  1
  H  H148  1  0.73020000  0.81760000  0.84110000  1
  H  H149  1  0.08740000  0.81760000  0.34110000  1
  H  H150  1  0.47360000  0.76760000  0.24160000  1
  H  H151  1  0.29400000  0.76760000  0.74160000  1
  H  H152  1  0.76810000  0.74940000  0.74150000  1
  H  H153  1  0.54960000  0.74940000  0.65830000  1
  H  H154  1  0.19980000  0.74940000  0.15830000  1
  H  H155  1  0.98130000  0.74940000  0.24150000  1
  H  H156  1  0.40310000  0.71320000  0.97150000  1
  H  H157  1  0.31010000  0.71320000  0.47150000  1
  H  H158  1  0.52030000  0.69720000  0.47030000  1
  H  H159  1  0.17690000  0.69720000  0.97030000  1
  H  H160  1  0.44480000  0.64220000  0.87440000  1
  H  H161  1  0.19740000  0.64220000  0.37440000  1
  H  H162  1  0.37220000  0.63880000  0.14160000  1
  H  H163  1  0.26660000  0.63880000  0.64160000  1
  H  H164  1  0.45530000  0.60260000  0.76830000  1
  H  H165  1  0.14730000  0.60260000  0.26830000  1
  H  H166  1  0.49490000  0.53620000  0.66860000  1
  H  H167  1  0.04130000  0.53620000  0.16860000  1
  H  H168  1  0.50510000  0.46380000  0.33140000  1
  H  H169  1  0.95870000  0.46380000  0.83140000  1
  H  H170  1  0.54470000  0.39740000  0.23170000  1
  H  H171  1  0.85270000  0.39740000  0.73170000  1
  H  H172  1  0.62780000  0.36120000  0.85840000  1
  H  H173  1  0.73340000  0.36120000  0.35840000  1
  H  H174  1  0.55520000  0.35780000  0.12560000  1
  H  H175  1  0.80260000  0.35780000  0.62560000  1
  H  H176  1  0.47970000  0.30280000  0.52970000  1
  H  H177  1  0.82310000  0.30280000  0.02970000  1
  H  H178  1  0.59690000  0.28680000  0.02850000  1
  H  H179  1  0.68990000  0.28680000  0.52850000  1
  H  H180  1  0.45040000  0.25060000  0.34170000  1
  H  H181  1  0.23190000  0.25060000  0.25850000  1
  H  H182  1  0.01870000  0.25060000  0.75850000  1
  H  H183  1  0.80020000  0.25060000  0.84170000  1
  H  H184  1  0.52640000  0.23240000  0.75840000  1
  H  H185  1  0.70600000  0.23240000  0.25840000  1
  H  H186  1  0.26980000  0.18240000  0.15890000  1
  H  H187  1  0.91260000  0.18240000  0.65890000  1
  H  H188  1  0.49780000  0.17840000  0.53300000  1
  H  H189  1  0.68060000  0.17840000  0.03300000  1
  H  H190  1  0.49800000  0.15500000  0.63900000  1
  H  H191  1  0.65700000  0.15500000  0.13900000  1
  H  H192  1  0.54740000  0.15440000  0.40570000  1
  H  H193  1  0.60700000  0.15440000  0.90570000  1
  H  H194  1  0.19560000  0.13780000  0.50370000  1
  H  H195  1  0.94220000  0.13780000  0.00370000  1
  H  H196  1  0.42240000  0.12280000  0.24150000  1
  H  H197  1  0.70040000  0.12280000  0.74150000  1
  H  H198  1  0.32940000  0.09520000  0.09760000  1
  H  H199  1  0.76580000  0.09520000  0.59760000  1
  H  H200  1  0.43960000  0.01900000  0.31170000  1
  H  H201  1  0.57940000  0.01900000  0.81170000  1
  H  H202  1  0.21340000  0.01440000  0.50870000  1
  H  H203  1  0.80100000  0.01440000  0.00870000  1
  N  N204  1  0.63285000  0.99418000  0.47809000  1
  N  N205  1  0.36133000  0.99418000  0.97809000  1
  N  N206  1  0.36715000  0.00582000  0.52191000  1
  N  N207  1  0.63867000  0.00582000  0.02191000  1
  O  O208  1  0.75870000  0.70240000  0.50273000  1
  O  O209  1  0.94370000  0.70240000  0.00273000  1
  O  O210  1  0.74214000  0.63688000  0.62137000  1
  O  O211  1  0.89474000  0.63688000  0.12137000  1
  O  O212  1  0.60747000  0.61254000  0.48350000  1
  O  O213  1  0.00507000  0.61254000  0.98350000  1
  O  O214  1  0.46301000  0.59392000  0.56158000  1
  O  O215  1  0.13091000  0.59392000  0.06158000  1
  O  O216  1  0.30321000  0.53306000  0.54644000  1
  O  O217  1  0.22985000  0.53306000  0.04644000  1
  O  O218  1  0.59091000  0.52252000  0.58047000  1
  O  O219  1  0.93161000  0.52252000  0.08047000  1
  O  O220  1  0.40909000  0.47748000  0.41953000  1
  O  O221  1  0.06839000  0.47748000  0.91953000  1
  O  O222  1  0.69679000  0.46694000  0.45356000  1
  O  O223  1  0.77015000  0.46694000  0.95356000  1
  O  O224  1  0.53699000  0.40608000  0.43842000  1
  O  O225  1  0.86909000  0.40608000  0.93842000  1
  O  O226  1  0.39253000  0.38746000  0.51650000  1
  O  O227  1  0.99493000  0.38746000  0.01650000  1
  O  O228  1  0.25786000  0.36312000  0.37863000  1
  O  O229  1  0.10526000  0.36312000  0.87863000  1
  O  O230  1  0.24130000  0.29760000  0.49727000  1
  O  O231  1  0.05630000  0.29760000  0.99727000  1
  Zn  Zn232  1  0.74990000  0.59684000  0.52563000  1
  Zn  Zn233  1  0.84694000  0.59684000  0.02563000  1
  Zn  Zn234  1  0.50000000  0.50000000  0.50000000  1
  Zn  Zn235  1  1.00000000  0.50000000  0.00000000  1
  Zn  Zn236  1  0.25010000  0.40316000  0.47437000  1
  Zn  Zn237  1  0.15306000  0.40316000  0.97437000  1
