# generated using pymatgen
data_KSmH6C14(SO5)2
_symmetry_space_group_name_H-M   'P 1'
_cell_length_a   8.48340000
_cell_length_b   28.33462889
_cell_length_c   28.33462889
_cell_angle_alpha   119.01639679
_cell_angle_beta   95.72766191
_cell_angle_gamma   95.72766191
_symmetry_Int_Tables_number   1
_chemical_formula_structural   KSmH6C14(SO5)2
_chemical_formula_sum   'K6 Sm6 H36 C84 S12 O60'
_cell_volume   5839.67053665
_cell_formula_units_Z   6
loop_
 _symmetry_equiv_pos_site_id
 _symmetry_equiv_pos_as_xyz
  1  'x, y, z'
loop_
 _atom_site_type_symbol
 _atom_site_label
 _atom_site_symmetry_multiplicity
 _atom_site_fract_x
 _atom_site_fract_y
 _atom_site_fract_z
 _atom_site_occupancy
  C  C0  1  0.09336000  0.78065000  0.25813000  1
  C  C1  1  0.59336000  0.25813000  0.78065000  1
  C  C2  1  0.23605000  0.78338000  0.28657000  1
  C  C3  1  0.73605000  0.28657000  0.78338000  1
  C  C4  1  0.03142000  0.82970000  0.27466000  1
  C  C5  1  0.53142000  0.27466000  0.82970000  1
  C  C6  1  0.94850000  0.60053000  0.52967000  1
  C  C7  1  0.44850000  0.52967000  0.60053000  1
  C  C8  1  0.31437000  0.83202000  0.33189000  1
  C  C9  1  0.81437000  0.33189000  0.83202000  1
  C  C10  1  0.98248000  0.66811000  0.50013000  1
  C  C11  1  0.48248000  0.50013000  0.66811000  1
  C  C12  1  0.90307000  0.65072000  0.53039000  1
  C  C13  1  0.40307000  0.53039000  0.65072000  1
  C  C14  1  0.11245000  0.87870000  0.31875000  1
  C  C15  1  0.61245000  0.31875000  0.87870000  1
  C  C16  1  0.94948000  0.71343000  0.49681000  1
  C  C17  1  0.44948000  0.49681000  0.71343000  1
  C  C18  1  0.25235000  0.87967000  0.34928000  1
  C  C19  1  0.75235000  0.34928000  0.87967000  1
  C  C20  1  0.79370000  0.68125000  0.55995000  1
  C  C21  1  0.29370000  0.55995000  0.68125000  1
  C  C22  1  0.82233000  0.79218000  0.47101000  1
  C  C23  1  0.32233000  0.47101000  0.79218000  1
  C  C24  1  0.83523000  0.74187000  0.52252000  1
  C  C25  1  0.33523000  0.52252000  0.74187000  1
  C  C26  1  0.75676000  0.72534000  0.55504000  1
  C  C27  1  0.25676000  0.55504000  0.72534000  1
  C  C28  1  0.78999000  0.83731000  0.46536000  1
  C  C29  1  0.28999000  0.46536000  0.83731000  1
  C  C30  1  0.79029000  0.78837000  0.51640000  1
  C  C31  1  0.29029000  0.51640000  0.78837000  1
  C  C32  1  0.34797000  0.92914000  0.39947000  1
  C  C33  1  0.84797000  0.39947000  0.92914000  1
  C  C34  1  0.71498000  0.87629000  0.50315000  1
  C  C35  1  0.21498000  0.50315000  0.87629000  1
  C  C36  1  0.71939000  0.82891000  0.55386000  1
  C  C37  1  0.21939000  0.55386000  0.82891000  1
  C  C38  1  0.67633000  0.87057000  0.54622000  1
  C  C39  1  0.17633000  0.54622000  0.87057000  1
  C  C40  1  0.66907000  0.92477000  0.49934000  1
  C  C41  1  0.16907000  0.49934000  0.92477000  1
  C  C42  1  0.91883000  0.07086000  0.47033000  1
  C  C43  1  0.41883000  0.47033000  0.07086000  1
  C  C44  1  0.73375000  0.12130000  0.44005000  1
  C  C45  1  0.23375000  0.44005000  0.12130000  1
  C  C46  1  0.87268000  0.12033000  0.46961000  1
  C  C47  1  0.37268000  0.46961000  0.12033000  1
  C  C48  1  0.70172000  0.17030000  0.44496000  1
  C  C49  1  0.20172000  0.44496000  0.17030000  1
  C  C50  1  0.24430000  0.07523000  0.57457000  1
  C  C51  1  0.74430000  0.57457000  0.07523000  1
  C  C52  1  0.98235000  0.16798000  0.49987000  1
  C  C53  1  0.48235000  0.49987000  0.16798000  1
  C  C54  1  0.81271000  0.21935000  0.47748000  1
  C  C55  1  0.31271000  0.47748000  0.21935000  1
  C  C56  1  0.95267000  0.21662000  0.50319000  1
  C  C57  1  0.45267000  0.50319000  0.21662000  1
  C  C58  1  0.16553000  0.44614000  0.27505000  1
  C  C59  1  0.66553000  0.27505000  0.44614000  1
  C  C60  1  0.33869000  0.12371000  0.62686000  1
  C  C61  1  0.83869000  0.62686000  0.12371000  1
  C  C62  1  0.27389000  0.48360000  0.27197000  1
  C  C63  1  0.77389000  0.27197000  0.48360000  1
  C  C64  1  0.13011000  0.45378000  0.32435000  1
  C  C65  1  0.63011000  0.32435000  0.45378000  1
  C  C66  1  0.45268000  0.16269000  0.62805000  1
  C  C67  1  0.95268000  0.62805000  0.16269000  1
  C  C68  1  0.30576000  0.12943000  0.67565000  1
  C  C69  1  0.80576000  0.67565000  0.12943000  1
  C  C70  1  0.35132000  0.52899000  0.32117000  1
  C  C71  1  0.85132000  0.32117000  0.52899000  1
  C  C72  1  0.21183000  0.49685000  0.37314000  1
  C  C73  1  0.71183000  0.37314000  0.49685000  1
  C  C74  1  0.53015000  0.20782000  0.67883000  1
  C  C75  1  0.03015000  0.67883000  0.20782000  1
  C  C76  1  0.39048000  0.17109000  0.72495000  1
  C  C77  1  0.89048000  0.72495000  0.17109000  1
  C  C78  1  0.32463000  0.53464000  0.37195000  1
  C  C79  1  0.82463000  0.37195000  0.53464000  1
  C  C80  1  0.16973000  0.50066000  0.42543000  1
  C  C81  1  0.66973000  0.42543000  0.50066000  1
  C  C82  1  0.50192000  0.21163000  0.72803000  1
  C  C83  1  0.00192000  0.72803000  0.21163000  1
  H  H84  1  0.28210000  0.75210000  0.27540000  1
  H  H85  1  0.78210000  0.27540000  0.75210000  1
  H  H86  1  0.93460000  0.82910000  0.25570000  1
  H  H87  1  0.43460000  0.25570000  0.82910000  1
  H  H88  1  0.05990000  0.64900000  0.48150000  1
  H  H89  1  0.55990000  0.48150000  0.64900000  1
  H  H90  1  0.41090000  0.83250000  0.35100000  1
  H  H91  1  0.91090000  0.35100000  0.83250000  1
  H  H92  1  0.00670000  0.72460000  0.47670000  1
  H  H93  1  0.50670000  0.47670000  0.72460000  1
  H  H94  1  0.86560000  0.76460000  0.44390000  1
  H  H95  1  0.36560000  0.44390000  0.76460000  1
  H  H96  1  0.67890000  0.74430000  0.57340000  1
  H  H97  1  0.17890000  0.57340000  0.74430000  1
  H  H98  1  0.70000000  0.82810000  0.58530000  1
  H  H99  1  0.20000000  0.58530000  0.82810000  1
  H  H100  1  0.62000000  0.89540000  0.57080000  1
  H  H101  1  0.12000000  0.57080000  0.89540000  1
  H  H102  1  0.60550000  0.17090000  0.42660000  1
  H  H103  1  0.10550000  0.42660000  0.17090000  1
  H  H104  1  0.11470000  0.41470000  0.24280000  1
  H  H105  1  0.61470000  0.24280000  0.41470000  1
  H  H106  1  0.07840000  0.16750000  0.51850000  1
  H  H107  1  0.57840000  0.51850000  0.16750000  1
  H  H108  1  0.04920000  0.42920000  0.32460000  1
  H  H109  1  0.54920000  0.32460000  0.42920000  1
  H  H110  1  0.03000000  0.24790000  0.52330000  1
  H  H111  1  0.53000000  0.52330000  0.24790000  1
  H  H112  1  0.22460000  0.10460000  0.67540000  1
  H  H113  1  0.72460000  0.67540000  0.10460000  1
  H  H114  1  0.42170000  0.55610000  0.32070000  1
  H  H115  1  0.92170000  0.32070000  0.55610000  1
  H  H116  1  0.60100000  0.23540000  0.67930000  1
  H  H117  1  0.10100000  0.67930000  0.23540000  1
  H  H118  1  0.37190000  0.17190000  0.75720000  1
  H  H119  1  0.87190000  0.75720000  0.17190000  1
  K  K120  1  0.64564000  0.90244000  0.32228000  1
  K  K121  1  0.14564000  0.32228000  0.90244000  1
  K  K122  1  0.32336000  0.67772000  0.58016000  1
  K  K123  1  0.82336000  0.58016000  0.67772000  1
  K  K124  1  0.24320000  0.09756000  0.41984000  1
  K  K125  1  0.74320000  0.41984000  0.09756000  1
  O  O126  1  0.55677000  0.56937000  0.45224000  1
  O  O127  1  0.05677000  0.45224000  0.56937000  1
  O  O128  1  0.52380000  0.62695000  0.41215000  1
  O  O129  1  0.02380000  0.41215000  0.62695000  1
  O  O130  1  0.83823000  0.56177000  0.52202000  1
  O  O131  1  0.33823000  0.52202000  0.56177000  1
  O  O132  1  0.33243000  0.61855000  0.46744000  1
  O  O133  1  0.83243000  0.46744000  0.61855000  1
  O  O134  1  0.09195000  0.59595000  0.53440000  1
  O  O135  1  0.59195000  0.53440000  0.59595000  1
  O  O136  1  0.89685000  0.78520000  0.37305000  1
  O  O137  1  0.39685000  0.37305000  0.78520000  1
  O  O138  1  0.56914000  0.61762000  0.56910000  1
  O  O139  1  0.06914000  0.56910000  0.61762000  1
  O  O140  1  0.91030000  0.92491000  0.28709000  1
  O  O141  1  0.41030000  0.28709000  0.92491000  1
  O  O142  1  0.71388000  0.84889000  0.38145000  1
  O  O143  1  0.21388000  0.38145000  0.84889000  1
  O  O144  1  0.81670000  0.65363000  0.63437000  1
  O  O145  1  0.31670000  0.63437000  0.65363000  1
  O  O146  1  0.98740000  0.88287000  0.43063000  1
  O  O147  1  0.48740000  0.43063000  0.88287000  1
  O  O148  1  0.16307000  0.98074000  0.34637000  1
  O  O149  1  0.66307000  0.34637000  0.98074000  1
  O  O150  1  0.95152000  0.95148000  0.38238000  1
  O  O151  1  0.45152000  0.38238000  0.95148000  1
  O  O152  1  0.49600000  0.93845000  0.40405000  1
  O  O153  1  0.99600000  0.40405000  0.93845000  1
  O  O154  1  0.62321000  0.71291000  0.63782000  1
  O  O155  1  0.12321000  0.63782000  0.71291000  1
  O  O156  1  0.68233000  0.01926000  0.36563000  1
  O  O157  1  0.18233000  0.36563000  0.01926000  1
  O  O158  1  0.27646000  0.96025000  0.43823000  1
  O  O159  1  0.77646000  0.43823000  0.96025000  1
  O  O160  1  0.48539000  0.07509000  0.36218000  1
  O  O161  1  0.98539000  0.36218000  0.07509000  1
  O  O162  1  0.52944000  0.93493000  0.50649000  1
  O  O163  1  0.02944000  0.50649000  0.93493000  1
  O  O164  1  0.76935000  0.95554000  0.49191000  1
  O  O165  1  0.26935000  0.49191000  0.95554000  1
  O  O166  1  0.50004000  0.04852000  0.43090000  1
  O  O167  1  0.00004000  0.43090000  0.04852000  1
  O  O168  1  0.81621000  0.03975000  0.47798000  1
  O  O169  1  0.31621000  0.47798000  0.03975000  1
  O  O170  1  0.05755000  0.06155000  0.46560000  1
  O  O171  1  0.55755000  0.46560000  0.06155000  1
  O  O172  1  0.31381000  0.04446000  0.53637000  1
  O  O173  1  0.81381000  0.53637000  0.04446000  1
  O  O174  1  0.09451000  0.06507000  0.57156000  1
  O  O175  1  0.59451000  0.57156000  0.06507000  1
  O  O176  1  0.60453000  0.11713000  0.54776000  1
  O  O177  1  0.10453000  0.54776000  0.11713000  1
  O  O178  1  0.36499000  0.15111000  0.53256000  1
  O  O179  1  0.86499000  0.53256000  0.15111000  1
  O  O180  1  0.61165000  0.21480000  0.58785000  1
  O  O181  1  0.11165000  0.58785000  0.21480000  1
  O  O182  1  0.02295000  0.49351000  0.42844000  1
  O  O183  1  0.52295000  0.42844000  0.49351000  1
  O  O184  1  0.27744000  0.50809000  0.46363000  1
  O  O185  1  0.77744000  0.46363000  0.50809000  1
  S  S186  1  0.44304000  0.59329000  0.43117000  1
  S  S187  1  0.94304000  0.43117000  0.59329000  1
  S  S188  1  0.84975000  0.83788000  0.40671000  1
  S  S189  1  0.34975000  0.40671000  0.83788000  1
  S  S190  1  0.69526000  0.66538000  0.60465000  1
  S  S191  1  0.19526000  0.60465000  0.66538000  1
  S  S192  1  0.02988000  0.93927000  0.33462000  1
  S  S193  1  0.52988000  0.33462000  0.93927000  1
  S  S194  1  0.59061000  0.06073000  0.39535000  1
  S  S195  1  0.09061000  0.39535000  0.06073000  1
  S  S196  1  0.51187000  0.16212000  0.56883000  1
  S  S197  1  0.01187000  0.56883000  0.16212000  1
  Sm  Sm198  1  0.55691000  0.52212000  0.50263000  1
  Sm  Sm199  1  0.05691000  0.50263000  0.52212000  1
  Sm  Sm200  1  0.03479000  0.98051000  0.47788000  1
  Sm  Sm201  1  0.53479000  0.47788000  0.98051000  1
  Sm  Sm202  1  0.55428000  0.01949000  0.49737000  1
  Sm  Sm203  1  0.05428000  0.49737000  0.01949000  1
