# generated using pymatgen
data_Ni3H38C60(NO)12
_symmetry_space_group_name_H-M   'P 1'
_cell_length_a   13.38650000
_cell_length_b   13.48322130
_cell_length_c   23.93871908
_cell_angle_alpha   79.73807432
_cell_angle_beta   73.76370661
_cell_angle_gamma   60.23701368
_symmetry_Int_Tables_number   1
_chemical_formula_structural   Ni3H38C60(NO)12
_chemical_formula_sum   'Ni6 H76 C120 N24 O24'
_cell_volume   3597.19496294
_cell_formula_units_Z   2
loop_
 _symmetry_equiv_pos_site_id
 _symmetry_equiv_pos_as_xyz
  1  'x, y, z'
loop_
 _atom_site_type_symbol
 _atom_site_label
 _atom_site_symmetry_multiplicity
 _atom_site_fract_x
 _atom_site_fract_y
 _atom_site_fract_z
 _atom_site_occupancy
  C  C0  1  0.99784000  0.60847000  0.37485000  1
  C  C1  1  0.01884000  0.10847000  0.87485000  1
  C  C2  1  0.80649000  0.98155000  0.99007000  1
  C  C3  1  0.22189000  0.48155000  0.49007000  1
  C  C4  1  0.94739000  0.32738000  0.63924000  1
  C  C5  1  0.08599000  0.82738000  0.13924000  1
  C  C6  1  0.53508000  0.50789000  0.42735000  1
  C  C7  1  0.52968000  0.00789000  0.92735000  1
  C  C8  1  0.62121000  0.53369000  0.40049000  1
  C  C9  1  0.44461000  0.03369000  0.90049000  1
  C  C10  1  0.86501000  0.39777000  0.49321000  1
  C  C11  1  0.24401000  0.89777000  0.99321000  1
  C  C12  1  0.03798000  0.09997000  0.78207000  1
  C  C13  1  0.07998000  0.59997000  0.28207000  1
  C  C14  1  0.86861000  0.49458000  0.35180000  1
  C  C15  1  0.28501000  0.99458000  0.85180000  1
  C  C16  1  0.98658000  0.36346000  0.47778000  1
  C  C17  1  0.17218000  0.86346000  0.97778000  1
  C  C18  1  0.80094000  0.16216000  0.66916000  1
  C  C19  1  0.36774000  0.66216000  0.16916000  1
  C  C20  1  0.82926000  0.31885000  0.49043000  1
  C  C21  1  0.36146000  0.81885000  0.99043000  1
  C  C22  1  0.97497000  0.48450000  0.31716000  1
  C  C23  1  0.22337000  0.98450000  0.81716000  1
  C  C24  1  0.82877000  0.42169000  0.34497000  1
  C  C25  1  0.40457000  0.92169000  0.84497000  1
  C  C26  1  0.70625000  0.16330000  0.59220000  1
  C  C27  1  0.53825000  0.66330000  0.09220000  1
  C  C28  1  0.68347000  0.35199000  0.39227000  1
  C  C29  1  0.57227000  0.85199000  0.89227000  1
  C  C30  1  0.79771000  0.10587000  0.62091000  1
  C  C31  1  0.47551000  0.60587000  0.12091000  1
  C  C32  1  0.87104000  0.89292000  0.83000000  1
  C  C33  1  0.40604000  0.39292000  0.33000000  1
  C  C34  1  0.06592000  0.25469000  0.46027000  1
  C  C35  1  0.21912000  0.75469000  0.96027000  1
  C  C36  1  0.69613000  0.67995000  0.01139000  1
  C  C37  1  0.61253000  0.17995000  0.51139000  1
  C  C38  1  0.90948000  0.21077000  0.47047000  1
  C  C39  1  0.40928000  0.71077000  0.97047000  1
  C  C40  1  0.04238000  0.40221000  0.27543000  1
  C  C41  1  0.27998000  0.90221000  0.77543000  1
  C  C42  1  0.70295000  0.11410000  0.54680000  1
  C  C43  1  0.63615000  0.61410000  0.04680000  1
  C  C44  1  0.89451000  0.33860000  0.30338000  1
  C  C45  1  0.46351000  0.83860000  0.80338000  1
  C  C46  1  0.02999000  0.17686000  0.45556000  1
  C  C47  1  0.33759000  0.67686000  0.95556000  1
  C  C48  1  0.92574000  0.85607000  0.77545000  1
  C  C49  1  0.44274000  0.35607000  0.27545000  1
  C  C50  1  0.99890000  0.33090000  0.26930000  1
  C  C51  1  0.40090000  0.83090000  0.76930000  1
  C  C52  1  0.88540000  0.99437000  0.60543000  1
  C  C53  1  0.51480000  0.49437000  0.10543000  1
  C  C54  1  0.89410000  0.72397000  0.83143000  1
  C  C55  1  0.55050000  0.22397000  0.33143000  1
  C  C56  1  0.78996000  0.00322000  0.53206000  1
  C  C57  1  0.67476000  0.50322000  0.03206000  1
  C  C58  1  0.88057000  0.94182000  0.56144000  1
  C  C59  1  0.61617000  0.44182000  0.06144000  1
  C  C60  1  0.11943000  0.05818000  0.43856000  1
  C  C61  1  0.38383000  0.55818000  0.93856000  1
  C  C62  1  0.21004000  0.99678000  0.46794000  1
  C  C63  1  0.32524000  0.49678000  0.96794000  1
  C  C64  1  0.10590000  0.27603000  0.16857000  1
  C  C65  1  0.44950000  0.77603000  0.66857000  1
  C  C66  1  0.11460000  0.00563000  0.39457000  1
  C  C67  1  0.48520000  0.50563000  0.89457000  1
  C  C68  1  0.00110000  0.66910000  0.73070000  1
  C  C69  1  0.59910000  0.16910000  0.23070000  1
  C  C70  1  0.07426000  0.14393000  0.22455000  1
  C  C71  1  0.55726000  0.64393000  0.72455000  1
  C  C72  1  0.97001000  0.82314000  0.54444000  1
  C  C73  1  0.66241000  0.32314000  0.04444000  1
  C  C74  1  0.10549000  0.66140000  0.69662000  1
  C  C75  1  0.53649000  0.16140000  0.19662000  1
  C  C76  1  0.29705000  0.88590000  0.45320000  1
  C  C77  1  0.36385000  0.38590000  0.95320000  1
  C  C78  1  0.95762000  0.59779000  0.72457000  1
  C  C79  1  0.72002000  0.09779000  0.22457000  1
  C  C80  1  0.09052000  0.78923000  0.52953000  1
  C  C81  1  0.59072000  0.28923000  0.02953000  1
  C  C82  1  0.30387000  0.32005000  0.98861000  1
  C  C83  1  0.38747000  0.82005000  0.48861000  1
  C  C84  1  0.93408000  0.74531000  0.53973000  1
  C  C85  1  0.78088000  0.24531000  0.03973000  1
  C  C86  1  0.12896000  0.10708000  0.17000000  1
  C  C87  1  0.59396000  0.60708000  0.67000000  1
  C  C88  1  0.20229000  0.89413000  0.37909000  1
  C  C89  1  0.52449000  0.39413000  0.87909000  1
  C  C90  1  0.31653000  0.64801000  0.60773000  1
  C  C91  1  0.42773000  0.14801000  0.10773000  1
  C  C92  1  0.29375000  0.83670000  0.40780000  1
  C  C93  1  0.46175000  0.33670000  0.90780000  1
  C  C94  1  0.17123000  0.57831000  0.65503000  1
  C  C95  1  0.59543000  0.07831000  0.15503000  1
  C  C96  1  0.02503000  0.51550000  0.68284000  1
  C  C97  1  0.77663000  0.01550000  0.18284000  1
  C  C98  1  0.17074000  0.68115000  0.50957000  1
  C  C99  1  0.63854000  0.18115000  0.00957000  1
  C  C100  1  0.19906000  0.83784000  0.33084000  1
  C  C101  1  0.63226000  0.33784000  0.83084000  1
  C  C102  1  0.01342000  0.63654000  0.52222000  1
  C  C103  1  0.82782000  0.13654000  0.02222000  1
  C  C104  1  0.13139000  0.50542000  0.64820000  1
  C  C105  1  0.71499000  0.00542000  0.14820000  1
  C  C106  1  0.96202000  0.90003000  0.21793000  1
  C  C107  1  0.92002000  0.40003000  0.71793000  1
  C  C108  1  0.13499000  0.60223000  0.50679000  1
  C  C109  1  0.75599000  0.10223000  0.00679000  1
  C  C110  1  0.37879000  0.46631000  0.59951000  1
  C  C111  1  0.55539000  0.96631000  0.09951000  1
  C  C112  1  0.46492000  0.49211000  0.57265000  1
  C  C113  1  0.47032000  0.99211000  0.07265000  1
  C  C114  1  0.05261000  0.67262000  0.36076000  1
  C  C115  1  0.91401000  0.17262000  0.86076000  1
  C  C116  1  0.19351000  0.01845000  0.00993000  1
  C  C117  1  0.77811000  0.51845000  0.50993000  1
  C  C118  1  0.00216000  0.39153000  0.62515000  1
  C  C119  1  0.98116000  0.89153000  0.12515000  1
  H  H120  1  0.62020000  0.89500000  0.10240000  1
  H  H121  1  0.38240000  0.39500000  0.60240000  1
  H  H122  1  0.54080000  0.44070000  0.55430000  1
  H  H123  1  0.46420000  0.94070000  0.05430000  1
  H  H124  1  0.96550000  0.90170000  0.08850000  1
  H  H125  1  0.04430000  0.40170000  0.58850000  1
  H  H126  1  0.82450000  0.55000000  0.37940000  1
  H  H127  1  0.24610000  0.05000000  0.87940000  1
  H  H128  1  0.94420000  0.28600000  0.61320000  1
  H  H129  1  0.15660000  0.78600000  0.11320000  1
  H  H130  1  0.01320000  0.41450000  0.47950000  1
  H  H131  1  0.09280000  0.91450000  0.97950000  1
  H  H132  1  0.74950000  0.33890000  0.50230000  1
  H  H133  1  0.40930000  0.83890000  0.00230000  1
  H  H134  1  0.64620000  0.23560000  0.60340000  1
  H  H135  1  0.51480000  0.73560000  0.10340000  1
  H  H136  1  0.07130000  0.08110000  0.74330000  1
  H  H137  1  0.10430000  0.58110000  0.24330000  1
  H  H138  1  0.84510000  0.96530000  0.84210000  1
  H  H139  1  0.34750000  0.46530000  0.34210000  1
  H  H140  1  0.14620000  0.23250000  0.45130000  1
  H  H141  1  0.17000000  0.73250000  0.95130000  1
  H  H142  1  0.72990000  0.27640000  0.38160000  1
  H  H143  1  0.61210000  0.77640000  0.88160000  1
  H  H144  1  0.11410000  0.39520000  0.25240000  1
  H  H145  1  0.23830000  0.89520000  0.75240000  1
  H  H146  1  0.94970000  0.89590000  0.74350000  1
  H  H147  1  0.41090000  0.39590000  0.24350000  1
  H  H148  1  0.88300000  0.16060000  0.46700000  1
  H  H149  1  0.48940000  0.66060000  0.96700000  1
  H  H150  1  0.86780000  0.28930000  0.29890000  1
  H  H151  1  0.54400000  0.78930000  0.79890000  1
  H  H152  1  0.94710000  0.95520000  0.62460000  1
  H  H153  1  0.47310000  0.45520000  0.12460000  1
  H  H154  1  0.21280000  0.03000000  0.49800000  1
  H  H155  1  0.25920000  0.53000000  0.99800000  1
  H  H156  1  0.88830000  0.65730000  0.84410000  1
  H  H157  1  0.61030000  0.15730000  0.34410000  1
  H  H158  1  0.11170000  0.34270000  0.15590000  1
  H  H159  1  0.38970000  0.84270000  0.65590000  1
  H  H160  1  0.78720000  0.97000000  0.50200000  1
  H  H161  1  0.74080000  0.47000000  0.00200000  1
  H  H162  1  0.05290000  0.04480000  0.37540000  1
  H  H163  1  0.52690000  0.54480000  0.87540000  1
  H  H164  1  0.13220000  0.71070000  0.70110000  1
  H  H165  1  0.45600000  0.21070000  0.20110000  1
  H  H166  1  0.11700000  0.83940000  0.53300000  1
  H  H167  1  0.51060000  0.33940000  0.03300000  1
  H  H168  1  0.05030000  0.10410000  0.25650000  1
  H  H169  1  0.58910000  0.60410000  0.75650000  1
  H  H170  1  0.88590000  0.60480000  0.74760000  1
  H  H171  1  0.76170000  0.10480000  0.24760000  1
  H  H172  1  0.27010000  0.72360000  0.61840000  1
  H  H173  1  0.38790000  0.22360000  0.11840000  1
  H  H174  1  0.85380000  0.76750000  0.54870000  1
  H  H175  1  0.83000000  0.26750000  0.04870000  1
  H  H176  1  0.15490000  0.03470000  0.15790000  1
  H  H177  1  0.65250000  0.53470000  0.65790000  1
  H  H178  1  0.92870000  0.91890000  0.25670000  1
  H  H179  1  0.89570000  0.41890000  0.75670000  1
  H  H180  1  0.35380000  0.76440000  0.39660000  1
  H  H181  1  0.48520000  0.26440000  0.89660000  1
  H  H182  1  0.25050000  0.66110000  0.49770000  1
  H  H183  1  0.59070000  0.16110000  0.99770000  1
  H  H184  1  0.98680000  0.58550000  0.52050000  1
  H  H185  1  0.90720000  0.08550000  0.02050000  1
  H  H186  1  0.05580000  0.71400000  0.38680000  1
  H  H187  1  0.84340000  0.21400000  0.88680000  1
  H  H188  1  0.17550000  0.45000000  0.62060000  1
  H  H189  1  0.75390000  0.95000000  0.12060000  1
  H  H190  1  0.03450000  0.09830000  0.91150000  1
  H  H191  1  0.95570000  0.59830000  0.41150000  1
  H  H192  1  0.45920000  0.55930000  0.44570000  1
  H  H193  1  0.53580000  0.05930000  0.94570000  1
  H  H194  1  0.37980000  0.10500000  0.89760000  1
  H  H195  1  0.61760000  0.60500000  0.39760000  1
  N  N196  1  0.92582000  0.16843000  0.80193000  1
  N  N197  1  0.10382000  0.66843000  0.30193000  1
  N  N198  1  0.01632000  0.56011000  0.32405000  1
  N  N199  1  0.09952000  0.06011000  0.82405000  1
  N  N200  1  0.60580000  0.89491000  0.92363000  1
  N  N201  1  0.57566000  0.39491000  0.42363000  1
  N  N202  1  0.71720000  0.43397000  0.37763000  1
  N  N203  1  0.47120000  0.93397000  0.87763000  1
  N  N204  1  0.86064000  0.80582000  0.86392000  1
  N  N205  1  0.46962000  0.30582000  0.36392000  1
  N  N206  1  0.93874000  0.74869000  0.77663000  1
  N  N207  1  0.53594000  0.24869000  0.27663000  1
  N  N208  1  0.06126000  0.25131000  0.22337000  1
  N  N209  1  0.46406000  0.75131000  0.72337000  1
  N  N210  1  0.13936000  0.19418000  0.13608000  1
  N  N211  1  0.53038000  0.69418000  0.63608000  1
  N  N212  1  0.28280000  0.56603000  0.62237000  1
  N  N213  1  0.52880000  0.06603000  0.12237000  1
  N  N214  1  0.39420000  0.10509000  0.07637000  1
  N  N215  1  0.42434000  0.60509000  0.57637000  1
  N  N216  1  0.98368000  0.43989000  0.67595000  1
  N  N217  1  0.90048000  0.93989000  0.17595000  1
  N  N218  1  0.07418000  0.83157000  0.19807000  1
  N  N219  1  0.89618000  0.33157000  0.69807000  1
  Ni  Ni220  1  0.80650000  0.25000000  0.75000000  1
  Ni  Ni221  1  0.19350000  0.75000000  0.25000000  1
  Ni  Ni222  1  0.76870000  0.80895000  0.95001000  1
  Ni  Ni223  1  0.47234000  0.30895000  0.45001000  1
  Ni  Ni224  1  0.23130000  0.19105000  0.04999000  1
  Ni  Ni225  1  0.52766000  0.69105000  0.54999000  1
  O  O226  1  0.72177000  0.26030000  0.68322000  1
  O  O227  1  0.33471000  0.76030000  0.18322000  1
  O  O228  1  0.74666000  0.96145000  0.96587000  1
  O  O229  1  0.32602000  0.46145000  0.46587000  1
  O  O230  1  0.90175000  0.90819000  0.00309000  1
  O  O231  1  0.18697000  0.40819000  0.50309000  1
  O  O232  1  0.88547000  0.10886000  0.69544000  1
  O  O233  1  0.31023000  0.60886000  0.19544000  1
  O  O234  1  0.68523000  0.76510000  0.03182000  1
  O  O235  1  0.51785000  0.26510000  0.53182000  1
  O  O236  1  0.75537000  0.65220000  0.95960000  1
  O  O237  1  0.63283000  0.15220000  0.45960000  1
  O  O238  1  0.24463000  0.34780000  0.04040000  1
  O  O239  1  0.36717000  0.84780000  0.54040000  1
  O  O240  1  0.31477000  0.23490000  0.96818000  1
  O  O241  1  0.48215000  0.73490000  0.46818000  1
  O  O242  1  0.11453000  0.89114000  0.30456000  1
  O  O243  1  0.68977000  0.39114000  0.80456000  1
  O  O244  1  0.09825000  0.09181000  0.99691000  1
  O  O245  1  0.81303000  0.59181000  0.49691000  1
  O  O246  1  0.25334000  0.03855000  0.03413000  1
  O  O247  1  0.67398000  0.53855000  0.53413000  1
  O  O248  1  0.27823000  0.73970000  0.31678000  1
  O  O249  1  0.66529000  0.23970000  0.81678000  1
