# generated using pymatgen
data_Mn6As4H12S13N6
_symmetry_space_group_name_H-M   'P 1'
_cell_length_a   10.45881929
_cell_length_b   10.45881929
_cell_length_c   20.80100000
_cell_angle_alpha   90.25474685
_cell_angle_beta   90.25474685
_cell_angle_gamma   89.91477879
_symmetry_Int_Tables_number   1
_chemical_formula_structural   Mn6As4H12S13N6
_chemical_formula_sum   'Mn12 As8 H24 S26 N12'
_cell_volume   2275.30949723
_cell_formula_units_Z   2
loop_
 _symmetry_equiv_pos_site_id
 _symmetry_equiv_pos_as_xyz
  1  'x, y, z'
loop_
 _atom_site_type_symbol
 _atom_site_label
 _atom_site_symmetry_multiplicity
 _atom_site_fract_x
 _atom_site_fract_y
 _atom_site_fract_z
 _atom_site_occupancy
  As  As0  1  0.47914000  0.42908000  0.12843000  1
  As  As1  1  0.42908000  0.47914000  0.62843000  1
  As  As2  1  0.88856000  0.92990000  0.17069000  1
  As  As3  1  0.92990000  0.88856000  0.67069000  1
  As  As4  1  0.43246000  0.89574000  0.87864000  1
  As  As5  1  0.89574000  0.43246000  0.37864000  1
  As  As6  1  0.39326000  0.84600000  0.37671000  1
  As  As7  1  0.84600000  0.39326000  0.87671000  1
  H  H8  1  0.78520000  0.18120000  0.25890000  1
  H  H9  1  0.18120000  0.78520000  0.75890000  1
  H  H10  1  0.78070000  0.14170000  0.77480000  1
  H  H11  1  0.14170000  0.78070000  0.27480000  1
  H  H12  1  0.69440000  0.17960000  0.20620000  1
  H  H13  1  0.17960000  0.69440000  0.70620000  1
  H  H14  1  0.64430000  0.17970000  0.69970000  1
  H  H15  1  0.17970000  0.64430000  0.19970000  1
  H  H16  1  0.67960000  0.14380000  0.82190000  1
  H  H17  1  0.14380000  0.67960000  0.32190000  1
  H  H18  1  0.63160000  0.14780000  0.32660000  1
  H  H19  1  0.14780000  0.63160000  0.82660000  1
  H  H20  1  0.54170000  0.17870000  0.74610000  1
  H  H21  1  0.17870000  0.54170000  0.24610000  1
  H  H22  1  0.53940000  0.14860000  0.27430000  1
  H  H23  1  0.14860000  0.53940000  0.77430000  1
  H  H24  1  0.69180000  0.78240000  0.02010000  1
  H  H25  1  0.78240000  0.69180000  0.52010000  1
  H  H26  1  0.68040000  0.78600000  0.52050000  1
  H  H27  1  0.78600000  0.68040000  0.02050000  1
  H  H28  1  0.54110000  0.64130000  0.00400000  1
  H  H29  1  0.64130000  0.54110000  0.50400000  1
  H  H30  1  0.54080000  0.63660000  0.50280000  1
  H  H31  1  0.63660000  0.54080000  0.00280000  1
  Mn  Mn32  1  0.68209000  0.90727000  0.77417000  1
  Mn  Mn33  1  0.90727000  0.68209000  0.27417000  1
  Mn  Mn34  1  0.63841000  0.90763000  0.27552000  1
  Mn  Mn35  1  0.90763000  0.63841000  0.77552000  1
  Mn  Mn36  1  0.68251000  0.68395000  0.63979000  1
  Mn  Mn37  1  0.68395000  0.68251000  0.13979000  1
  Mn  Mn38  1  0.63741000  0.64261000  0.88503000  1
  Mn  Mn39  1  0.64261000  0.63741000  0.38503000  1
  Mn  Mn40  1  0.41639000  0.68691000  0.75401000  1
  Mn  Mn41  1  0.68691000  0.41639000  0.25401000  1
  Mn  Mn42  1  0.41618000  0.63806000  0.25007000  1
  Mn  Mn43  1  0.63806000  0.41618000  0.75007000  1
  N  N44  1  0.70470000  0.20230000  0.24770000  1
  N  N45  1  0.20230000  0.70470000  0.74770000  1
  N  N46  1  0.62420000  0.20020000  0.74050000  1
  N  N47  1  0.20020000  0.62420000  0.24050000  1
  N  N48  1  0.69810000  0.12150000  0.78120000  1
  N  N49  1  0.12150000  0.69810000  0.28120000  1
  N  N50  1  0.62000000  0.12680000  0.28500000  1
  N  N51  1  0.12680000  0.62000000  0.78500000  1
  N  N52  1  0.70010000  0.70490000  0.53090000  1
  N  N53  1  0.70490000  0.70010000  0.03090000  1
  N  N54  1  0.62210000  0.62310000  0.99270000  1
  N  N55  1  0.62310000  0.62210000  0.49270000  1
  S  S56  1  0.44200000  0.39040000  0.23330000  1
  S  S57  1  0.39040000  0.44200000  0.73330000  1
  S  S58  1  0.88730000  0.92970000  0.27871000  1
  S  S59  1  0.92970000  0.88730000  0.77871000  1
  S  S60  1  0.72380000  0.93280000  0.65019000  1
  S  S61  1  0.93280000  0.72380000  0.15019000  1
  S  S62  1  0.67610000  0.93070000  0.15158000  1
  S  S63  1  0.93070000  0.67610000  0.65158000  1
  S  S64  1  0.64360000  0.89040000  0.89831000  1
  S  S65  1  0.89040000  0.64360000  0.39831000  1
  S  S66  1  0.59960000  0.88680000  0.39895000  1
  S  S67  1  0.88680000  0.59960000  0.89895000  1
  S  S68  1  0.43450000  0.93290000  0.77213000  1
  S  S69  1  0.93290000  0.43450000  0.27213000  1
  S  S70  1  0.66110000  0.66190000  0.76288000  1
  S  S71  1  0.66190000  0.66110000  0.26288000  1
  S  S72  1  0.39160000  0.88440000  0.27057000  1
  S  S73  1  0.88440000  0.39160000  0.77057000  1
  S  S74  1  0.43360000  0.69320000  0.62844000  1
  S  S75  1  0.69320000  0.43360000  0.12844000  1
  S  S76  1  0.43740000  0.63960000  0.12617000  1
  S  S77  1  0.63960000  0.43740000  0.62617000  1
  S  S78  1  0.39080000  0.68560000  0.87871000  1
  S  S79  1  0.68560000  0.39080000  0.37871000  1
  S  S80  1  0.39290000  0.63030000  0.37491000  1
  S  S81  1  0.63030000  0.39290000  0.87491000  1
