# generated using pymatgen
data_Zn7H16C32(N9O8)2
_symmetry_space_group_name_H-M   'P 1'
_cell_length_a   14.20360000
_cell_length_b   14.46010000
_cell_length_c   18.07238755
_cell_angle_alpha   88.19771825
_cell_angle_beta   66.86099238
_cell_angle_gamma   60.58510000
_symmetry_Int_Tables_number   1
_chemical_formula_structural   Zn7H16C32(N9O8)2
_chemical_formula_sum   'Zn14 H32 C64 N36 O32'
_cell_volume   2912.10383901
_cell_formula_units_Z   2
loop_
 _symmetry_equiv_pos_site_id
 _symmetry_equiv_pos_as_xyz
  1  'x, y, z'
loop_
 _atom_site_type_symbol
 _atom_site_label
 _atom_site_symmetry_multiplicity
 _atom_site_fract_x
 _atom_site_fract_y
 _atom_site_fract_z
 _atom_site_occupancy
  Zn  Zn0  1  0.91695000  0.70428000  0.07650000  1
  Zn  Zn1  1  0.21544000  0.41597000  0.59473000  1
  Zn  Zn2  1  0.39316000  0.00816000  0.36492000  1
  Zn  Zn3  1  0.72614000  0.08403000  0.90527000  1
  Zn  Zn4  1  0.19773000  0.79572000  0.42350000  1
  Zn  Zn5  1  0.73376000  0.50816000  0.86492000  1
  Zn  Zn6  1  0.50000000  0.00000000  0.00000000  1
  Zn  Zn7  1  1.00000000  0.50000000  0.50000000  1
  Zn  Zn8  1  0.26624000  0.49184000  0.13508000  1
  Zn  Zn9  1  0.80227000  0.20428000  0.57650000  1
  Zn  Zn10  1  0.27386000  0.91597000  0.09473000  1
  Zn  Zn11  1  0.60684000  0.99184000  0.63508000  1
  Zn  Zn12  1  0.78456000  0.58403000  0.40527000  1
  Zn  Zn13  1  0.08305000  0.29572000  0.92350000  1
  H  H14  1  0.38200000  0.96570000  0.54070000  1
  H  H15  1  0.90530000  0.90310000  0.97790000  1
  H  H16  1  0.37990000  0.16310000  0.49230000  1
  H  H17  1  0.60740000  0.65260000  0.24520000  1
  H  H18  1  0.28630000  0.59690000  0.52210000  1
  H  H19  1  0.00980000  0.43610000  0.77750000  1
  H  H20  1  0.67850000  0.80890000  0.06250000  1
  H  H21  1  0.99480000  0.15260000  0.74520000  1
  H  H22  1  0.49550000  0.03830000  0.18050000  1
  H  H23  1  0.61160000  0.46570000  0.04070000  1
  H  H24  1  0.69990000  0.74620000  0.88620000  1
  H  H25  1  0.27660000  0.93610000  0.27750000  1
  H  H26  1  0.16770000  0.24620000  0.38620000  1
  H  H27  1  0.53530000  0.33690000  0.00770000  1
  H  H28  1  0.21430000  0.46170000  0.31950000  1
  H  H29  1  0.95010000  0.30890000  0.56250000  1
  H  H30  1  0.04990000  0.69110000  0.43750000  1
  H  H31  1  0.78570000  0.53830000  0.68050000  1
  H  H32  1  0.46470000  0.66310000  0.99230000  1
  H  H33  1  0.83230000  0.75380000  0.61380000  1
  H  H34  1  0.72340000  0.06390000  0.72250000  1
  H  H35  1  0.30010000  0.25380000  0.11380000  1
  H  H36  1  0.38840000  0.53430000  0.95930000  1
  H  H37  1  0.50450000  0.96170000  0.81950000  1
  H  H38  1  0.00520000  0.84740000  0.25480000  1
  H  H39  1  0.32150000  0.19110000  0.93750000  1
  H  H40  1  0.99020000  0.56390000  0.22250000  1
  H  H41  1  0.71370000  0.40310000  0.47790000  1
  H  H42  1  0.39260000  0.34740000  0.75480000  1
  H  H43  1  0.62010000  0.83690000  0.50770000  1
  H  H44  1  0.09470000  0.09690000  0.02210000  1
  H  H45  1  0.61800000  0.03430000  0.45930000  1
  C  C46  1  0.61610000  0.96340000  0.32860000  1
  C  C47  1  0.81580000  0.57080000  0.12240000  1
  C  C48  1  0.28080000  0.05430000  0.65650000  1
  C  C49  1  0.12240000  0.17430000  0.80090000  1
  C  C50  1  0.30420000  0.00200000  0.58240000  1
  C  C51  1  0.16190000  0.11060000  0.71920000  1
  C  C52  1  0.71240000  0.55980000  0.13200000  1
  C  C53  1  0.83830000  0.89740000  0.99100000  1
  C  C54  1  0.82790000  0.43590000  0.99490000  1
  C  C55  1  0.60870000  0.61320000  0.20460000  1
  C  C56  1  0.31830000  0.20340000  0.47680000  1
  C  C57  1  0.71350000  0.50350000  0.06990000  1
  C  C58  1  0.21310000  0.00350000  0.56990000  1
  C  C59  1  0.07350000  0.11320000  0.70460000  1
  C  C60  1  0.71540000  0.84680000  0.03680000  1
  C  C61  1  0.24130000  0.93590000  0.49490000  1
  C  C62  1  0.22670000  0.60260000  0.50900000  1
  C  C63  1  0.09580000  0.05980000  0.63200000  1
  C  C64  1  0.50830000  0.61060000  0.21920000  1
  C  C65  1  0.97660000  0.45730000  0.74030000  1
  C  C66  1  0.40240000  0.67430000  0.30090000  1
  C  C67  1  0.61140000  0.50200000  0.08240000  1
  C  C68  1  0.50840000  0.55430000  0.15650000  1
  C  C69  1  0.44450000  0.01270000  0.18750000  1
  C  C70  1  0.20270000  0.24900000  0.41940000  1
  C  C71  1  0.99100000  0.07080000  0.62240000  1
  C  C72  1  0.40810000  0.53660000  0.17140000  1
  C  C73  1  0.32580000  0.95730000  0.24030000  1
  C  C74  1  0.09900000  0.65320000  0.46320000  1
  C  C75  1  0.62890000  0.74900000  0.91940000  1
  C  C76  1  0.85530000  0.51270000  0.68750000  1
  C  C77  1  0.49850000  0.29660000  0.02320000  1
  C  C78  1  0.50150000  0.70340000  0.97680000  1
  C  C79  1  0.14470000  0.48730000  0.31250000  1
  C  C80  1  0.37110000  0.25100000  0.08060000  1
  C  C81  1  0.90100000  0.34680000  0.53680000  1
  C  C82  1  0.67420000  0.04270000  0.75970000  1
  C  C83  1  0.59190000  0.46340000  0.82860000  1
  C  C84  1  0.00900000  0.92920000  0.37760000  1
  C  C85  1  0.79730000  0.75100000  0.58060000  1
  C  C86  1  0.55550000  0.98730000  0.81250000  1
  C  C87  1  0.49160000  0.44570000  0.84350000  1
  C  C88  1  0.38860000  0.49800000  0.91760000  1
  C  C89  1  0.59760000  0.32570000  0.69910000  1
  C  C90  1  0.02340000  0.54270000  0.25970000  1
  C  C91  1  0.49170000  0.38940000  0.78080000  1
  C  C92  1  0.90420000  0.94020000  0.36800000  1
  C  C93  1  0.77330000  0.39740000  0.49100000  1
  C  C94  1  0.75870000  0.06410000  0.50510000  1
  C  C95  1  0.28460000  0.15320000  0.96320000  1
  C  C96  1  0.92650000  0.88680000  0.29540000  1
  C  C97  1  0.78690000  0.99650000  0.43010000  1
  C  C98  1  0.28650000  0.49650000  0.93010000  1
  C  C99  1  0.68170000  0.79660000  0.52320000  1
  C  C100  1  0.39130000  0.38680000  0.79540000  1
  C  C101  1  0.17210000  0.56410000  0.00510000  1
  C  C102  1  0.16170000  0.10260000  0.00900000  1
  C  C103  1  0.28760000  0.44020000  0.86800000  1
  C  C104  1  0.83810000  0.88940000  0.28080000  1
  C  C105  1  0.69580000  0.99800000  0.41760000  1
  C  C106  1  0.87760000  0.82570000  0.19910000  1
  C  C107  1  0.71920000  0.94570000  0.34350000  1
  C  C108  1  0.18420000  0.42920000  0.87760000  1
  C  C109  1  0.38390000  0.03660000  0.67140000  1
  N  N110  1  0.82110000  0.82480000  0.03100000  1
  N  N111  1  0.23910000  0.30770000  0.50590000  1
  N  N112  1  0.29960000  0.16190000  0.42190000  1
  N  N113  1  0.74959000  0.96082000  0.97180000  1
  N  N114  1  0.18221000  0.53918000  0.52820000  1
  N  N115  1  0.03619000  0.45942000  0.66340000  1
  N  N116  1  0.66923000  0.92804000  0.00210000  1
  N  N117  1  0.38950000  0.98970000  0.25850000  1
  N  N118  1  0.17690000  0.67520000  0.46900000  1
  N  N119  1  0.16310000  0.33760000  0.46820000  1
  N  N120  1  0.86230000  0.48970000  0.75850000  1
  N  N121  1  0.09937000  0.57196000  0.49790000  1
  N  N122  1  0.95660000  0.49530000  0.62930000  1
  N  N123  1  0.41880000  0.99530000  0.12930000  1
  N  N124  1  0.55270000  0.19230000  0.99410000  1
  N  N125  1  0.61660000  0.66190000  0.92190000  1
  N  N126  1  0.34099000  0.95942000  0.16340000  1
  N  N127  1  0.46890000  0.16240000  0.03180000  1
  N  N128  1  0.53110000  0.83760000  0.96820000  1
  N  N129  1  0.65901000  0.04058000  0.83660000  1
  N  N130  1  0.38340000  0.33810000  0.07810000  1
  N  N131  1  0.44730000  0.80770000  0.00590000  1
  N  N132  1  0.58120000  0.00470000  0.87070000  1
  N  N133  1  0.04340000  0.50470000  0.37070000  1
  N  N134  1  0.90063000  0.42804000  0.50210000  1
  N  N135  1  0.13770000  0.51030000  0.24150000  1
  N  N136  1  0.83690000  0.66240000  0.53180000  1
  N  N137  1  0.82310000  0.32480000  0.53100000  1
  N  N138  1  0.61050000  0.01030000  0.74150000  1
  N  N139  1  0.33077000  0.07196000  0.99790000  1
  N  N140  1  0.96381000  0.54058000  0.33660000  1
  N  N141  1  0.81779000  0.46082000  0.47180000  1
  N  N142  1  0.25041000  0.03918000  0.02820000  1
  N  N143  1  0.70040000  0.83810000  0.57810000  1
  N  N144  1  0.76090000  0.69230000  0.49410000  1
  N  N145  1  0.17890000  0.17520000  0.96900000  1
  O  O146  1  0.13820000  0.46060000  0.82840000  1
  O  O147  1  0.15770000  0.23700000  0.80120000  1
  O  O148  1  0.91885000  0.38440000  0.00770000  1
  O  O149  1  0.54130000  0.94120000  0.38220000  1
  O  O150  1  0.05510000  0.16450000  0.86490000  1
  O  O151  1  0.84369000  0.62002000  0.06800000  1
  O  O152  1  0.60200000  0.00250000  0.27050000  1
  O  O153  1  0.41550000  0.66450000  0.36490000  1
  O  O154  1  0.83017000  0.42846000  0.92520000  1
  O  O155  1  0.31617000  0.92846000  0.42520000  1
  O  O156  1  0.18905000  0.88440000  0.50770000  1
  O  O157  1  0.30410000  0.73700000  0.30120000  1
  O  O158  1  0.37500000  0.49750000  0.22950000  1
  O  O159  1  0.92720000  0.03940000  0.67160000  1
  O  O160  1  0.96829000  0.12002000  0.56800000  1
  O  O161  1  0.63530000  0.44120000  0.88220000  1
  O  O162  1  0.36470000  0.55880000  0.11780000  1
  O  O163  1  0.03171000  0.87998000  0.43200000  1
  O  O164  1  0.07280000  0.96060000  0.32840000  1
  O  O165  1  0.62500000  0.50250000  0.77050000  1
  O  O166  1  0.69590000  0.26300000  0.69880000  1
  O  O167  1  0.81095000  0.11560000  0.49230000  1
  O  O168  1  0.68383000  0.07154000  0.57480000  1
  O  O169  1  0.16983000  0.57154000  0.07480000  1
  O  O170  1  0.58450000  0.33550000  0.63510000  1
  O  O171  1  0.39800000  0.99750000  0.72950000  1
  O  O172  1  0.15631000  0.37998000  0.93200000  1
  O  O173  1  0.94490000  0.83550000  0.13510000  1
  O  O174  1  0.45870000  0.05880000  0.61780000  1
  O  O175  1  0.08115000  0.61560000  0.99230000  1
  O  O176  1  0.84230000  0.76300000  0.19880000  1
  O  O177  1  0.86180000  0.53940000  0.17160000  1
