# generated using pymatgen
data_AgH12(C3N)6
_symmetry_space_group_name_H-M   'P 1'
_cell_length_a   13.78149454
_cell_length_b   13.78149454
_cell_length_c   24.56717553
_cell_angle_alpha   102.11129122
_cell_angle_beta   101.58221958
_cell_angle_gamma   105.55019203
_symmetry_Int_Tables_number   1
_chemical_formula_structural   AgH12(C3N)6
_chemical_formula_sum   'Ag8 H96 C144 N48'
_cell_volume   4228.40265381
_cell_formula_units_Z   8
loop_
 _symmetry_equiv_pos_site_id
 _symmetry_equiv_pos_as_xyz
  1  'x, y, z'
loop_
 _atom_site_type_symbol
 _atom_site_label
 _atom_site_symmetry_multiplicity
 _atom_site_fract_x
 _atom_site_fract_y
 _atom_site_fract_z
 _atom_site_occupancy
  Ag  Ag0  1  0.61243000  0.93404000  0.63311000  1
  Ag  Ag1  1  0.69907000  0.52068000  0.13311000  1
  Ag  Ag2  1  0.42216000  0.69913000  0.63357000  1
  Ag  Ag3  1  0.93444000  0.71141000  0.13357000  1
  Ag  Ag4  1  0.57784000  0.30087000  0.36643000  1
  Ag  Ag5  1  0.06556000  0.28859000  0.86643000  1
  Ag  Ag6  1  0.38757000  0.06596000  0.36689000  1
  Ag  Ag7  1  0.30093000  0.47932000  0.86689000  1
  C  C8  1  0.07370000  0.97600000  0.90530000  1
  C  C9  1  0.92930000  0.33160000  0.40530000  1
  C  C10  1  0.11860000  0.10620000  0.99480000  1
  C  C11  1  0.88860000  0.37620000  0.49480000  1
  C  C12  1  0.36060000  0.30720000  0.99780000  1
  C  C13  1  0.69060000  0.13720000  0.49780000  1
  C  C14  1  0.37910000  0.94310000  0.61800000  1
  C  C15  1  0.67490000  0.73890000  0.11800000  1
  C  C16  1  0.34210000  0.18650000  0.90940000  1
  C  C17  1  0.72290000  0.06730000  0.40940000  1
  C  C18  1  0.10570000  0.00460000  0.96490000  1
  C  C19  1  0.96030000  0.35920000  0.46490000  1
  C  C20  1  0.40660000  0.87310000  0.53270000  1
  C  C21  1  0.65960000  0.62610000  0.03270000  1
  C  C22  1  0.17250000  0.68230000  0.62220000  1
  C  C23  1  0.93990000  0.94970000  0.12220000  1
  C  C24  1  0.21140000  0.63600000  0.53720000  1
  C  C25  1  0.90120000  0.82580000  0.03720000  1
  C  C26  1  0.36100000  0.20960000  0.96800000  1
  C  C27  1  0.75840000  0.10700000  0.46800000  1
  C  C28  1  0.12580000  0.92970000  0.99890000  1
  C  C29  1  0.06920000  0.37310000  0.49890000  1
  C  C30  1  0.37940000  0.13300000  0.00040000  1
  C  C31  1  0.86740000  0.12100000  0.50040000  1
  C  C32  1  0.46280000  0.87560000  0.75740000  1
  C  C33  1  0.88180000  0.79460000  0.25740000  1
  C  C34  1  0.63380000  0.31080000  0.02660000  1
  C  C35  1  0.71580000  0.89280000  0.52660000  1
  C  C36  1  0.22300000  0.04440000  0.17940000  1
  C  C37  1  0.13500000  0.45640000  0.67940000  1
  C  C38  1  0.18190000  0.40780000  0.58570000  1
  C  C39  1  0.17790000  0.90380000  0.08570000  1
  C  C40  1  0.23360000  0.37580000  0.50500000  1
  C  C41  1  0.12920000  0.77140000  0.00500000  1
  C  C42  1  0.29620000  0.34170000  0.41670000  1
  C  C43  1  0.07500000  0.62050000  0.91670000  1
  C  C44  1  0.51270000  0.64780000  0.52210000  1
  C  C45  1  0.87430000  0.50940000  0.02210000  1
  C  C46  1  0.68870000  0.56030000  0.25920000  1
  C  C47  1  0.69890000  0.07050000  0.75920000  1
  C  C48  1  0.49820000  0.91940000  0.81720000  1
  C  C49  1  0.89780000  0.81900000  0.31720000  1
  C  C50  1  0.61890000  0.21010000  0.99620000  1
  C  C51  1  0.78610000  0.87730000  0.49620000  1
  C  C52  1  0.31330000  0.81950000  0.91380000  1
  C  C53  1  0.09430000  0.10050000  0.41380000  1
  C  C54  1  0.37680000  0.97070000  0.00310000  1
  C  C55  1  0.03240000  0.12630000  0.50310000  1
  C  C56  1  0.43560000  0.10220000  0.08580000  1
  C  C57  1  0.98360000  0.15020000  0.58580000  1
  C  C58  1  0.26500000  0.08120000  0.23840000  1
  C  C59  1  0.15720000  0.47340000  0.73840000  1
  C  C60  1  0.21960000  0.94600000  0.15040000  1
  C  C61  1  0.20440000  0.43080000  0.65040000  1
  C  C62  1  0.50160000  0.24910000  0.17650000  1
  C  C63  1  0.92740000  0.17490000  0.67650000  1
  C  C64  1  0.31560000  0.36250000  0.47610000  1
  C  C65  1  0.11360000  0.66050000  0.97610000  1
  C  C66  1  0.37270000  0.32360000  0.39050000  1
  C  C67  1  0.06690000  0.51780000  0.89050000  1
  C  C68  1  0.70630000  0.58010000  0.31840000  1
  C  C69  1  0.73830000  0.11210000  0.81840000  1
  C  C70  1  0.58510000  0.62980000  0.49190000  1
  C  C71  1  0.86210000  0.40680000  0.99190000  1
  C  C72  1  0.35610000  0.85870000  0.97300000  1
  C  C73  1  0.11430000  0.11690000  0.47300000  1
  C  C74  1  0.30070000  0.71630000  0.88720000  1
  C  C75  1  0.17090000  0.08650000  0.38720000  1
  C  C76  1  0.47900000  0.14280000  0.14920000  1
  C  C77  1  0.00640000  0.17020000  0.64920000  1
  C  C78  1  0.53980000  0.28410000  0.23550000  1
  C  C79  1  0.95140000  0.19570000  0.73550000  1
  C  C80  1  0.46020000  0.71590000  0.76450000  1
  C  C81  1  0.04860000  0.80430000  0.26450000  1
  C  C82  1  0.52100000  0.85720000  0.85080000  1
  C  C83  1  0.99360000  0.82980000  0.35080000  1
  C  C84  1  0.69930000  0.28370000  0.11280000  1
  C  C85  1  0.82910000  0.91350000  0.61280000  1
  C  C86  1  0.64390000  0.14130000  0.02700000  1
  C  C87  1  0.88570000  0.88310000  0.52700000  1
  C  C88  1  0.41490000  0.37020000  0.50810000  1
  C  C89  1  0.13790000  0.59320000  0.00810000  1
  C  C90  1  0.29370000  0.41990000  0.68160000  1
  C  C91  1  0.26170000  0.88790000  0.18160000  1
  C  C92  1  0.62730000  0.67640000  0.60950000  1
  C  C93  1  0.93310000  0.48220000  0.10950000  1
  C  C94  1  0.68440000  0.63750000  0.52390000  1
  C  C95  1  0.88640000  0.33950000  0.02390000  1
  C  C96  1  0.49840000  0.75090000  0.82350000  1
  C  C97  1  0.07260000  0.82510000  0.32350000  1
  C  C98  1  0.78040000  0.05400000  0.84960000  1
  C  C99  1  0.79560000  0.56920000  0.34960000  1
  C  C100  1  0.73500000  0.91880000  0.76160000  1
  C  C101  1  0.84280000  0.52660000  0.26160000  1
  C  C102  1  0.56440000  0.89780000  0.91420000  1
  C  C103  1  0.01640000  0.84980000  0.41420000  1
  C  C104  1  0.62320000  0.02930000  0.99690000  1
  C  C105  1  0.96760000  0.87370000  0.49690000  1
  C  C106  1  0.68670000  0.18050000  0.08620000  1
  C  C107  1  0.90570000  0.89950000  0.58620000  1
  C  C108  1  0.38110000  0.78990000  0.00380000  1
  C  C109  1  0.21390000  0.12270000  0.50380000  1
  C  C110  1  0.50180000  0.08060000  0.18280000  1
  C  C111  1  0.10220000  0.18100000  0.68280000  1
  C  C112  1  0.31130000  0.43970000  0.74080000  1
  C  C113  1  0.30110000  0.92950000  0.24080000  1
  C  C114  1  0.48730000  0.35220000  0.47790000  1
  C  C115  1  0.12570000  0.49060000  0.97790000  1
  C  C116  1  0.70380000  0.65830000  0.58330000  1
  C  C117  1  0.92500000  0.37950000  0.08330000  1
  C  C118  1  0.76640000  0.62420000  0.49500000  1
  C  C119  1  0.87080000  0.22860000  0.99500000  1
  C  C120  1  0.81810000  0.59220000  0.41430000  1
  C  C121  1  0.82210000  0.09620000  0.91430000  1
  C  C122  1  0.77700000  0.95560000  0.82060000  1
  C  C123  1  0.86500000  0.54360000  0.32060000  1
  C  C124  1  0.36620000  0.68920000  0.97340000  1
  C  C125  1  0.28420000  0.10720000  0.47340000  1
  C  C126  1  0.53720000  0.12440000  0.24260000  1
  C  C127  1  0.11820000  0.20540000  0.74260000  1
  C  C128  1  0.62060000  0.86700000  0.99960000  1
  C  C129  1  0.13260000  0.87900000  0.49960000  1
  C  C130  1  0.87420000  0.07030000  0.00110000  1
  C  C131  1  0.93080000  0.62690000  0.50110000  1
  C  C132  1  0.63900000  0.79040000  0.03200000  1
  C  C133  1  0.24160000  0.89300000  0.53200000  1
  C  C134  1  0.78860000  0.36400000  0.46280000  1
  C  C135  1  0.09880000  0.17420000  0.96280000  1
  C  C136  1  0.82750000  0.31770000  0.37780000  1
  C  C137  1  0.06010000  0.05030000  0.87780000  1
  C  C138  1  0.59340000  0.12690000  0.46730000  1
  C  C139  1  0.34040000  0.37390000  0.96730000  1
  C  C140  1  0.89430000  0.99540000  0.03510000  1
  C  C141  1  0.03970000  0.64080000  0.53510000  1
  C  C142  1  0.65790000  0.81350000  0.09060000  1
  C  C143  1  0.27710000  0.93270000  0.59060000  1
  C  C144  1  0.62090000  0.05690000  0.38200000  1
  C  C145  1  0.32510000  0.26110000  0.88200000  1
  C  C146  1  0.63940000  0.69280000  0.00220000  1
  C  C147  1  0.30940000  0.86280000  0.50220000  1
  C  C148  1  0.88140000  0.89380000  0.00520000  1
  C  C149  1  0.11140000  0.62380000  0.50520000  1
  C  C150  1  0.92630000  0.02400000  0.09470000  1
  C  C151  1  0.07070000  0.66840000  0.59470000  1
  H  H152  1  0.06160000  0.90740000  0.88400000  1
  H  H153  1  0.97660000  0.32240000  0.38400000  1
  H  H154  1  0.13980000  0.12820000  0.03500000  1
  H  H155  1  0.90680000  0.39520000  0.53500000  1
  H  H156  1  0.37380000  0.32610000  0.03790000  1
  H  H157  1  0.71180000  0.16410000  0.53790000  1
  H  H158  1  0.40430000  0.97390000  0.65780000  1
  H  H159  1  0.68390000  0.75350000  0.15780000  1
  H  H160  1  0.34060000  0.12160000  0.88800000  1
  H  H161  1  0.76640000  0.04740000  0.38800000  1
  H  H162  1  0.45120000  0.85220000  0.51240000  1
  H  H163  1  0.66020000  0.56120000  0.01240000  1
  H  H164  1  0.19400000  0.70600000  0.66240000  1
  H  H165  1  0.95640000  0.96840000  0.16240000  1
  H  H166  1  0.25950000  0.62420000  0.51710000  1
  H  H167  1  0.89290000  0.75760000  0.01710000  1
  H  H168  1  0.61430000  0.35530000  0.00620000  1
  H  H169  1  0.65090000  0.89190000  0.50620000  1
  H  H170  1  0.45130000  0.91980000  0.73470000  1
  H  H171  1  0.81490000  0.78340000  0.23470000  1
  H  H172  1  0.19680000  0.08580000  0.15900000  1
  H  H173  1  0.07320000  0.46220000  0.65900000  1
  H  H174  1  0.23230000  0.33990000  0.39440000  1
  H  H175  1  0.05450000  0.66210000  0.89440000  1
  H  H176  1  0.62710000  0.56550000  0.23820000  1
  H  H177  1  0.67270000  0.11110000  0.73820000  1
  H  H178  1  0.44670000  0.64280000  0.50090000  1
  H  H179  1  0.85810000  0.55420000  0.00090000  1
  H  H180  1  0.29330000  0.86190000  0.89200000  1
  H  H181  1  0.03010000  0.09870000  0.39200000  1
  H  H182  1  0.50600000  0.98930000  0.83370000  1
  H  H183  1  0.84440000  0.82770000  0.33370000  1
  H  H184  1  0.49090000  0.29520000  0.15490000  1
  H  H185  1  0.85970000  0.16400000  0.65490000  1
  H  H186  1  0.59280000  0.18790000  0.95610000  1
  H  H187  1  0.76820000  0.86330000  0.45610000  1
  H  H188  1  0.26660000  0.14780000  0.25740000  1
  H  H189  1  0.10960000  0.49080000  0.75740000  1
  H  H190  1  0.65920000  0.60040000  0.33680000  1
  H  H191  1  0.73640000  0.17760000  0.83680000  1
  H  H192  1  0.35790000  0.30750000  0.35040000  1
  H  H193  1  0.04290000  0.49250000  0.85040000  1
  H  H194  1  0.56770000  0.61320000  0.45170000  1
  H  H195  1  0.83850000  0.38400000  0.95170000  1
  H  H196  1  0.27360000  0.69130000  0.84730000  1
  H  H197  1  0.15600000  0.07370000  0.34730000  1
  H  H198  1  0.55580000  0.35530000  0.25310000  1
  H  H199  1  0.89780000  0.19730000  0.75310000  1
  H  H200  1  0.44420000  0.64470000  0.74690000  1
  H  H201  1  0.10220000  0.80270000  0.24690000  1
  H  H202  1  0.72640000  0.30870000  0.15270000  1
  H  H203  1  0.84400000  0.92630000  0.65270000  1
  H  H204  1  0.43230000  0.38680000  0.54830000  1
  H  H205  1  0.16150000  0.61600000  0.04830000  1
  H  H206  1  0.64210000  0.69250000  0.64960000  1
  H  H207  1  0.95710000  0.50750000  0.14960000  1
  H  H208  1  0.34080000  0.39960000  0.66320000  1
  H  H209  1  0.26360000  0.82240000  0.16320000  1
  H  H210  1  0.73340000  0.85220000  0.74260000  1
  H  H211  1  0.89040000  0.50920000  0.24260000  1
  H  H212  1  0.40720000  0.81210000  0.04390000  1
  H  H213  1  0.23180000  0.13670000  0.54390000  1
  H  H214  1  0.50910000  0.70480000  0.84510000  1
  H  H215  1  0.14030000  0.83600000  0.34510000  1
  H  H216  1  0.49400000  0.01070000  0.16630000  1
  H  H217  1  0.15560000  0.17230000  0.66630000  1
  H  H218  1  0.70670000  0.13810000  0.10800000  1
  H  H219  1  0.96990000  0.90130000  0.60800000  1
  H  H220  1  0.55330000  0.35720000  0.49910000  1
  H  H221  1  0.14190000  0.44580000  0.99910000  1
  H  H222  1  0.37290000  0.43450000  0.76180000  1
  H  H223  1  0.32730000  0.88890000  0.26180000  1
  H  H224  1  0.76770000  0.66010000  0.60560000  1
  H  H225  1  0.94550000  0.33790000  0.10560000  1
  H  H226  1  0.80320000  0.91420000  0.84100000  1
  H  H227  1  0.92680000  0.53780000  0.34100000  1
  H  H228  1  0.54870000  0.08020000  0.26530000  1
  H  H229  1  0.18510000  0.21660000  0.76530000  1
  H  H230  1  0.38570000  0.64470000  0.99380000  1
  H  H231  1  0.34910000  0.10810000  0.49380000  1
  H  H232  1  0.74050000  0.37580000  0.48290000  1
  H  H233  1  0.10710000  0.24240000  0.98290000  1
  H  H234  1  0.80600000  0.29400000  0.33760000  1
  H  H235  1  0.04360000  0.03160000  0.83760000  1
  H  H236  1  0.54880000  0.14780000  0.48760000  1
  H  H237  1  0.33980000  0.43880000  0.98760000  1
  H  H238  1  0.65940000  0.87840000  0.11200000  1
  H  H239  1  0.23360000  0.95260000  0.61200000  1
  H  H240  1  0.59570000  0.02610000  0.34220000  1
  H  H241  1  0.31610000  0.24650000  0.84220000  1
  H  H242  1  0.62620000  0.67390000  0.96210000  1
  H  H243  1  0.28820000  0.83590000  0.46210000  1
  H  H244  1  0.86020000  0.87180000  0.96500000  1
  H  H245  1  0.09320000  0.60480000  0.46500000  1
  H  H246  1  0.93840000  0.09260000  0.11600000  1
  H  H247  1  0.02340000  0.67760000  0.61600000  1
  N  N248  1  0.44220000  0.91090000  0.58950000  1
  N  N249  1  0.67860000  0.64730000  0.08950000  1
  N  N250  1  0.24260000  0.66350000  0.59450000  1
  N  N251  1  0.93100000  0.85190000  0.09450000  1
  N  N252  1  0.16000000  0.97150000  0.05710000  1
  N  N253  1  0.08560000  0.39710000  0.55710000  1
  N  N254  1  0.13830000  0.35900000  0.47110000  1
  N  N255  1  0.11210000  0.83280000  0.97110000  1
  N  N256  1  0.35760000  0.03300000  0.97060000  1
  N  N257  1  0.93760000  0.11300000  0.47060000  1
  N  N258  1  0.41880000  0.17130000  0.05750000  1
  N  N259  1  0.88620000  0.13870000  0.55750000  1
  N  N260  1  0.44470000  0.77710000  0.73080000  1
  N  N261  1  0.95370000  0.78610000  0.23080000  1
  N  N262  1  0.67430000  0.34870000  0.08340000  1
  N  N263  1  0.73470000  0.90910000  0.58340000  1
  N  N264  1  0.26070000  0.40170000  0.56280000  1
  N  N265  1  0.16110000  0.80210000  0.06280000  1
  N  N266  1  0.53360000  0.67150000  0.57930000  1
  N  N267  1  0.90780000  0.54570000  0.07930000  1
  N  N268  1  0.69570000  0.97640000  0.73010000  1
  N  N269  1  0.75370000  0.53440000  0.23010000  1
  N  N270  1  0.41480000  0.00040000  0.06100000  1
  N  N271  1  0.06060000  0.14620000  0.56100000  1
  N  N272  1  0.58520000  0.99960000  0.93900000  1
  N  N273  1  0.93940000  0.85380000  0.43900000  1
  N  N274  1  0.30430000  0.02360000  0.26990000  1
  N  N275  1  0.24630000  0.46560000  0.76990000  1
  N  N276  1  0.46640000  0.32850000  0.42070000  1
  N  N277  1  0.09220000  0.45430000  0.92070000  1
  N  N278  1  0.73930000  0.59830000  0.43720000  1
  N  N279  1  0.83890000  0.19790000  0.93720000  1
  N  N280  1  0.32570000  0.65130000  0.91660000  1
  N  N281  1  0.26530000  0.09090000  0.41660000  1
  N  N282  1  0.55530000  0.22290000  0.26920000  1
  N  N283  1  0.04630000  0.21390000  0.76920000  1
  N  N284  1  0.58120000  0.82870000  0.94250000  1
  N  N285  1  0.11380000  0.86130000  0.44250000  1
  N  N286  1  0.64240000  0.96700000  0.02940000  1
  N  N287  1  0.06240000  0.88700000  0.52940000  1
  N  N288  1  0.86170000  0.64100000  0.52890000  1
  N  N289  1  0.88790000  0.16720000  0.02890000  1
  N  N290  1  0.84000000  0.02850000  0.94290000  1
  N  N291  1  0.91440000  0.60290000  0.44290000  1
  N  N292  1  0.75740000  0.33650000  0.40550000  1
  N  N293  1  0.06900000  0.14810000  0.90550000  1
  N  N294  1  0.55780000  0.08910000  0.41050000  1
  N  N295  1  0.32140000  0.35270000  0.91050000  1
