# generated using pymatgen
data_NdH3C7NO4
_symmetry_space_group_name_H-M   'P 1'
_cell_length_a   15.73300000
_cell_length_b   17.19182668
_cell_length_c   17.92887561
_cell_angle_alpha   77.59471611
_cell_angle_beta   63.97511463
_cell_angle_gamma   62.76945070
_symmetry_Int_Tables_number   1
_chemical_formula_structural   NdH3C7NO4
_chemical_formula_sum   'Nd8 H24 C56 N8 O32'
_cell_volume   3874.12421493
_cell_formula_units_Z   8
loop_
 _symmetry_equiv_pos_site_id
 _symmetry_equiv_pos_as_xyz
  1  'x, y, z'
loop_
 _atom_site_type_symbol
 _atom_site_label
 _atom_site_symmetry_multiplicity
 _atom_site_fract_x
 _atom_site_fract_y
 _atom_site_fract_z
 _atom_site_occupancy
  C  C0  1  0.74190000  0.85940000  0.07040000  1
  C  C1  1  0.32830000  0.35940000  0.57040000  1
  C  C2  1  0.90460000  0.88750000  0.00590000  1
  C  C3  1  0.20200000  0.38750000  0.50590000  1
  C  C4  1  0.85350000  0.83670000  0.01230000  1
  C  C5  1  0.29750000  0.33670000  0.51230000  1
  C  C6  1  0.00660000  0.86510000  0.94670000  1
  C  C7  1  0.18160000  0.36510000  0.44670000  1
  C  C8  1  0.70400000  0.54620000  0.15280000  1
  C  C9  1  0.59700000  0.04620000  0.65280000  1
  C  C10  1  0.05290000  0.79440000  0.89580000  1
  C  C11  1  0.25690000  0.29440000  0.39580000  1
  C  C12  1  0.70070000  0.83030000  0.84670000  1
  C  C13  1  0.62230000  0.33030000  0.34670000  1
  C  C14  1  0.99610000  0.74700000  0.90620000  1
  C  C15  1  0.35070000  0.24700000  0.40620000  1
  C  C16  1  0.68670000  0.97950000  0.67150000  1
  C  C17  1  0.66230000  0.47950000  0.17150000  1
  C  C18  1  0.73860000  0.86990000  0.76190000  1
  C  C19  1  0.62960000  0.36990000  0.26190000  1
  C  C20  1  0.78930000  0.95630000  0.61690000  1
  C  C21  1  0.63750000  0.45630000  0.11690000  1
  C  C22  1  0.84240000  0.84090000  0.70770000  1
  C  C23  1  0.60900000  0.34090000  0.20770000  1
  C  C24  1  0.03750000  0.67040000  0.85240000  1
  C  C25  1  0.43970000  0.17040000  0.35240000  1
  C  C26  1  0.86750000  0.88550000  0.63410000  1
  C  C27  1  0.61290000  0.38550000  0.13410000  1
  C  C28  1  0.13250000  0.11450000  0.36590000  1
  C  C29  1  0.38710000  0.61450000  0.86590000  1
  C  C30  1  0.96250000  0.32960000  0.14760000  1
  C  C31  1  0.56030000  0.82960000  0.64760000  1
  C  C32  1  0.15760000  0.15910000  0.29230000  1
  C  C33  1  0.39100000  0.65910000  0.79230000  1
  C  C34  1  0.21070000  0.04370000  0.38310000  1
  C  C35  1  0.36250000  0.54370000  0.88310000  1
  C  C36  1  0.26140000  0.13010000  0.23810000  1
  C  C37  1  0.37040000  0.63010000  0.73810000  1
  C  C38  1  0.31330000  0.02050000  0.32850000  1
  C  C39  1  0.33770000  0.52050000  0.82850000  1
  C  C40  1  0.00390000  0.25300000  0.09380000  1
  C  C41  1  0.64930000  0.75300000  0.59380000  1
  C  C42  1  0.29930000  0.16970000  0.15330000  1
  C  C43  1  0.37770000  0.66970000  0.65330000  1
  C  C44  1  0.94710000  0.20560000  0.10420000  1
  C  C45  1  0.74310000  0.70560000  0.60420000  1
  C  C46  1  0.29600000  0.45380000  0.84720000  1
  C  C47  1  0.40300000  0.95380000  0.34720000  1
  C  C48  1  0.99340000  0.13490000  0.05330000  1
  C  C49  1  0.81840000  0.63490000  0.55330000  1
  C  C50  1  0.14650000  0.16330000  0.98770000  1
  C  C51  1  0.70250000  0.66330000  0.48770000  1
  C  C52  1  0.09540000  0.11250000  0.99410000  1
  C  C53  1  0.79800000  0.61250000  0.49410000  1
  C  C54  1  0.25810000  0.14060000  0.92960000  1
  C  C55  1  0.67170000  0.64060000  0.42960000  1
  H  H56  1  0.87180000  0.93530000  0.04010000  1
  H  H57  1  0.15280000  0.43530000  0.54010000  1
  H  H58  1  0.04300000  0.89730000  0.94150000  1
  H  H59  1  0.11820000  0.39730000  0.44150000  1
  H  H60  1  0.12020000  0.77890000  0.85570000  1
  H  H61  1  0.24520000  0.27890000  0.35570000  1
  H  H62  1  0.80540000  0.98880000  0.56820000  1
  H  H63  1  0.63760000  0.48880000  0.06820000  1
  H  H64  1  0.06380000  0.13160000  0.40360000  1
  H  H65  1  0.40100000  0.63160000  0.90360000  1
  H  H66  1  0.89330000  0.79250000  0.72110000  1
  H  H67  1  0.59310000  0.29250000  0.22110000  1
  H  H68  1  0.10670000  0.20750000  0.27890000  1
  H  H69  1  0.40690000  0.70750000  0.77890000  1
  H  H70  1  0.93620000  0.86840000  0.59640000  1
  H  H71  1  0.59900000  0.36840000  0.09640000  1
  H  H72  1  0.19460000  0.01120000  0.43180000  1
  H  H73  1  0.36240000  0.51120000  0.93180000  1
  H  H74  1  0.87980000  0.22110000  0.14430000  1
  H  H75  1  0.75480000  0.72110000  0.64430000  1
  H  H76  1  0.95700000  0.10270000  0.05850000  1
  H  H77  1  0.88180000  0.60270000  0.55850000  1
  H  H78  1  0.12820000  0.06470000  0.95990000  1
  H  H79  1  0.84720000  0.56470000  0.45990000  1
  N  N80  1  0.89880000  0.76820000  0.96480000  1
  N  N81  1  0.36820000  0.26820000  0.46480000  1
  N  N82  1  0.66370000  0.93460000  0.74160000  1
  N  N83  1  0.66010000  0.43460000  0.24160000  1
  N  N84  1  0.33630000  0.06540000  0.25840000  1
  N  N85  1  0.33990000  0.56540000  0.75840000  1
  N  N86  1  0.10120000  0.23180000  0.03520000  1
  N  N87  1  0.63180000  0.73180000  0.53520000  1
  Nd  Nd88  1  0.74606000  0.45429000  0.32563000  1
  Nd  Nd89  1  0.47402000  0.95429000  0.82563000  1
  Nd  Nd90  1  0.79700000  0.67632000  0.98532000  1
  Nd  Nd91  1  0.54136000  0.17632000  0.48532000  1
  Nd  Nd92  1  0.20300000  0.32368000  0.01468000  1
  Nd  Nd93  1  0.45864000  0.82368000  0.51468000  1
  Nd  Nd94  1  0.25394000  0.54571000  0.67437000  1
  Nd  Nd95  1  0.52598000  0.04571000  0.17437000  1
  O  O96  1  0.73540000  0.57420000  0.38700000  1
  O  O97  1  0.30340000  0.07420000  0.88700000  1
  O  O98  1  0.70420000  0.81020000  0.06920000  1
  O  O99  1  0.41640000  0.31020000  0.56920000  1
  O  O100  1  0.73850000  0.55050000  0.20370000  1
  O  O101  1  0.50730000  0.05050000  0.70370000  1
  O  O102  1  0.66420000  0.34990000  0.38170000  1
  O  O103  1  0.60420000  0.84990000  0.88170000  1
  O  O104  1  0.70610000  0.59320000  0.08900000  1
  O  O105  1  0.61170000  0.09320000  0.58900000  1
  O  O106  1  0.76830000  0.77980000  0.87500000  1
  O  O107  1  0.57690000  0.27980000  0.37500000  1
  O  O108  1  0.87500000  0.34990000  0.20390000  1
  O  O109  1  0.57120000  0.84990000  0.70390000  1
  O  O110  1  0.97770000  0.63290000  0.87170000  1
  O  O111  1  0.51770000  0.13290000  0.37170000  1
  O  O112  1  0.02230000  0.36710000  0.12830000  1
  O  O113  1  0.48230000  0.86710000  0.62830000  1
  O  O114  1  0.12500000  0.65010000  0.79610000  1
  O  O115  1  0.42880000  0.15010000  0.29610000  1
  O  O116  1  0.23170000  0.22020000  0.12500000  1
  O  O117  1  0.42310000  0.72020000  0.62500000  1
  O  O118  1  0.29390000  0.40680000  0.91100000  1
  O  O119  1  0.38830000  0.90680000  0.41100000  1
  O  O120  1  0.33580000  0.65010000  0.61830000  1
  O  O121  1  0.39580000  0.15010000  0.11830000  1
  O  O122  1  0.26150000  0.44950000  0.79630000  1
  O  O123  1  0.49270000  0.94950000  0.29630000  1
  O  O124  1  0.29580000  0.18980000  0.93080000  1
  O  O125  1  0.58360000  0.68980000  0.43080000  1
  O  O126  1  0.26460000  0.42580000  0.61300000  1
  O  O127  1  0.69660000  0.92580000  0.11300000  1
