# generated using pymatgen
data_ZnH12C15(NO2)2
_symmetry_space_group_name_H-M   'P 1'
_cell_length_a   12.27510000
_cell_length_b   19.92880000
_cell_length_c   19.92880000
_cell_angle_alpha   103.53600000
_cell_angle_beta   93.89760000
_cell_angle_gamma   93.89760000
_symmetry_Int_Tables_number   1
_chemical_formula_structural   ZnH12C15(NO2)2
_chemical_formula_sum   'Zn8 H96 C120 N16 O32'
_cell_volume   4711.04797388
_cell_formula_units_Z   8
loop_
 _symmetry_equiv_pos_site_id
 _symmetry_equiv_pos_as_xyz
  1  'x, y, z'
loop_
 _atom_site_type_symbol
 _atom_site_label
 _atom_site_symmetry_multiplicity
 _atom_site_fract_x
 _atom_site_fract_y
 _atom_site_fract_z
 _atom_site_occupancy
  Zn  Zn0  1  0.01809000  0.34034000  0.08545000  1
  Zn  Zn1  1  0.11380000  0.15566000  0.66722000  1
  Zn  Zn2  1  0.31324000  0.11638000  0.60609000  1
  Zn  Zn3  1  0.42931000  0.93606000  0.19862000  1
  Zn  Zn4  1  0.51809000  0.08545000  0.34034000  1
  Zn  Zn5  1  0.61380000  0.66722000  0.15566000  1
  Zn  Zn6  1  0.81324000  0.60609000  0.11638000  1
  Zn  Zn7  1  0.92931000  0.19862000  0.93606000  1
  H  H8  1  0.00530000  0.28290000  0.73130000  1
  H  H9  1  0.00860000  0.34080000  0.30760000  1
  H  H10  1  0.01250000  0.13260000  0.79660000  1
  H  H11  1  0.03440000  0.73570000  0.27590000  1
  H  H12  1  0.05700000  0.59440000  0.17360000  1
  H  H13  1  0.05750000  0.21260000  0.81260000  1
  H  H14  1  0.06630000  0.64010000  0.11770000  1
  H  H15  1  0.09480000  0.41970000  0.97330000  1
  H  H16  1  0.13380000  0.03860000  0.95480000  1
  H  H17  1  0.13790000  0.48530000  0.15550000  1
  H  H18  1  0.14200000  0.93720000  0.22540000  1
  H  H19  1  0.14370000  0.81670000  0.36030000  1
  H  H20  1  0.15830000  0.05560000  0.83600000  1
  H  H21  1  0.15860000  0.59900000  0.01540000  1
  H  H22  1  0.16300000  0.92770000  0.45250000  1
  H  H23  1  0.17820000  0.10650000  0.38630000  1
  H  H24  1  0.18830000  0.74170000  0.22690000  1
  H  H25  1  0.20000000  0.45850000  0.08750000  1
  H  H26  1  0.20060000  0.00330000  0.05030000  1
  H  H27  1  0.21130000  0.52620000  0.00340000  1
  H  H28  1  0.23790000  0.82160000  0.15720000  1
  H  H29  1  0.23830000  0.66810000  0.21390000  1
  H  H30  1  0.26460000  0.33180000  0.83320000  1
  H  H31  1  0.26650000  0.17420000  0.89020000  1
  H  H32  1  0.28190000  0.42960000  0.93940000  1
  H  H33  1  0.29240000  0.22740000  0.45140000  1
  H  H34  1  0.30170000  0.84500000  0.28040000  1
  H  H35  1  0.30330000  0.33950000  0.05590000  1
  H  H36  1  0.30760000  0.29530000  0.24650000  1
  H  H37  1  0.32270000  0.80100000  0.09980000  1
  H  H38  1  0.34730000  0.25310000  0.34290000  1
  H  H39  1  0.36110000  0.63780000  0.12580000  1
  H  H40  1  0.37100000  0.07140000  0.46080000  1
  H  H41  1  0.38650000  0.98520000  0.52960000  1
  H  H42  1  0.39040000  0.51470000  0.01830000  1
  H  H43  1  0.39430000  0.69100000  0.08020000  1
  H  H44  1  0.42350000  0.98770000  0.73970000  1
  H  H45  1  0.42850000  0.84170000  0.30310000  1
  H  H46  1  0.42860000  0.66190000  0.24810000  1
  H  H47  1  0.43890000  0.14560000  0.48640000  1
  H  H48  1  0.45330000  0.17280000  0.88840000  1
  H  H49  1  0.45330000  0.42050000  0.31490000  1
  H  H50  1  0.45560000  0.92440000  0.95040000  1
  H  H51  1  0.46310000  0.00360000  0.60080000  1
  H  H52  1  0.46440000  0.96750000  0.42190000  1
  H  H53  1  0.47990000  0.94100000  0.83020000  1
  H  H54  1  0.49070000  0.38800000  0.10760000  1
  H  H55  1  0.49320000  0.51520000  0.27140000  1
  H  H56  1  0.50530000  0.73130000  0.28290000  1
  H  H57  1  0.50860000  0.30760000  0.34080000  1
  H  H58  1  0.51250000  0.79660000  0.13260000  1
  H  H59  1  0.53440000  0.27590000  0.73570000  1
  H  H60  1  0.55700000  0.17360000  0.59440000  1
  H  H61  1  0.55750000  0.81260000  0.21260000  1
  H  H62  1  0.56630000  0.11770000  0.64010000  1
  H  H63  1  0.59480000  0.97330000  0.41970000  1
  H  H64  1  0.63380000  0.95480000  0.03860000  1
  H  H65  1  0.63790000  0.15550000  0.48530000  1
  H  H66  1  0.64200000  0.22540000  0.93720000  1
  H  H67  1  0.64370000  0.36030000  0.81670000  1
  H  H68  1  0.65830000  0.83600000  0.05560000  1
  H  H69  1  0.65860000  0.01540000  0.59900000  1
  H  H70  1  0.66300000  0.45250000  0.92770000  1
  H  H71  1  0.67820000  0.38630000  0.10650000  1
  H  H72  1  0.68830000  0.22690000  0.74170000  1
  H  H73  1  0.70000000  0.08750000  0.45850000  1
  H  H74  1  0.70060000  0.05030000  0.00330000  1
  H  H75  1  0.71130000  0.00340000  0.52620000  1
  H  H76  1  0.73790000  0.15720000  0.82160000  1
  H  H77  1  0.73830000  0.21390000  0.66810000  1
  H  H78  1  0.76460000  0.83320000  0.33180000  1
  H  H79  1  0.76650000  0.89020000  0.17420000  1
  H  H80  1  0.78190000  0.93940000  0.42960000  1
  H  H81  1  0.79240000  0.45140000  0.22740000  1
  H  H82  1  0.80170000  0.28040000  0.84500000  1
  H  H83  1  0.80330000  0.05590000  0.33950000  1
  H  H84  1  0.80760000  0.24650000  0.29530000  1
  H  H85  1  0.82270000  0.09980000  0.80100000  1
  H  H86  1  0.84730000  0.34290000  0.25310000  1
  H  H87  1  0.86110000  0.12580000  0.63780000  1
  H  H88  1  0.87100000  0.46080000  0.07140000  1
  H  H89  1  0.88650000  0.52960000  0.98520000  1
  H  H90  1  0.89040000  0.01830000  0.51470000  1
  H  H91  1  0.89430000  0.08020000  0.69100000  1
  H  H92  1  0.92350000  0.73970000  0.98770000  1
  H  H93  1  0.92850000  0.30310000  0.84170000  1
  H  H94  1  0.92860000  0.24810000  0.66190000  1
  H  H95  1  0.93890000  0.48640000  0.14560000  1
  H  H96  1  0.95330000  0.31490000  0.42050000  1
  H  H97  1  0.95330000  0.88840000  0.17280000  1
  H  H98  1  0.95560000  0.95040000  0.92440000  1
  H  H99  1  0.96310000  0.60080000  0.00360000  1
  H  H100  1  0.96440000  0.42190000  0.96750000  1
  H  H101  1  0.97990000  0.83020000  0.94100000  1
  H  H102  1  0.99070000  0.10760000  0.38800000  1
  H  H103  1  0.99320000  0.27140000  0.51520000  1
  C  C104  1  0.00220000  0.77279000  0.30453000  1
  C  C105  1  0.02070000  0.87690000  0.39710000  1
  C  C106  1  0.02080000  0.07306000  0.35468000  1
  C  C107  1  0.02250000  0.29743000  0.42637000  1
  C  C108  1  0.03370000  0.44569000  0.99287000  1
  C  C109  1  0.03830000  0.98100000  0.49056000  1
  C  C110  1  0.04600000  0.27159000  0.48247000  1
  C  C111  1  0.05750000  0.59211000  0.12345000  1
  C  C112  1  0.06720000  0.82102000  0.35446000  1
  C  C113  1  0.07710000  0.32319000  0.31557000  1
  C  C114  1  0.08570000  0.92905000  0.44799000  1
  C  C115  1  0.09970000  0.29898000  0.37638000  1
  C  C116  1  0.10650000  0.03479000  0.54395000  1
  C  C117  1  0.11040000  0.97154000  0.25796000  1
  C  C118  1  0.12540000  0.34304000  0.20178000  1
  C  C119  1  0.13140000  0.07209000  0.35415000  1
  C  C120  1  0.13730000  0.48371000  0.10547000  1
  C  C121  1  0.14650000  0.26049000  0.97309000  1
  C  C122  1  0.14760000  0.24484000  0.49282000  1
  C  C123  1  0.14880000  0.55125000  0.02207000  1
  C  C124  1  0.15340000  0.32127000  0.26853000  1
  C  C125  1  0.17020000  0.21180000  0.55196000  1
  C  C126  1  0.17710000  0.02007000  0.30581000  1
  C  C127  1  0.20030000  0.01672000  0.95374000  1
  C  C128  1  0.20170000  0.27207000  0.38631000  1
  C  C129  1  0.22380000  0.24542000  0.44476000  1
  C  C130  1  0.22430000  0.03330000  0.83586000  1
  C  C131  1  0.23900000  0.99484000  0.00976000  1
  C  C132  1  0.25380000  0.06023000  0.72253000  1
  C  C133  1  0.25460000  0.71755000  0.21441000  1
  C  C134  1  0.25490000  0.29558000  0.27926000  1
  C  C135  1  0.25880000  0.00716000  0.89370000  1
  C  C136  1  0.26710000  0.25827000  0.97329000  1
  C  C137  1  0.27860000  0.27102000  0.33650000  1
  C  C138  1  0.28560000  0.02654000  0.77988000  1
  C  C139  1  0.29840000  0.02015000  0.30605000  1
  C  C140  1  0.30400000  0.79673000  0.14621000  1
  C  C141  1  0.31330000  0.20780000  0.92334000  1
  C  C142  1  0.32060000  0.23745000  0.72609000  1
  C  C143  1  0.33480000  0.30606000  0.02230000  1
  C  C144  1  0.33520000  0.95985000  0.00865000  1
  C  C145  1  0.34150000  0.33759000  0.83039000  1
  C  C146  1  0.35610000  0.97232000  0.89190000  1
  C  C147  1  0.35860000  0.43447000  0.93579000  1
  C  C148  1  0.36760000  0.82055000  0.26767000  1
  C  C149  1  0.37650000  0.68743000  0.12699000  1
  C  C150  1  0.37850000  0.93749000  0.07163000  1
  C  C151  1  0.38160000  0.99221000  0.77861000  1
  C  C152  1  0.38860000  0.29533000  0.77765000  1
  C  C153  1  0.39150000  0.94859000  0.95107000  1
  C  C154  1  0.40610000  0.38964000  0.88052000  1
  C  C155  1  0.41560000  0.96505000  0.83257000  1
  C  C156  1  0.42320000  0.48395000  0.98307000  1
  C  C157  1  0.42380000  0.20682000  0.92234000  1
  C  C158  1  0.44090000  0.09569000  0.48493000  1
  C  C159  1  0.44310000  0.71135000  0.24807000  1
  C  C160  1  0.45070000  0.30635000  0.02351000  1
  C  C161  1  0.45590000  0.01074000  0.55326000  1
  C  C162  1  0.49410000  0.79187000  0.17897000  1
  C  C163  1  0.49570000  0.25635000  0.97171000  1
  C  C164  1  0.50220000  0.30453000  0.77279000  1
  C  C165  1  0.52070000  0.39710000  0.87690000  1
  C  C166  1  0.52080000  0.35468000  0.07306000  1
  C  C167  1  0.52250000  0.42637000  0.29743000  1
  C  C168  1  0.53370000  0.99287000  0.44569000  1
  C  C169  1  0.53830000  0.49056000  0.98100000  1
  C  C170  1  0.54600000  0.48247000  0.27159000  1
  C  C171  1  0.55750000  0.12345000  0.59211000  1
  C  C172  1  0.56720000  0.35446000  0.82102000  1
  C  C173  1  0.57710000  0.31557000  0.32319000  1
  C  C174  1  0.58570000  0.44799000  0.92905000  1
  C  C175  1  0.59970000  0.37638000  0.29898000  1
  C  C176  1  0.60650000  0.54395000  0.03479000  1
  C  C177  1  0.61040000  0.25796000  0.97154000  1
  C  C178  1  0.62540000  0.20178000  0.34304000  1
  C  C179  1  0.63140000  0.35415000  0.07209000  1
  C  C180  1  0.63730000  0.10547000  0.48371000  1
  C  C181  1  0.64650000  0.97309000  0.26049000  1
  C  C182  1  0.64760000  0.49282000  0.24484000  1
  C  C183  1  0.64880000  0.02207000  0.55125000  1
  C  C184  1  0.65340000  0.26853000  0.32127000  1
  C  C185  1  0.67020000  0.55196000  0.21180000  1
  C  C186  1  0.67710000  0.30581000  0.02007000  1
  C  C187  1  0.70030000  0.95374000  0.01672000  1
  C  C188  1  0.70170000  0.38631000  0.27207000  1
  C  C189  1  0.72380000  0.44476000  0.24542000  1
  C  C190  1  0.72430000  0.83586000  0.03330000  1
  C  C191  1  0.73900000  0.00976000  0.99484000  1
  C  C192  1  0.75380000  0.72253000  0.06023000  1
  C  C193  1  0.75460000  0.21441000  0.71755000  1
  C  C194  1  0.75490000  0.27926000  0.29558000  1
  C  C195  1  0.75880000  0.89370000  0.00716000  1
  C  C196  1  0.76710000  0.97329000  0.25827000  1
  C  C197  1  0.77860000  0.33650000  0.27102000  1
  C  C198  1  0.78560000  0.77988000  0.02654000  1
  C  C199  1  0.79840000  0.30605000  0.02015000  1
  C  C200  1  0.80400000  0.14621000  0.79673000  1
  C  C201  1  0.81330000  0.92334000  0.20780000  1
  C  C202  1  0.82060000  0.72609000  0.23745000  1
  C  C203  1  0.83480000  0.02230000  0.30606000  1
  C  C204  1  0.83520000  0.00865000  0.95985000  1
  C  C205  1  0.84150000  0.83039000  0.33759000  1
  C  C206  1  0.85610000  0.89190000  0.97232000  1
  C  C207  1  0.85860000  0.93579000  0.43447000  1
  C  C208  1  0.86760000  0.26767000  0.82055000  1
  C  C209  1  0.87650000  0.12699000  0.68743000  1
  C  C210  1  0.87850000  0.07163000  0.93749000  1
  C  C211  1  0.88160000  0.77861000  0.99221000  1
  C  C212  1  0.88860000  0.77765000  0.29533000  1
  C  C213  1  0.89150000  0.95107000  0.94859000  1
  C  C214  1  0.90610000  0.88052000  0.38964000  1
  C  C215  1  0.91560000  0.83257000  0.96505000  1
  C  C216  1  0.92320000  0.98307000  0.48395000  1
  C  C217  1  0.92380000  0.92234000  0.20682000  1
  C  C218  1  0.94090000  0.48493000  0.09569000  1
  C  C219  1  0.94310000  0.24807000  0.71135000  1
  C  C220  1  0.95070000  0.02351000  0.30635000  1
  C  C221  1  0.95590000  0.55326000  0.01074000  1
  C  C222  1  0.99410000  0.17897000  0.79187000  1
  C  C223  1  0.99570000  0.97171000  0.25635000  1
  N  N224  1  0.03240000  0.44543000  0.06861000  1
  N  N225  1  0.04690000  0.51648000  0.98312000  1
  N  N226  1  0.15010000  0.55455000  0.09615000  1
  N  N227  1  0.27950000  0.72331000  0.14471000  1
  N  N228  1  0.34610000  0.74755000  0.26747000  1
  N  N229  1  0.39680000  0.82972000  0.19842000  1
  N  N230  1  0.45110000  0.08650000  0.55694000  1
  N  N231  1  0.47340000  0.71688000  0.17796000  1
  N  N232  1  0.53240000  0.06861000  0.44543000  1
  N  N233  1  0.54690000  0.98312000  0.51648000  1
  N  N234  1  0.65010000  0.09615000  0.55455000  1
  N  N235  1  0.77950000  0.14471000  0.72331000  1
  N  N236  1  0.84610000  0.26747000  0.74755000  1
  N  N237  1  0.89680000  0.19842000  0.82972000  1
  N  N238  1  0.95110000  0.55694000  0.08650000  1
  N  N239  1  0.97340000  0.17796000  0.71688000  1
  O  O240  1  0.02850000  0.35800000  0.19016000  1
  O  O241  1  0.05650000  0.07198000  0.59142000  1
  O  O242  1  0.08850000  0.20740000  0.93918000  1
  O  O243  1  0.09920000  0.21226000  0.59422000  1
  O  O244  1  0.10970000  0.31523000  0.00627000  1
  O  O245  1  0.16930000  0.09282000  0.72696000  1
  O  O246  1  0.19490000  0.34220000  0.15960000  1
  O  O247  1  0.20750000  0.04258000  0.53938000  1
  O  O248  1  0.21880000  0.23399000  0.72817000  1
  O  O249  1  0.26010000  0.18536000  0.55436000  1
  O  O250  1  0.31620000  0.05604000  0.67478000  1
  O  O251  1  0.33540000  0.96234000  0.12740000  1
  O  O252  1  0.33820000  0.96480000  0.27698000  1
  O  O253  1  0.35490000  0.07493000  0.33801000  1
  O  O254  1  0.37360000  0.19761000  0.68509000  1
  O  O255  1  0.45290000  0.89832000  0.06860000  1
  O  O256  1  0.52850000  0.19016000  0.35800000  1
  O  O257  1  0.55650000  0.59142000  0.07198000  1
  O  O258  1  0.58850000  0.93918000  0.20740000  1
  O  O259  1  0.59920000  0.59422000  0.21226000  1
  O  O260  1  0.60970000  0.00627000  0.31523000  1
  O  O261  1  0.66930000  0.72696000  0.09282000  1
  O  O262  1  0.69490000  0.15960000  0.34220000  1
  O  O263  1  0.70750000  0.53938000  0.04258000  1
  O  O264  1  0.71880000  0.72817000  0.23399000  1
  O  O265  1  0.76010000  0.55436000  0.18536000  1
  O  O266  1  0.81620000  0.67478000  0.05604000  1
  O  O267  1  0.83540000  0.12740000  0.96234000  1
  O  O268  1  0.83820000  0.27698000  0.96480000  1
  O  O269  1  0.85490000  0.33801000  0.07493000  1
  O  O270  1  0.87360000  0.68509000  0.19761000  1
  O  O271  1  0.95290000  0.06860000  0.89832000  1
