# generated using pymatgen
data_LiH4C6NO2
_symmetry_space_group_name_H-M   'P 1'
_cell_length_a   5.42410000
_cell_length_b   11.11810000
_cell_length_c   13.82930000
_cell_angle_alpha   90.00000000
_cell_angle_beta   90.00000000
_cell_angle_gamma   102.79000000
_symmetry_Int_Tables_number   1
_chemical_formula_structural   LiH4C6NO2
_chemical_formula_sum   'Li4 H16 C24 N4 O8'
_cell_volume   813.29258571
_cell_formula_units_Z   4
loop_
 _symmetry_equiv_pos_site_id
 _symmetry_equiv_pos_as_xyz
  1  'x, y, z'
loop_
 _atom_site_type_symbol
 _atom_site_label
 _atom_site_symmetry_multiplicity
 _atom_site_fract_x
 _atom_site_fract_y
 _atom_site_fract_z
 _atom_site_occupancy
  Li  Li0  1  0.81710000  0.51500000  0.93440000  1
  Li  Li1  1  0.68290000  0.98500000  0.43440000  1
  Li  Li2  1  0.31710000  0.01500000  0.56560000  1
  Li  Li3  1  0.18290000  0.48500000  0.06560000  1
  H  H4  1  0.96340000  0.21860000  0.12320000  1
  H  H5  1  0.96310000  0.06990000  0.24050000  1
  H  H6  1  0.88490000  0.65530000  0.12760000  1
  H  H7  1  0.85440000  0.79970000  0.24410000  1
  H  H8  1  0.64560000  0.70030000  0.74410000  1
  H  H9  1  0.61510000  0.84470000  0.62760000  1
  H  H10  1  0.53690000  0.43010000  0.74050000  1
  H  H11  1  0.53660000  0.28140000  0.62320000  1
  H  H12  1  0.46340000  0.71860000  0.37680000  1
  H  H13  1  0.46310000  0.56990000  0.25950000  1
  H  H14  1  0.38490000  0.15530000  0.37240000  1
  H  H15  1  0.35440000  0.29970000  0.25590000  1
  H  H16  1  0.14560000  0.20030000  0.75590000  1
  H  H17  1  0.11510000  0.34470000  0.87240000  1
  H  H18  1  0.03690000  0.93010000  0.75950000  1
  H  H19  1  0.03660000  0.78140000  0.87680000  1
  C  C20  1  0.99820000  0.33260000  0.82024000  1
  C  C21  1  0.98270000  0.75404000  0.24863000  1
  C  C22  1  0.86940000  0.13424000  0.59647000  1
  C  C23  1  0.84680000  0.22605000  0.67512000  1
  C  C24  1  0.83970000  0.11856000  0.24413000  1
  C  C25  1  0.83920000  0.20564000  0.17284000  1
  C  C26  1  0.66080000  0.29436000  0.67284000  1
  C  C27  1  0.66030000  0.38144000  0.74413000  1
  C  C28  1  0.65320000  0.27395000  0.17512000  1
  C  C29  1  0.63060000  0.36576000  0.09647000  1
  C  C30  1  0.51730000  0.74596000  0.74863000  1
  C  C31  1  0.50180000  0.16740000  0.32024000  1
  C  C32  1  0.49820000  0.83260000  0.67976000  1
  C  C33  1  0.48270000  0.25404000  0.25137000  1
  C  C34  1  0.36940000  0.63424000  0.90353000  1
  C  C35  1  0.34680000  0.72605000  0.82488000  1
  C  C36  1  0.33970000  0.61856000  0.25587000  1
  C  C37  1  0.33920000  0.70564000  0.32716000  1
  C  C38  1  0.16080000  0.79436000  0.82716000  1
  C  C39  1  0.16030000  0.88144000  0.75587000  1
  C  C40  1  0.15320000  0.77395000  0.32488000  1
  C  C41  1  0.13060000  0.86576000  0.40353000  1
  C  C42  1  0.01730000  0.24596000  0.75137000  1
  C  C43  1  0.00180000  0.66740000  0.17976000  1
  N  N44  1  0.82300000  0.40104000  0.81769000  1
  N  N45  1  0.67700000  0.09896000  0.31769000  1
  N  N46  1  0.32300000  0.90104000  0.68231000  1
  N  N47  1  0.17700000  0.59896000  0.18231000  1
  O  O48  1  0.91950000  0.88962000  0.41365000  1
  O  O49  1  0.82390000  0.40884000  0.04677000  1
  O  O50  1  0.67610000  0.09116000  0.54677000  1
  O  O51  1  0.58050000  0.61038000  0.91365000  1
  O  O52  1  0.41950000  0.38962000  0.08635000  1
  O  O53  1  0.32390000  0.90884000  0.45323000  1
  O  O54  1  0.17610000  0.59116000  0.95323000  1
  O  O55  1  0.08050000  0.11038000  0.58635000  1
