# generated using pymatgen
data_CoH19C25N3O4
_symmetry_space_group_name_H-M   'P 1'
_cell_length_a   9.91110000
_cell_length_b   11.34952801
_cell_length_c   26.63948059
_cell_angle_alpha   85.34112042
_cell_angle_beta   79.27923198
_cell_angle_gamma   64.11090992
_symmetry_Int_Tables_number   1
_chemical_formula_structural   CoH19C25N3O4
_chemical_formula_sum   'Co4 H76 C100 N12 O16'
_cell_volume   2648.78837680
_cell_formula_units_Z   4
loop_
 _symmetry_equiv_pos_site_id
 _symmetry_equiv_pos_as_xyz
  1  'x, y, z'
loop_
 _atom_site_type_symbol
 _atom_site_label
 _atom_site_symmetry_multiplicity
 _atom_site_fract_x
 _atom_site_fract_y
 _atom_site_fract_z
 _atom_site_occupancy
  C  C0  1  0.74618000  0.17922000  0.97522000  1
  C  C1  1  0.69828000  0.39382000  0.96242000  1
  C  C2  1  0.12177000  0.26554000  0.94932000  1
  C  C3  1  0.05939000  0.40126000  0.94876000  1
  C  C4  1  0.27418000  0.19348000  0.92916000  1
  C  C5  1  0.50208000  0.97718000  0.92846000  1
  C  C6  1  0.34565000  0.04856000  0.92834000  1
  C  C7  1  0.56833000  0.84140000  0.92634000  1
  C  C8  1  0.25899000  0.98054000  0.92628000  1
  C  C9  1  0.73701000  0.76802000  0.92496000  1
  C  C10  1  0.48133000  0.77542000  0.92452000  1
  C  C11  1  0.32514000  0.84564000  0.92408000  1
  C  C12  1  0.79798000  0.15154000  0.92390000  1
  C  C13  1  0.23077000  0.77350000  0.92116000  1
  C  C14  1  0.74605000  0.37438000  0.91032000  1
  C  C15  1  0.28492000  0.39934000  0.90962000  1
  C  C16  1  0.35460000  0.26472000  0.90888000  1
  C  C17  1  0.79711000  0.25144000  0.88994000  1
  C  C18  1  0.85547000  0.22708000  0.83338000  1
  C  C19  1  0.02454000  0.14742000  0.82150000  1
  C  C20  1  0.02123000  0.58548000  0.82086000  1
  C  C21  1  0.13428000  0.72164000  0.80960000  1
  C  C22  1  0.02961000  0.57756000  0.76842000  1
  C  C23  1  0.08018000  0.14516000  0.76468000  1
  C  C24  1  0.14914000  0.71688000  0.75684000  1
  C  C25  1  0.15598000  0.21688000  0.74316000  1
  C  C26  1  0.09486000  0.64516000  0.73532000  1
  C  C27  1  0.04803000  0.07756000  0.73158000  1
  C  C28  1  0.19388000  0.22164000  0.69040000  1
  C  C29  1  0.09209000  0.08548000  0.67914000  1
  C  C30  1  0.09604000  0.64742000  0.67850000  1
  C  C31  1  0.93883833  0.72708000  0.66664333  1
  C  C32  1  0.93705000  0.75144000  0.61006000  1
  C  C33  1  0.51348000  0.76472000  0.59112000  1
  C  C34  1  0.44454000  0.89934000  0.59038000  1
  C  C35  1  0.90637000  0.87438000  0.58968000  1
  C  C36  1  0.40193000  0.27350000  0.57884000  1
  C  C37  1  0.97188000  0.65154000  0.57610000  1
  C  C38  1  0.49922000  0.34564000  0.57592000  1
  C  C39  1  0.65585000  0.27542000  0.57548000  1
  C  C40  1  0.91197000  0.26802000  0.57504000  1
  C  C41  1  0.43527000  0.48054000  0.57372000  1
  C  C42  1  0.74467000  0.34140000  0.57366000  1
  C  C43  1  0.52399000  0.54856000  0.57166000  1
  C  C44  1  0.68054000  0.47718000  0.57154000  1
  C  C45  1  0.45334000  0.69348000  0.57084000  1
  C  C46  1  0.25815000  0.90126000  0.55124000  1
  C  C47  1  0.32109000  0.76554000  0.55068000  1
  C  C48  1  0.91070000  0.89382000  0.53758000  1
  C  C49  1  0.97140000  0.67922000  0.52478000  1
  C  C50  1  0.17540000  0.32078000  0.47522000  1
  C  C51  1  0.34210000  0.10618000  0.46242000  1
  C  C52  1  0.63731000  0.23446000  0.44932000  1
  C  C53  1  0.71065000  0.09874000  0.44876000  1
  C  C54  1  0.71766000  0.30652000  0.42916000  1
  C  C55  1  0.72926000  0.52282000  0.42846000  1
  C  C56  1  0.64421000  0.45144000  0.42834000  1
  C  C57  1  0.65973000  0.65860000  0.42634000  1
  C  C58  1  0.48953000  0.51946000  0.42628000  1
  C  C59  1  0.75503000  0.73198000  0.42496000  1
  C  C60  1  0.50675000  0.72458000  0.42452000  1
  C  C61  1  0.42078000  0.65436000  0.42408000  1
  C  C62  1  0.19952000  0.34846000  0.42390000  1
  C  C63  1  0.25427000  0.72650000  0.42116000  1
  C  C64  1  0.37043000  0.12562000  0.41032000  1
  C  C65  1  0.93426000  0.10066000  0.40962000  1
  C  C66  1  0.86932000  0.23528000  0.40888000  1
  C  C67  1  0.29855000  0.24856000  0.38994000  1
  C  C68  1  0.33256167  0.27292000  0.33335667  1
  C  C69  1  0.42196000  0.35258000  0.32150000  1
  C  C70  1  0.85671000  0.91452000  0.32086000  1
  C  C71  1  0.10592000  0.77836000  0.30960000  1
  C  C72  1  0.85717000  0.92244000  0.26842000  1
  C  C73  1  0.47534000  0.35484000  0.26468000  1
  C  C74  1  0.11602000  0.78312000  0.25684000  1
  C  C75  1  0.62286000  0.28312000  0.24316000  1
  C  C76  1  0.99002000  0.85484000  0.23532000  1
  C  C77  1  0.37559000  0.42244000  0.23158000  1
  C  C78  1  0.66552000  0.27836000  0.19040000  1
  C  C79  1  0.42757000  0.41452000  0.17914000  1
  C  C80  1  0.99346000  0.85258000  0.17850000  1
  C  C81  1  0.91593000  0.77292000  0.16662000  1
  C  C82  1  0.93849000  0.74856000  0.11006000  1
  C  C83  1  0.52820000  0.73528000  0.09112000  1
  C  C84  1  0.59388000  0.60066000  0.09038000  1
  C  C85  1  0.03075000  0.62562000  0.08968000  1
  C  C86  1  0.92543000  0.22650000  0.07884000  1
  C  C87  1  0.87342000  0.84846000  0.07610000  1
  C  C88  1  0.09486000  0.15436000  0.07592000  1
  C  C89  1  0.18127000  0.22458000  0.07548000  1
  C  C90  1  0.42999000  0.23198000  0.07504000  1
  C  C91  1  0.16581000  0.01946000  0.07372000  1
  C  C92  1  0.33607000  0.15860000  0.07366000  1
  C  C93  1  0.32255000  0.95144000  0.07166000  1
  C  C94  1  0.40772000  0.02282000  0.07154000  1
  C  C95  1  0.39682000  0.80652000  0.07084000  1
  C  C96  1  0.40941000  0.59874000  0.05124000  1
  C  C97  1  0.33663000  0.73446000  0.05068000  1
  C  C98  1  0.05452000  0.60618000  0.03758000  1
  C  C99  1  0.90062000  0.82078000  0.02478000  1
  Co  Co100  1  0.03329000  0.67912000  0.92358000  1
  Co  Co101  1  0.20687000  0.17912000  0.57642000  1
  Co  Co102  1  0.96241000  0.82088000  0.42358000  1
  Co  Co103  1  0.63599000  0.32088000  0.07642000  1
  H  H104  1  0.74650000  0.10980000  0.99780000  1
  H  H105  1  0.66600000  0.47900000  0.97560000  1
  H  H106  1  0.95540000  0.44840000  0.96340000  1
  H  H107  1  0.06040000  0.22200000  0.96340000  1
  H  H108  1  0.56290000  0.02180000  0.93000000  1
  H  H109  1  0.15270000  0.02780000  0.92640000  1
  H  H110  1  0.52710000  0.68240000  0.92360000  1
  H  H111  1  0.83400000  0.06480000  0.91180000  1
  H  H112  1  0.34380000  0.44520000  0.89580000  1
  H  H113  1  0.45910000  0.22020000  0.89420000  1
  H  H114  1  0.74370000  0.44560000  0.88860000  1
  H  H115  1  0.97770000  0.53640000  0.84280000  1
  H  H116  1  0.07560000  0.18540000  0.83940000  1
  H  H117  1  0.05090000  0.05680000  0.83400000  1
  H  H118  1  0.17190000  0.77360000  0.82340000  1
  H  H119  1  0.80460000  0.18080000  0.82020000  1
  H  H120  1  0.82820000  0.31220000  0.81560000  1
  H  H121  1  0.18310000  0.26380000  0.76420000  1
  H  H122  1  0.99030000  0.52560000  0.75540000  1
  H  H123  1  0.99570000  0.02560000  0.74460000  1
  H  H124  1  0.19730000  0.76380000  0.73580000  1
  H  H125  1  0.89380000  0.81220000  0.68440000  1
  H  H126  1  0.87480000  0.68080000  0.67980000  1
  H  H127  1  0.24530000  0.27360000  0.67660000  1
  H  H128  1  0.13490000  0.55680000  0.66600000  1
  H  H129  1  0.16500000  0.68540000  0.66060000  1
  H  H130  1  0.07050000  0.03640000  0.65720000  1
  H  H131  1  0.88230000  0.94560000  0.61140000  1
  H  H132  1  0.60330000  0.72020000  0.60580000  1
  H  H133  1  0.48960000  0.94520000  0.60420000  1
  H  H134  1  0.99580000  0.56480000  0.58820000  1
  H  H135  1  0.70070000  0.18240000  0.57640000  1
  H  H136  1  0.32910000  0.52780000  0.57360000  1
  H  H137  1  0.74290000  0.52180000  0.57000000  1
  H  H138  1  0.16880000  0.94840000  0.53660000  1
  H  H139  1  0.27380000  0.72200000  0.53660000  1
  H  H140  1  0.89160000  0.97900000  0.52440000  1
  H  H141  1  0.99430000  0.60980000  0.50220000  1
  H  H142  1  0.10630000  0.39020000  0.49780000  1
  H  H143  1  0.39500000  0.02100000  0.47560000  1
  H  H144  1  0.53240000  0.27800000  0.46340000  1
  H  H145  1  0.65380000  0.05160000  0.46340000  1
  H  H146  1  0.83470000  0.47820000  0.43000000  1
  H  H147  1  0.43050000  0.47220000  0.42640000  1
  H  H148  1  0.45950000  0.81760000  0.42360000  1
  H  H149  1  0.14880000  0.43520000  0.41180000  1
  H  H150  1  0.03900000  0.05480000  0.39580000  1
  H  H151  1  0.92930000  0.27980000  0.39420000  1
  H  H152  1  0.43930000  0.05440000  0.38860000  1
  H  H153  1  0.76410000  0.96360000  0.34280000  1
  H  H154  1  0.51100000  0.31460000  0.33940000  1
  H  H155  1  0.35770000  0.44320000  0.33400000  1
  H  H156  1  0.19550000  0.72640000  0.32340000  1
  H  H157  1  0.23540000  0.31920000  0.32020000  1
  H  H158  1  0.39040000  0.18780000  0.31560000  1
  H  H159  1  0.69690000  0.23620000  0.26420000  1
  H  H160  1  0.76590000  0.97440000  0.25540000  1
  H  H161  1  0.27130000  0.47440000  0.24460000  1
  H  H162  1  0.21110000  0.73620000  0.23580000  1
  H  H163  1  0.95600000  0.68780000  0.18440000  1
  H  H164  1  0.80560000  0.81920000  0.17980000  1
  H  H165  1  0.76890000  0.22640000  0.17660000  1
  H  H166  1  0.94170000  0.94320000  0.16600000  1
  H  H167  1  0.10040000  0.81460000  0.16060000  1
  H  H168  1  0.35690000  0.46360000  0.15720000  1
  H  H169  1  0.07790000  0.55440000  0.11140000  1
  H  H170  1  0.57350000  0.77980000  0.10580000  1
  H  H171  1  0.68480000  0.55480000  0.10420000  1
  H  H172  1  0.81060000  0.93520000  0.08820000  1
  H  H173  1  0.13310000  0.31760000  0.07640000  1
  H  H174  1  0.10690000  0.97220000  0.07360000  1
  H  H175  1  0.51470000  0.97820000  0.07000000  1
  H  H176  1  0.24580000  0.77800000  0.03660000  1
  H  H177  1  0.36720000  0.55160000  0.03660000  1
  H  H178  1  0.12060000  0.52100000  0.02440000  1
  H  H179  1  0.85410000  0.89020000  0.00220000  1
  N  N180  1  0.69532000  0.29886000  0.99510000  1
  N  N181  1  0.13776000  0.46894000  0.92894000  1
  N  N182  1  0.07062000  0.65764000  0.84172000  1
  N  N183  1  0.16234000  0.15764000  0.65828000  1
  N  N184  1  0.31670000  0.96894000  0.57106000  1
  N  N185  1  0.94042000  0.79886000  0.50490000  1
  N  N186  1  0.24418000  0.20114000  0.49510000  1
  N  N187  1  0.85670000  0.03106000  0.42894000  1
  N  N188  1  0.97826000  0.84236000  0.34172000  1
  N  N189  1  0.56998000  0.34236000  0.15828000  1
  N  N190  1  0.53564000  0.53106000  0.07106000  1
  N  N191  1  0.98928000  0.70114000  0.00490000  1
  O  O192  1  0.79573000  0.64698000  0.92976000  1
  O  O193  1  0.28587000  0.65416000  0.92250000  1
  O  O194  1  0.81505000  0.83180000  0.91878000  1
  O  O195  1  0.09244000  0.83940000  0.91774000  1
  O  O196  1  0.26018000  0.33940000  0.58226000  1
  O  O197  1  0.98383000  0.33180000  0.58122000  1
  O  O198  1  0.45837000  0.15416000  0.57750000  1
  O  O199  1  0.97549000  0.14698000  0.57024000  1
  O  O200  1  0.69271000  0.85302000  0.42976000  1
  O  O201  1  0.19003000  0.84584000  0.42250000  1
  O  O202  1  0.89685000  0.66820000  0.41878000  1
  O  O203  1  0.18184000  0.66060000  0.41774000  1
  O  O204  1  0.84958000  0.16060000  0.08226000  1
  O  O205  1  0.56563000  0.16820000  0.08122000  1
  O  O206  1  0.86253000  0.34584000  0.07750000  1
  O  O207  1  0.37247000  0.35302000  0.07024000  1
