# generated using pymatgen
data_CoH20C32N4O7
_symmetry_space_group_name_H-M   'P 1'
_cell_length_a   10.14200000
_cell_length_b   13.22200000
_cell_length_c   14.87200000
_cell_angle_alpha   109.01800000
_cell_angle_beta   101.88200000
_cell_angle_gamma   98.99900000
_symmetry_Int_Tables_number   1
_chemical_formula_structural   CoH20C32N4O7
_chemical_formula_sum   'Co2 H40 C64 N8 O14'
_cell_volume   1790.38969215
_cell_formula_units_Z   2
loop_
 _symmetry_equiv_pos_site_id
 _symmetry_equiv_pos_as_xyz
  1  'x, y, z'
loop_
 _atom_site_type_symbol
 _atom_site_label
 _atom_site_symmetry_multiplicity
 _atom_site_fract_x
 _atom_site_fract_y
 _atom_site_fract_z
 _atom_site_occupancy
  Co  Co0  1  0.46997000  0.48530000  0.85157000  1
  Co  Co1  1  0.53003000  0.51470000  0.14843000  1
  H  H2  1  0.00860000  0.13590000  0.19060000  1
  H  H3  1  0.03120000  0.28760000  0.45790000  1
  H  H4  1  0.04110000  0.47010000  0.84750000  1
  H  H5  1  0.04960000  0.46050000  0.56810000  1
  H  H6  1  0.10820000  0.12420000  0.65980000  1
  H  H7  1  0.14970000  0.30940000  0.25590000  1
  H  H8  1  0.16740000  0.16060000  0.04490000  1
  H  H9  1  0.17970000  0.56040000  0.73080000  1
  H  H10  1  0.18020000  0.53410000  0.13730000  1
  H  H11  1  0.19420000  0.30680000  0.75220000  1
  H  H12  1  0.21880000  0.67060000  0.31360000  1
  H  H13  1  0.24280000  0.84130000  0.42790000  1
  H  H14  1  0.27430000  0.34270000  0.12290000  1
  H  H15  1  0.30970000  0.53340000  0.55470000  1
  H  H16  1  0.32000000  0.73470000  0.78840000  1
  H  H17  1  0.32370000  0.53950000  0.40370000  1
  H  H18  1  0.42100000  0.70050000  0.99090000  1
  H  H19  1  0.42820000  0.72240000  0.22400000  1
  H  H20  1  0.47830000  0.12010000  0.92270000  1
  H  H21  1  0.49970000  0.90470000  0.31170000  1
  H  H22  1  0.50030000  0.09530000  0.68830000  1
  H  H23  1  0.52170000  0.87990000  0.07730000  1
  H  H24  1  0.57180000  0.27760000  0.77600000  1
  H  H25  1  0.57900000  0.29950000  0.00910000  1
  H  H26  1  0.67630000  0.46050000  0.59630000  1
  H  H27  1  0.68000000  0.26530000  0.21160000  1
  H  H28  1  0.69030000  0.46660000  0.44530000  1
  H  H29  1  0.72570000  0.65730000  0.87710000  1
  H  H30  1  0.75720000  0.15870000  0.57210000  1
  H  H31  1  0.78120000  0.32940000  0.68640000  1
  H  H32  1  0.80580000  0.69320000  0.24780000  1
  H  H33  1  0.81980000  0.46590000  0.86270000  1
  H  H34  1  0.82030000  0.43960000  0.26920000  1
  H  H35  1  0.83260000  0.83940000  0.95510000  1
  H  H36  1  0.85030000  0.69060000  0.74410000  1
  H  H37  1  0.89180000  0.87580000  0.34020000  1
  H  H38  1  0.95040000  0.53950000  0.43190000  1
  H  H39  1  0.95890000  0.52990000  0.15250000  1
  H  H40  1  0.96880000  0.71240000  0.54210000  1
  H  H41  1  0.99140000  0.86410000  0.80940000  1
  C  C42  1  0.00120000  0.60990000  0.73140000  1
  C  C43  1  0.00880000  0.60050000  0.43090000  1
  C  C44  1  0.02180000  0.70380000  0.49720000  1
  C  C45  1  0.02450000  0.48230000  0.90890000  1
  C  C46  1  0.02960000  0.80330000  0.79370000  1
  C  C47  1  0.05420000  0.29980000  0.24510000  1
  C  C48  1  0.08410000  0.58870000  0.36250000  1
  C  C49  1  0.10770000  0.52050000  0.08190000  1
  C  C50  1  0.11160000  0.79700000  0.49990000  1
  C  C51  1  0.12440000  0.90570000  0.57510000  1
  C  C52  1  0.13420000  0.50360000  0.99190000  1
  C  C53  1  0.14220000  0.62170000  0.74570000  1
  C  C54  1  0.16990000  0.67890000  0.36100000  1
  C  C55  1  0.17350000  0.81850000  0.81010000  1
  C  C56  1  0.18340000  0.78090000  0.42920000  1
  C  C57  1  0.20370000  0.15340000  0.68340000  1
  C  C58  1  0.22540000  0.72590000  0.78220000  1
  C  C59  1  0.25110000  0.18760000  0.03470000  1
  C  C60  1  0.25670000  0.26320000  0.73900000  1
  C  C61  1  0.27270000  0.92900000  0.85320000  1
  C  C62  1  0.27980000  0.51200000  0.98250000  1
  C  C63  1  0.29420000  0.08630000  0.66290000  1
  C  C64  1  0.30680000  0.11790000  0.97200000  1
  C  C65  1  0.31730000  0.29710000  0.08280000  1
  C  C66  1  0.38730000  0.52000000  0.53320000  1
  C  C67  1  0.39560000  0.52320000  0.44230000  1
  C  C68  1  0.43410000  0.16340000  0.96360000  1
  C  C69  1  0.43510000  0.13670000  0.70000000  1
  C  C70  1  0.47680000  0.24600000  0.75320000  1
  C  C71  1  0.48460000  0.49330000  0.68810000  1
  C  C72  1  0.49240000  0.49740000  0.59130000  1
  C  C73  1  0.49300000  0.27150000  0.01560000  1
  C  C74  1  0.50700000  0.72850000  0.98440000  1
  C  C75  1  0.50760000  0.50260000  0.40870000  1
  C  C76  1  0.51540000  0.50670000  0.31190000  1
  C  C77  1  0.52320000  0.75400000  0.24680000  1
  C  C78  1  0.56490000  0.86330000  0.30000000  1
  C  C79  1  0.56590000  0.83660000  0.03640000  1
  C  C80  1  0.60440000  0.47680000  0.55770000  1
  C  C81  1  0.61270000  0.48000000  0.46680000  1
  C  C82  1  0.68270000  0.70290000  0.91720000  1
  C  C83  1  0.69320000  0.88210000  0.02800000  1
  C  C84  1  0.70580000  0.91370000  0.33710000  1
  C  C85  1  0.72020000  0.48800000  0.01750000  1
  C  C86  1  0.72730000  0.07100000  0.14680000  1
  C  C87  1  0.74330000  0.73680000  0.26100000  1
  C  C88  1  0.74890000  0.81240000  0.96530000  1
  C  C89  1  0.77460000  0.27410000  0.21780000  1
  C  C90  1  0.79630000  0.84660000  0.31660000  1
  C  C91  1  0.81660000  0.21910000  0.57080000  1
  C  C92  1  0.82650000  0.18150000  0.18990000  1
  C  C93  1  0.83010000  0.32110000  0.63900000  1
  C  C94  1  0.85780000  0.37830000  0.25430000  1
  C  C95  1  0.86580000  0.49640000  0.00810000  1
  C  C96  1  0.87560000  0.09430000  0.42490000  1
  C  C97  1  0.88840000  0.20300000  0.50010000  1
  C  C98  1  0.89230000  0.47950000  0.91810000  1
  C  C99  1  0.91590000  0.41130000  0.63750000  1
  C  C100  1  0.94580000  0.70020000  0.75490000  1
  C  C101  1  0.97040000  0.19670000  0.20630000  1
  C  C102  1  0.97550000  0.51770000  0.09110000  1
  C  C103  1  0.97820000  0.29620000  0.50280000  1
  C  C104  1  0.99120000  0.39950000  0.56910000  1
  C  C105  1  0.99880000  0.39010000  0.26860000  1
  N  N106  1  0.23270000  0.00960000  0.92150000  1
  N  N107  1  0.25550000  0.97470000  0.60360000  1
  N  N108  1  0.39220000  0.31210000  0.77560000  1
  N  N109  1  0.43920000  0.34170000  0.07540000  1
  N  N110  1  0.56080000  0.65830000  0.92460000  1
  N  N111  1  0.60780000  0.68790000  0.22440000  1
  N  N112  1  0.74450000  0.02530000  0.39640000  1
  N  N113  1  0.76730000  0.99040000  0.07850000  1
  O  O114  1  0.03090000  0.93200000  0.60920000  1
  O  O115  1  0.09140000  0.48960000  0.29670000  1
  O  O116  1  0.29640000  0.48830000  0.89720000  1
  O  O117  1  0.37520000  0.54440000  0.06050000  1
  O  O118  1  0.37850000  0.50620000  0.71690000  1
  O  O119  1  0.38150000  0.94390000  0.83310000  1
  O  O120  1  0.41310000  0.52180000  0.25770000  1
  O  O121  1  0.58690000  0.47820000  0.74230000  1
  O  O122  1  0.61850000  0.05610000  0.16690000  1
  O  O123  1  0.62150000  0.49380000  0.28310000  1
  O  O124  1  0.62480000  0.45560000  0.93950000  1
  O  O125  1  0.70360000  0.51170000  0.10280000  1
  O  O126  1  0.90860000  0.51040000  0.70330000  1
  O  O127  1  0.96910000  0.06800000  0.39080000  1
