# generated using pymatgen
data_CuH24(C3N)12
_symmetry_space_group_name_H-M   'P 1'
_cell_length_a   14.32900000
_cell_length_b   14.32900000
_cell_length_c   24.47294117
_cell_angle_alpha   107.02278024
_cell_angle_beta   107.02278024
_cell_angle_gamma   90.00000000
_symmetry_Int_Tables_number   1
_chemical_formula_structural   CuH24(C3N)12
_chemical_formula_sum   'Cu4 H96 C144 N48'
_cell_volume   4573.91900876
_cell_formula_units_Z   4
loop_
 _symmetry_equiv_pos_site_id
 _symmetry_equiv_pos_as_xyz
  1  'x, y, z'
loop_
 _atom_site_type_symbol
 _atom_site_label
 _atom_site_symmetry_multiplicity
 _atom_site_fract_x
 _atom_site_fract_y
 _atom_site_fract_z
 _atom_site_occupancy
  C  C0  1  0.49665000  0.86665000  0.97850000  1
  C  C1  1  0.51815000  0.38815000  0.02150000  1
  C  C2  1  0.08560000  0.20479000  0.14730000  1
  C  C3  1  0.93830000  0.55749000  0.85270000  1
  C  C4  1  0.31838000  0.64543000  0.55462000  1
  C  C5  1  0.76376000  0.59081000  0.44538000  1
  C  C6  1  0.90896000  0.00000000  0.72150000  1
  C  C7  1  0.18746000  0.77850000  0.27850000  1
  C  C8  1  0.51057000  0.83697000  0.92394000  1
  C  C9  1  0.58663000  0.41303000  0.07606000  1
  C  C10  1  0.10021000  0.18102000  0.09232000  1
  C  C11  1  0.00789000  0.58870000  0.90768000  1
  C  C12  1  0.57750000  0.89220000  0.03180000  1
  C  C13  1  0.54570000  0.36040000  0.96820000  1
  C  C14  1  0.16621000  0.22238000  0.19982000  1
  C  C15  1  0.96639000  0.52256000  0.80018000  1
  C  C16  1  0.43630000  0.78884000  0.73480000  1
  C  C17  1  0.70150000  0.55404000  0.26520000  1
  C  C18  1  0.02174000  0.03755000  0.90488000  1
  C  C19  1  0.11686000  0.63267000  0.09512000  1
  C  C20  1  0.50000000  0.68746000  0.77850000  1
  C  C21  1  0.72150000  0.40896000  0.22150000  1
  C  C22  1  0.31898000  0.50789000  0.40768000  1
  C  C23  1  0.91130000  0.60021000  0.59232000  1
  C  C24  1  0.34927000  0.68390000  0.46754000  1
  C  C25  1  0.88173000  0.71636000  0.53246000  1
  C  C26  1  0.32385000  0.60931000  0.41292000  1
  C  C27  1  0.91093000  0.69639000  0.58708000  1
  C  C28  1  0.09081000  0.18162000  0.94538000  1
  C  C29  1  0.14543000  0.73624000  0.05462000  1
  C  C30  1  0.88209000  0.81051000  0.52706000  1
  C  C31  1  0.35503000  0.78345000  0.47294000  1
  C  C32  1  0.29521000  0.43830000  0.35270000  1
  C  C33  1  0.94251000  0.58560000  0.64730000  1
  C  C34  1  0.91132000  0.89247000  0.58098000  1
  C  C35  1  0.33034000  0.81149000  0.41902000  1
  C  C36  1  0.85655000  0.82925000  0.47030000  1
  C  C37  1  0.38625000  0.85895000  0.52970000  1
  C  C38  1  0.93948000  0.87294000  0.63576000  1
  C  C39  1  0.30372000  0.73718000  0.36424000  1
  C  C40  1  0.30158000  0.63784000  0.35898000  1
  C  C41  1  0.94260000  0.77886000  0.64102000  1
  C  C42  1  0.91303000  0.98943000  0.57606000  1
  C  C43  1  0.33697000  0.91337000  0.42394000  1
  C  C44  1  0.86040000  0.92250000  0.46820000  1
  C  C45  1  0.39220000  0.95430000  0.53180000  1
  C  C46  1  0.88815000  0.00335000  0.52150000  1
  C  C47  1  0.36665000  0.98185000  0.47850000  1
  C  C48  1  0.27762000  0.46639000  0.30018000  1
  C  C49  1  0.97744000  0.66621000  0.69982000  1
  C  C50  1  0.27942000  0.56180000  0.30254000  1
  C  C51  1  0.97688000  0.75926000  0.69746000  1
  C  C52  1  0.60753000  0.83034000  0.91902000  1
  C  C53  1  0.68851000  0.41132000  0.08098000  1
  C  C54  1  0.19639000  0.17615000  0.08708000  1
  C  C55  1  0.10931000  0.58907000  0.91292000  1
  C  C56  1  0.67075000  0.88625000  0.02970000  1
  C  C57  1  0.64105000  0.35655000  0.97030000  1
  C  C58  1  0.25926000  0.22058000  0.19746000  1
  C  C59  1  0.06180000  0.52312000  0.80254000  1
  C  C60  1  0.46245000  0.61686000  0.59512000  1
  C  C61  1  0.86733000  0.52174000  0.40488000  1
  C  C62  1  0.05404000  0.06370000  0.76520000  1
  C  C63  1  0.28884000  0.79850000  0.23480000  1
  C  C64  1  0.62706000  0.80372000  0.86424000  1
  C  C65  1  0.76282000  0.43948000  0.13576000  1
  C  C66  1  0.21636000  0.15073000  0.03246000  1
  C  C67  1  0.18390000  0.61827000  0.96754000  1
  C  C68  1  0.68949000  0.85503000  0.97294000  1
  C  C69  1  0.71655000  0.38209000  0.02706000  1
  C  C70  1  0.27886000  0.19842000  0.14102000  1
  C  C71  1  0.13784000  0.55740000  0.85898000  1
  C  C72  1  0.72114000  0.80158000  0.85898000  1
  C  C73  1  0.86216000  0.44260000  0.14102000  1
  C  C74  1  0.31051000  0.14497000  0.02706000  1
  C  C75  1  0.28345000  0.61791000  0.97294000  1
  C  C76  1  0.78364000  0.84927000  0.96754000  1
  C  C77  1  0.81610000  0.38173000  0.03246000  1
  C  C78  1  0.37294000  0.19628000  0.13576000  1
  C  C79  1  0.23718000  0.56052000  0.86424000  1
  C  C80  1  0.94596000  0.93630000  0.23480000  1
  C  C81  1  0.71116000  0.20150000  0.76520000  1
  C  C82  1  0.53755000  0.38314000  0.40488000  1
  C  C83  1  0.13267000  0.47826000  0.59512000  1
  C  C84  1  0.74074000  0.77942000  0.80254000  1
  C  C85  1  0.93820000  0.47688000  0.19746000  1
  C  C86  1  0.32925000  0.11375000  0.97030000  1
  C  C87  1  0.35895000  0.64345000  0.02970000  1
  C  C88  1  0.80361000  0.82385000  0.91292000  1
  C  C89  1  0.89069000  0.41093000  0.08708000  1
  C  C90  1  0.39247000  0.16966000  0.08098000  1
  C  C91  1  0.31149000  0.58868000  0.91902000  1
  C  C92  1  0.72058000  0.43820000  0.69746000  1
  C  C93  1  0.02312000  0.24074000  0.30254000  1
  C  C94  1  0.72238000  0.53361000  0.69982000  1
  C  C95  1  0.02256000  0.33379000  0.30018000  1
  C  C96  1  0.11185000  0.99665000  0.47850000  1
  C  C97  1  0.63335000  0.01815000  0.52150000  1
  C  C98  1  0.13960000  0.07750000  0.53180000  1
  C  C99  1  0.60780000  0.04570000  0.46820000  1
  C  C100  1  0.08697000  0.01057000  0.42394000  1
  C  C101  1  0.66303000  0.08663000  0.57606000  1
  C  C102  1  0.69842000  0.36216000  0.64102000  1
  C  C103  1  0.05740000  0.22114000  0.35898000  1
  C  C104  1  0.06052000  0.12706000  0.36424000  1
  C  C105  1  0.69628000  0.26282000  0.63576000  1
  C  C106  1  0.14345000  0.17075000  0.52970000  1
  C  C107  1  0.61375000  0.14105000  0.47030000  1
  C  C108  1  0.08868000  0.10753000  0.41902000  1
  C  C109  1  0.66966000  0.18851000  0.58098000  1
  C  C110  1  0.70479000  0.56170000  0.64730000  1
  C  C111  1  0.05749000  0.41440000  0.35270000  1
  C  C112  1  0.11791000  0.18949000  0.47294000  1
  C  C113  1  0.64497000  0.21655000  0.52706000  1
  C  C114  1  0.90919000  0.81838000  0.05462000  1
  C  C115  1  0.85457000  0.26376000  0.94538000  1
  C  C116  1  0.67615000  0.39069000  0.58708000  1
  C  C117  1  0.08907000  0.30361000  0.41292000  1
  C  C118  1  0.65073000  0.31610000  0.53246000  1
  C  C119  1  0.11827000  0.28364000  0.46754000  1
  C  C120  1  0.68102000  0.49211000  0.59232000  1
  C  C121  1  0.08870000  0.39979000  0.40768000  1
  C  C122  1  0.50000000  0.31254000  0.22150000  1
  C  C123  1  0.27850000  0.59104000  0.77850000  1
  C  C124  1  0.97826000  0.96245000  0.09512000  1
  C  C125  1  0.88314000  0.36733000  0.90488000  1
  C  C126  1  0.56370000  0.21116000  0.26520000  1
  C  C127  1  0.29850000  0.44596000  0.73480000  1
  C  C128  1  0.83379000  0.77762000  0.80018000  1
  C  C129  1  0.03361000  0.47744000  0.19982000  1
  C  C130  1  0.42250000  0.10780000  0.96820000  1
  C  C131  1  0.45430000  0.63960000  0.03180000  1
  C  C132  1  0.89979000  0.81898000  0.90768000  1
  C  C133  1  0.99211000  0.41130000  0.09232000  1
  C  C134  1  0.48943000  0.16303000  0.07606000  1
  C  C135  1  0.41337000  0.58697000  0.92394000  1
  C  C136  1  0.09104000  0.00000000  0.27850000  1
  C  C137  1  0.81254000  0.22150000  0.72150000  1
  C  C138  1  0.68162000  0.35457000  0.44538000  1
  C  C139  1  0.23624000  0.40919000  0.55462000  1
  C  C140  1  0.91440000  0.79521000  0.85270000  1
  C  C141  1  0.06170000  0.44251000  0.14730000  1
  C  C142  1  0.50335000  0.13335000  0.02150000  1
  C  C143  1  0.48185000  0.61185000  0.97850000  1
  Cu  Cu144  1  0.33329000  0.58329000  0.66658000  1
  Cu  Cu145  1  0.91671000  0.16671000  0.83342000  1
  Cu  Cu146  1  0.08329000  0.83329000  0.16658000  1
  Cu  Cu147  1  0.66668833  0.41668833  0.33337667  1
  H  H148  1  0.45560000  0.82020000  0.88860000  1
  H  H149  1  0.56700000  0.43160000  0.11140000  1
  H  H150  1  0.87070000  0.22640000  0.71100000  1
  H  H151  1  0.15970000  0.01540000  0.28900000  1
  H  H152  1  0.04540000  0.16760000  0.05720000  1
  H  H153  1  0.98820000  0.61040000  0.94280000  1
  H  H154  1  0.29530000  0.39130000  0.54580000  1
  H  H155  1  0.74950000  0.34550000  0.45420000  1
  H  H156  1  0.56600000  0.91380000  0.06960000  1
  H  H157  1  0.49640000  0.34420000  0.93040000  1
  H  H158  1  0.15490000  0.23580000  0.23760000  1
  H  H159  1  0.91730000  0.49820000  0.76240000  1
  H  H160  1  0.97830000  0.98270000  0.87720000  1
  H  H161  1  0.10110000  0.60550000  0.12280000  1
  H  H162  1  0.39460000  0.81500000  0.70600000  1
  H  H163  1  0.68860000  0.60900000  0.29400000  1
  H  H164  1  0.12920000  0.44070000  0.15020000  1
  H  H165  1  0.97900000  0.79050000  0.84980000  1
  H  H166  1  0.54930000  0.61060000  0.98120000  1
  H  H167  1  0.56810000  0.12940000  0.01880000  1
  H  H168  1  0.33240000  0.48820000  0.44280000  1
  H  H169  1  0.88960000  0.54540000  0.55720000  1
  H  H170  1  0.29050000  0.37080000  0.34980000  1
  H  H171  1  0.94070000  0.52100000  0.65020000  1
  H  H172  1  0.83700000  0.77620000  0.43420000  1
  H  H173  1  0.40280000  0.84200000  0.56580000  1
  H  H174  1  0.51540000  0.62930000  0.78900000  1
  H  H175  1  0.72640000  0.34030000  0.21100000  1
  H  H176  1  0.93160000  0.04440000  0.61140000  1
  H  H177  1  0.32020000  0.93300000  0.38860000  1
  H  H178  1  0.84420000  0.93400000  0.43040000  1
  H  H179  1  0.41380000  0.00360000  0.56960000  1
  H  H180  1  0.88940000  0.06810000  0.51880000  1
  H  H181  1  0.37060000  0.04930000  0.48120000  1
  H  H182  1  0.10870000  0.24950000  0.95420000  1
  H  H183  1  0.15450000  0.79530000  0.04580000  1
  H  H184  1  0.26590000  0.57870000  0.26640000  1
  H  H185  1  0.99950000  0.81230000  0.73360000  1
  H  H186  1  0.26420000  0.41730000  0.26240000  1
  H  H187  1  0.00180000  0.65490000  0.73760000  1
  H  H188  1  0.72380000  0.90280000  0.06580000  1
  H  H189  1  0.65800000  0.33700000  0.93420000  1
  H  H190  1  0.31230000  0.23410000  0.23360000  1
  H  H191  1  0.07870000  0.50050000  0.76640000  1
  H  H192  1  0.51730000  0.60110000  0.62280000  1
  H  H193  1  0.89450000  0.47830000  0.37720000  1
  H  H194  1  0.10900000  0.10540000  0.79400000  1
  H  H195  1  0.31500000  0.81140000  0.20600000  1
  H  H196  1  0.89100000  0.89460000  0.20600000  1
  H  H197  1  0.68500000  0.18860000  0.79400000  1
  H  H198  1  0.48270000  0.39890000  0.37720000  1
  H  H199  1  0.10550000  0.52170000  0.62280000  1
  H  H200  1  0.68770000  0.76590000  0.76640000  1
  H  H201  1  0.92130000  0.49950000  0.23360000  1
  H  H202  1  0.27620000  0.09720000  0.93420000  1
  H  H203  1  0.34200000  0.66300000  0.06580000  1
  H  H204  1  0.73580000  0.58270000  0.73760000  1
  H  H205  1  0.99820000  0.34510000  0.26240000  1
  H  H206  1  0.73410000  0.42130000  0.73360000  1
  H  H207  1  0.00050000  0.18770000  0.26640000  1
  H  H208  1  0.89130000  0.75050000  0.04580000  1
  H  H209  1  0.84550000  0.20470000  0.95420000  1
  H  H210  1  0.11060000  0.93190000  0.48120000  1
  H  H211  1  0.62940000  0.95070000  0.51880000  1
  H  H212  1  0.15580000  0.06600000  0.56960000  1
  H  H213  1  0.58620000  0.99640000  0.43040000  1
  H  H214  1  0.06840000  0.95560000  0.38860000  1
  H  H215  1  0.67980000  0.06700000  0.61140000  1
  H  H216  1  0.48460000  0.37070000  0.21100000  1
  H  H217  1  0.27360000  0.65970000  0.78900000  1
  H  H218  1  0.16300000  0.22380000  0.56580000  1
  H  H219  1  0.59720000  0.15800000  0.43420000  1
  H  H220  1  0.70950000  0.62920000  0.65020000  1
  H  H221  1  0.05930000  0.47900000  0.34980000  1
  H  H222  1  0.66760000  0.51180000  0.55720000  1
  H  H223  1  0.11040000  0.45460000  0.44280000  1
  H  H224  1  0.45070000  0.38940000  0.01880000  1
  H  H225  1  0.43190000  0.87060000  0.98120000  1
  H  H226  1  0.87080000  0.55930000  0.84980000  1
  H  H227  1  0.02100000  0.20950000  0.15020000  1
  H  H228  1  0.60540000  0.18500000  0.29400000  1
  H  H229  1  0.31140000  0.39100000  0.70600000  1
  H  H230  1  0.02170000  0.01730000  0.12280000  1
  H  H231  1  0.89890000  0.39450000  0.87720000  1
  H  H232  1  0.84510000  0.76420000  0.76240000  1
  H  H233  1  0.08270000  0.50180000  0.23760000  1
  H  H234  1  0.43400000  0.08620000  0.93040000  1
  H  H235  1  0.50360000  0.65580000  0.06960000  1
  H  H236  1  0.70470000  0.60870000  0.45420000  1
  H  H237  1  0.25050000  0.65450000  0.54580000  1
  H  H238  1  0.95460000  0.83240000  0.94280000  1
  H  H239  1  0.01180000  0.38960000  0.05720000  1
  H  H240  1  0.12930000  0.77360000  0.28900000  1
  H  H241  1  0.84030000  0.98460000  0.71100000  1
  H  H242  1  0.54440000  0.17980000  0.11140000  1
  H  H243  1  0.43300000  0.56840000  0.88860000  1
  N  N244  1  0.43001000  0.69246000  0.73056000  1
  N  N245  1  0.69945000  0.46190000  0.26944000  1
  N  N246  1  0.01828000  0.12834000  0.89842000  1
  N  N247  1  0.11986000  0.72992000  0.10158000  1
  N  N248  1  0.37166000  0.61986000  0.60158000  1
  N  N249  1  0.77008000  0.51828000  0.39842000  1
  N  N250  1  0.96190000  0.06999000  0.76944000  1
  N  N251  1  0.19246000  0.80055000  0.23056000  1
  N  N252  1  0.37447000  0.65635000  0.52196000  1
  N  N253  1  0.85251000  0.63439000  0.47804000  1
  N  N254  1  0.50493000  0.84292000  0.78226000  1
  N  N255  1  0.72267000  0.56066000  0.21774000  1
  N  N256  1  0.09027000  0.03204000  0.95260000  1
  N  N257  1  0.13767000  0.57944000  0.04740000  1
  N  N258  1  0.96657000  0.95450000  0.69036000  1
  N  N259  1  0.27621000  0.76414000  0.30964000  1
  N  N260  1  0.54550000  0.77621000  0.80964000  1
  N  N261  1  0.73586000  0.46657000  0.19036000  1
  N  N262  1  0.13439000  0.12553000  0.97804000  1
  N  N263  1  0.15635000  0.64749000  0.02196000  1
  N  N264  1  0.46796000  0.63767000  0.54740000  1
  N  N265  1  0.92056000  0.59027000  0.45260000  1
  N  N266  1  0.06066000  0.99507000  0.71774000  1
  N  N267  1  0.34292000  0.77733000  0.28226000  1
  N  N268  1  0.93934000  0.00493000  0.28226000  1
  N  N269  1  0.65708000  0.22267000  0.71774000  1
  N  N270  1  0.53204000  0.36233000  0.45260000  1
  N  N271  1  0.07944000  0.40973000  0.54740000  1
  N  N272  1  0.86561000  0.87447000  0.02196000  1
  N  N273  1  0.84365000  0.35251000  0.97804000  1
  N  N274  1  0.45450000  0.22379000  0.19036000  1
  N  N275  1  0.26414000  0.53343000  0.80964000  1
  N  N276  1  0.03343000  0.04550000  0.30964000  1
  N  N277  1  0.72379000  0.23586000  0.69036000  1
  N  N278  1  0.90973000  0.96796000  0.04740000  1
  N  N279  1  0.86233000  0.42056000  0.95260000  1
  N  N280  1  0.49507000  0.15708000  0.21774000  1
  N  N281  1  0.27733000  0.43934000  0.78226000  1
  N  N282  1  0.62553000  0.34365000  0.47804000  1
  N  N283  1  0.14749000  0.36561000  0.52196000  1
  N  N284  1  0.03810000  0.93001000  0.23056000  1
  N  N285  1  0.80754000  0.19945000  0.76944000  1
  N  N286  1  0.62834000  0.38014000  0.39842000  1
  N  N287  1  0.22992000  0.48172000  0.60158000  1
  N  N288  1  0.98172000  0.87166000  0.10158000  1
  N  N289  1  0.88014000  0.27008000  0.89842000  1
  N  N290  1  0.56999000  0.30754000  0.26944000  1
  N  N291  1  0.30055000  0.53810000  0.73056000  1
