# generated using pymatgen
data_MnH7C14NO4
_symmetry_space_group_name_H-M   'P 1'
_cell_length_a   13.15300000
_cell_length_b   13.98600000
_cell_length_c   18.67892025
_cell_angle_alpha   90.00000000
_cell_angle_beta   96.04561964
_cell_angle_gamma   90.00000000
_symmetry_Int_Tables_number   1
_chemical_formula_structural   MnH7C14NO4
_chemical_formula_sum   'Mn8 H56 C112 N8 O32'
_cell_volume   3417.02359503
_cell_formula_units_Z   8
loop_
 _symmetry_equiv_pos_site_id
 _symmetry_equiv_pos_as_xyz
  1  'x, y, z'
loop_
 _atom_site_type_symbol
 _atom_site_label
 _atom_site_symmetry_multiplicity
 _atom_site_fract_x
 _atom_site_fract_y
 _atom_site_fract_z
 _atom_site_occupancy
  Mn  Mn0  1  0.41585000  0.79606000  0.63960000  1
  Mn  Mn1  1  0.91585000  0.70394000  0.13960000  1
  Mn  Mn2  1  0.50000000  0.95429000  0.77474000  1
  Mn  Mn3  1  1.00000000  0.54571000  0.27474000  1
  Mn  Mn4  1  1.00000000  0.45429000  0.72526000  1
  Mn  Mn5  1  0.50000000  0.04571000  0.22526000  1
  Mn  Mn6  1  0.08415000  0.29606000  0.86040000  1
  Mn  Mn7  1  0.58415000  0.20394000  0.36040000  1
  H  H8  1  0.22100000  0.27440000  0.25070000  1
  H  H9  1  0.72100000  0.22560000  0.75070000  1
  H  H10  1  0.81920000  0.95010000  0.86820000  1
  H  H11  1  0.31920000  0.54990000  0.36820000  1
  H  H12  1  0.40480000  0.89450000  0.48160000  1
  H  H13  1  0.90480000  0.60550000  0.98160000  1
  H  H14  1  0.04560000  0.35660000  0.13580000  1
  H  H15  1  0.54560000  0.14340000  0.63580000  1
  H  H16  1  0.83130000  0.38030000  0.92220000  1
  H  H17  1  0.33130000  0.11970000  0.42220000  1
  H  H18  1  0.62600000  0.48980000  0.73570000  1
  H  H19  1  0.12600000  0.01020000  0.23570000  1
  H  H20  1  0.81660000  0.98050000  0.99850000  1
  H  H21  1  0.31660000  0.51950000  0.49850000  1
  H  H22  1  0.45160000  0.29080000  0.64900000  1
  H  H23  1  0.95160000  0.20920000  0.14900000  1
  H  H24  1  0.79130000  0.44120000  0.01990000  1
  H  H25  1  0.29130000  0.05880000  0.51990000  1
  H  H26  1  0.01400000  0.87730000  0.24360000  1
  H  H27  1  0.51400000  0.62270000  0.74360000  1
  H  H28  1  0.36610000  0.42770000  0.59890000  1
  H  H29  1  0.86610000  0.07230000  0.09890000  1
  H  H30  1  0.11180000  0.31410000  0.44150000  1
  H  H31  1  0.61180000  0.18590000  0.94150000  1
  H  H32  1  0.13650000  0.29900000  0.55190000  1
  H  H33  1  0.63650000  0.20100000  0.05190000  1
  H  H34  1  0.72700000  0.37070000  0.21880000  1
  H  H35  1  0.22700000  0.12930000  0.71880000  1
  H  H36  1  0.77300000  0.87070000  0.28120000  1
  H  H37  1  0.27300000  0.62930000  0.78120000  1
  H  H38  1  0.36350000  0.79900000  0.94810000  1
  H  H39  1  0.86350000  0.70100000  0.44810000  1
  H  H40  1  0.38820000  0.81410000  0.05850000  1
  H  H41  1  0.88820000  0.68590000  0.55850000  1
  H  H42  1  0.13390000  0.92770000  0.90110000  1
  H  H43  1  0.63390000  0.57230000  0.40110000  1
  H  H44  1  0.48600000  0.37730000  0.25640000  1
  H  H45  1  0.98600000  0.12270000  0.75640000  1
  H  H46  1  0.70870000  0.94120000  0.48010000  1
  H  H47  1  0.20870000  0.55880000  0.98010000  1
  H  H48  1  0.04840000  0.79080000  0.85100000  1
  H  H49  1  0.54840000  0.70920000  0.35100000  1
  H  H50  1  0.68340000  0.48050000  0.50150000  1
  H  H51  1  0.18340000  0.01950000  0.00150000  1
  H  H52  1  0.87400000  0.98980000  0.76430000  1
  H  H53  1  0.37400000  0.51020000  0.26430000  1
  H  H54  1  0.66870000  0.88030000  0.57780000  1
  H  H55  1  0.16870000  0.61970000  0.07780000  1
  H  H56  1  0.45440000  0.85660000  0.36420000  1
  H  H57  1  0.95440000  0.64340000  0.86420000  1
  H  H58  1  0.09520000  0.39450000  0.01840000  1
  H  H59  1  0.59520000  0.10550000  0.51840000  1
  H  H60  1  0.68080000  0.45010000  0.63180000  1
  H  H61  1  0.18080000  0.04990000  0.13180000  1
  H  H62  1  0.27900000  0.77440000  0.24930000  1
  H  H63  1  0.77900000  0.72560000  0.74930000  1
  C  C64  1  0.47930000  0.30180000  0.48090000  1
  C  C65  1  0.97930000  0.19820000  0.98090000  1
  C  C66  1  0.36190000  0.49730000  0.36580000  1
  C  C67  1  0.86190000  0.00270000  0.86580000  1
  C  C68  1  0.04940000  0.86420000  0.08170000  1
  C  C69  1  0.54940000  0.63580000  0.58170000  1
  C  C70  1  0.44140000  0.83910000  0.47440000  1
  C  C71  1  0.94140000  0.66090000  0.97440000  1
  C  C72  1  0.39040000  0.44480000  0.42670000  1
  C  C73  1  0.89040000  0.05520000  0.92670000  1
  C  C74  1  0.78710000  0.30810000  0.82980000  1
  C  C75  1  0.28710000  0.19190000  0.32980000  1
  C  C76  1  0.02860000  0.31640000  0.09670000  1
  C  C77  1  0.52860000  0.18360000  0.59670000  1
  C  C78  1  0.63690000  0.85490000  0.71340000  1
  C  C79  1  0.13690000  0.64510000  0.21340000  1
  C  C80  1  0.22220000  0.26020000  0.29940000  1
  C  C81  1  0.72220000  0.23980000  0.79940000  1
  C  C82  1  0.10590000  0.97410000  0.19480000  1
  C  C83  1  0.60590000  0.52590000  0.69480000  1
  C  C84  1  0.44660000  0.32380000  0.54970000  1
  C  C85  1  0.94660000  0.17620000  0.04970000  1
  C  C86  1  0.78630000  0.33380000  0.90220000  1
  C  C87  1  0.28630000  0.16620000  0.40220000  1
  C  C88  1  0.47040000  0.27270000  0.60430000  1
  C  C89  1  0.97040000  0.22730000  0.10430000  1
  C  C90  1  0.35790000  0.46640000  0.49400000  1
  C  C91  1  0.85790000  0.03360000  0.99400000  1
  C  C92  1  0.03840000  0.89240000  0.20010000  1
  C  C93  1  0.53840000  0.60760000  0.70010000  1
  C  C94  1  0.38630000  0.40980000  0.55460000  1
  C  C95  1  0.88630000  0.09020000  0.05460000  1
  C  C96  1  0.15710000  0.30890000  0.34200000  1
  C  C97  1  0.65710000  0.19110000  0.84200000  1
  C  C98  1  0.09550000  0.39060000  0.31250000  1
  C  C99  1  0.59550000  0.10940000  0.81250000  1
  C  C100  1  0.71780000  0.28940000  0.94480000  1
  C  C101  1  0.21780000  0.21060000  0.44480000  1
  C  C102  1  0.15580000  0.28250000  0.41360000  1
  C  C103  1  0.65580000  0.21750000  0.91360000  1
  C  C104  1  0.76390000  0.39820000  0.05070000  1
  C  C105  1  0.26390000  0.10180000  0.55070000  1
  C  C106  1  0.71790000  0.31620000  0.02260000  1
  C  C107  1  0.21790000  0.18380000  0.52260000  1
  C  C108  1  0.32950000  0.99610000  0.65440000  1
  C  C109  1  0.82950000  0.50390000  0.15440000  1
  C  C110  1  0.77060000  0.41880000  0.12440000  1
  C  C111  1  0.27060000  0.08120000  0.62440000  1
  C  C112  1  0.66980000  0.25610000  0.06980000  1
  C  C113  1  0.16980000  0.24390000  0.56980000  1
  C  C114  1  0.38370000  0.78630000  0.81050000  1
  C  C115  1  0.88370000  0.71370000  0.31050000  1
  C  C116  1  0.72350000  0.35770000  0.16980000  1
  C  C117  1  0.22350000  0.14230000  0.66980000  1
  C  C118  1  0.67160000  0.27790000  0.14210000  1
  C  C119  1  0.17160000  0.22210000  0.64210000  1
  C  C120  1  0.82840000  0.77790000  0.35790000  1
  C  C121  1  0.32840000  0.72210000  0.85790000  1
  C  C122  1  0.77650000  0.85770000  0.33020000  1
  C  C123  1  0.27650000  0.64230000  0.83020000  1
  C  C124  1  0.11630000  0.28630000  0.68950000  1
  C  C125  1  0.61630000  0.21370000  0.18950000  1
  C  C126  1  0.83020000  0.75610000  0.43020000  1
  C  C127  1  0.33020000  0.74390000  0.93020000  1
  C  C128  1  0.72940000  0.91880000  0.37560000  1
  C  C129  1  0.22940000  0.58120000  0.87560000  1
  C  C130  1  0.17050000  0.49610000  0.84560000  1
  C  C131  1  0.67050000  0.00390000  0.34560000  1
  C  C132  1  0.78210000  0.81620000  0.47740000  1
  C  C133  1  0.28210000  0.68380000  0.97740000  1
  C  C134  1  0.73610000  0.89820000  0.44930000  1
  C  C135  1  0.23610000  0.60180000  0.94930000  1
  C  C136  1  0.34420000  0.78250000  0.08640000  1
  C  C137  1  0.84420000  0.71750000  0.58640000  1
  C  C138  1  0.78220000  0.78940000  0.55520000  1
  C  C139  1  0.28220000  0.71060000  0.05520000  1
  C  C140  1  0.40450000  0.89060000  0.18750000  1
  C  C141  1  0.90450000  0.60940000  0.68750000  1
  C  C142  1  0.34290000  0.80890000  0.15800000  1
  C  C143  1  0.84290000  0.69110000  0.65800000  1
  C  C144  1  0.11370000  0.90980000  0.94540000  1
  C  C145  1  0.61370000  0.59020000  0.44540000  1
  C  C146  1  0.46160000  0.39240000  0.29990000  1
  C  C147  1  0.96160000  0.10760000  0.79990000  1
  C  C148  1  0.14210000  0.96640000  0.00600000  1
  C  C149  1  0.64210000  0.53360000  0.50600000  1
  C  C150  1  0.02960000  0.77270000  0.89570000  1
  C  C151  1  0.52960000  0.72730000  0.39570000  1
  C  C152  1  0.71370000  0.83380000  0.59780000  1
  C  C153  1  0.21370000  0.66620000  0.09780000  1
  C  C154  1  0.05340000  0.82380000  0.95030000  1
  C  C155  1  0.55340000  0.67620000  0.45030000  1
  C  C156  1  0.39410000  0.47410000  0.30520000  1
  C  C157  1  0.89410000  0.02590000  0.80520000  1
  C  C158  1  0.27780000  0.76020000  0.20060000  1
  C  C159  1  0.77780000  0.73980000  0.70060000  1
  C  C160  1  0.86310000  0.35490000  0.78660000  1
  C  C161  1  0.36310000  0.14510000  0.28660000  1
  C  C162  1  0.47140000  0.81640000  0.40330000  1
  C  C163  1  0.97140000  0.68360000  0.90330000  1
  C  C164  1  0.71290000  0.80810000  0.67020000  1
  C  C165  1  0.21290000  0.69190000  0.17020000  1
  C  C166  1  0.10960000  0.94480000  0.07330000  1
  C  C167  1  0.60960000  0.55520000  0.57330000  1
  C  C168  1  0.05860000  0.33910000  0.02560000  1
  C  C169  1  0.55860000  0.16090000  0.52560000  1
  C  C170  1  0.45060000  0.36420000  0.41830000  1
  C  C171  1  0.95060000  0.13580000  0.91830000  1
  C  C172  1  0.13810000  0.99730000  0.13420000  1
  C  C173  1  0.63810000  0.50270000  0.63420000  1
  C  C174  1  0.02070000  0.80180000  0.01910000  1
  C  C175  1  0.52070000  0.69820000  0.51910000  1
  N  N176  1  0.46720000  0.77980000  0.52870000  1
  N  N177  1  0.96720000  0.72020000  0.02870000  1
  N  N178  1  0.01220000  0.83980000  0.14190000  1
  N  N179  1  0.51220000  0.66020000  0.64190000  1
  N  N180  1  0.48780000  0.33980000  0.35810000  1
  N  N181  1  0.98780000  0.16020000  0.85810000  1
  N  N182  1  0.03280000  0.27980000  0.97130000  1
  N  N183  1  0.53280000  0.22020000  0.47130000  1
  O  O184  1  0.65640000  0.86720000  0.77880000  1
  O  O185  1  0.15640000  0.63280000  0.27880000  1
  O  O186  1  0.55150000  0.88180000  0.67990000  1
  O  O187  1  0.05150000  0.61820000  0.17990000  1
  O  O188  1  0.09190000  0.41300000  0.24830000  1
  O  O189  1  0.59190000  0.08700000  0.74830000  1
  O  O190  1  0.34390000  0.92870000  0.61200000  1
  O  O191  1  0.84390000  0.57130000  0.11200000  1
  O  O192  1  0.04950000  0.44120000  0.35630000  1
  O  O193  1  0.54950000  0.05880000  0.85630000  1
  O  O194  1  0.36040000  0.99770000  0.72000000  1
  O  O195  1  0.86040000  0.50230000  0.22000000  1
  O  O196  1  0.38150000  0.76290000  0.74500000  1
  O  O197  1  0.88150000  0.73710000  0.24500000  1
  O  O198  1  0.42930000  0.85670000  0.83860000  1
  O  O199  1  0.92930000  0.64330000  0.33860000  1
  O  O200  1  0.07070000  0.35670000  0.66140000  1
  O  O201  1  0.57070000  0.14330000  0.16140000  1
  O  O202  1  0.11850000  0.26290000  0.75500000  1
  O  O203  1  0.61850000  0.23710000  0.25500000  1
  O  O204  1  0.13960000  0.49770000  0.78000000  1
  O  O205  1  0.63960000  0.00230000  0.28000000  1
  O  O206  1  0.45050000  0.94120000  0.14370000  1
  O  O207  1  0.95050000  0.55880000  0.64370000  1
  O  O208  1  0.15610000  0.42870000  0.88800000  1
  O  O209  1  0.65610000  0.07130000  0.38800000  1
  O  O210  1  0.40810000  0.91300000  0.25170000  1
  O  O211  1  0.90810000  0.58700000  0.75170000  1
  O  O212  1  0.94850000  0.38180000  0.82010000  1
  O  O213  1  0.44850000  0.11820000  0.32010000  1
  O  O214  1  0.84360000  0.36720000  0.72120000  1
  O  O215  1  0.34360000  0.13280000  0.22120000  1
