# generated using pymatgen
data_MnAl3(PO4)4
_symmetry_space_group_name_H-M   'P 1'
_cell_length_a   9.51210000
_cell_length_b   9.88190000
_cell_length_c   12.11720000
_cell_angle_alpha   70.53300000
_cell_angle_beta   73.47300000
_cell_angle_gamma   82.32800000
_symmetry_Int_Tables_number   1
_chemical_formula_structural   MnAl3(PO4)4
_chemical_formula_sum   'Mn2 Al6 P8 O32'
_cell_volume   1028.56575710
_cell_formula_units_Z   2
loop_
 _symmetry_equiv_pos_site_id
 _symmetry_equiv_pos_as_xyz
  1  'x, y, z'
loop_
 _atom_site_type_symbol
 _atom_site_label
 _atom_site_symmetry_multiplicity
 _atom_site_fract_x
 _atom_site_fract_y
 _atom_site_fract_z
 _atom_site_occupancy
  Mn  Mn0  1  0.14671000  0.30605000  0.64121000  1
  Mn  Mn1  1  0.85329000  0.69395000  0.35879000  1
  Al  Al2  1  0.06661000  0.32836000  0.14961000  1
  Al  Al3  1  0.23050000  0.97474000  0.43051000  1
  Al  Al4  1  0.48360000  0.52428000  0.68064000  1
  Al  Al5  1  0.51640000  0.47572000  0.31936000  1
  Al  Al6  1  0.76950000  0.02526000  0.56949000  1
  Al  Al7  1  0.93339000  0.67164000  0.85039000  1
  P  P8  1  0.03241000  0.97995000  0.68437000  1
  P  P9  1  0.18823000  0.42239000  0.86757000  1
  P  P10  1  0.24560000  0.30683000  0.34084000  1
  P  P11  1  0.46625000  0.71682000  0.43211000  1
  P  P12  1  0.53375000  0.28318000  0.56789000  1
  P  P13  1  0.75440000  0.69317000  0.65916000  1
  P  P14  1  0.81177000  0.57761000  0.13243000  1
  P  P15  1  0.96759000  0.02005000  0.31563000  1
  O  O16  1  0.00320000  0.15510000  0.20500000  1
  O  O17  1  0.08550000  0.55640000  0.85260000  1
  O  O18  1  0.10140000  0.08510000  0.71480000  1
  O  O19  1  0.11150000  0.95570000  0.34960000  1
  O  O20  1  0.13150000  0.92930000  0.58070000  1
  O  O21  1  0.14260000  0.33580000  0.45070000  1
  O  O22  1  0.15800000  0.32050000  0.81100000  1
  O  O23  1  0.17170000  0.35060000  0.23670000  1
  O  O24  1  0.17610000  0.35030000  0.00310000  1
  O  O25  1  0.29450000  0.14820000  0.36530000  1
  O  O26  1  0.34580000  0.47630000  0.81340000  1
  O  O27  1  0.37440000  0.26270000  0.59330000  1
  O  O28  1  0.37710000  0.85810000  0.40020000  1
  O  O29  1  0.38660000  0.39130000  0.29310000  1
  O  O30  1  0.40070000  0.63810000  0.56870000  1
  O  O31  1  0.43480000  0.62640000  0.36050000  1
  O  O32  1  0.56520000  0.37360000  0.63950000  1
  O  O33  1  0.59930000  0.36190000  0.43130000  1
  O  O34  1  0.61340000  0.60870000  0.70690000  1
  O  O35  1  0.62290000  0.14190000  0.59980000  1
  O  O36  1  0.62560000  0.73730000  0.40670000  1
  O  O37  1  0.65420000  0.52370000  0.18660000  1
  O  O38  1  0.70550000  0.85180000  0.63470000  1
  O  O39  1  0.82390000  0.64970000  0.99690000  1
  O  O40  1  0.82830000  0.64940000  0.76330000  1
  O  O41  1  0.84200000  0.67950000  0.18900000  1
  O  O42  1  0.85740000  0.66420000  0.54930000  1
  O  O43  1  0.86850000  0.07070000  0.41930000  1
  O  O44  1  0.88850000  0.04430000  0.65040000  1
  O  O45  1  0.89860000  0.91490000  0.28520000  1
  O  O46  1  0.91450000  0.44360000  0.14740000  1
  O  O47  1  0.99680000  0.84490000  0.79500000  1
