# generated using pymatgen
data_Cu7H12C16(ClO11)2
_symmetry_space_group_name_H-M   'P 1'
_cell_length_a   10.06010000
_cell_length_b   10.25370000
_cell_length_c   14.18510000
_cell_angle_alpha   92.26200000
_cell_angle_beta   90.00000000
_cell_angle_gamma   90.00000000
_symmetry_Int_Tables_number   1
_chemical_formula_structural   Cu7H12C16(ClO11)2
_chemical_formula_sum   'Cu14 H24 C32 Cl4 O44'
_cell_volume   1462.09896129
_cell_formula_units_Z   2
loop_
 _symmetry_equiv_pos_site_id
 _symmetry_equiv_pos_as_xyz
  1  'x, y, z'
loop_
 _atom_site_type_symbol
 _atom_site_label
 _atom_site_symmetry_multiplicity
 _atom_site_fract_x
 _atom_site_fract_y
 _atom_site_fract_z
 _atom_site_occupancy
  Cu  Cu0  1  0.87774000  0.79848000  0.22934000  1
  Cu  Cu1  1  0.76843000  0.06823000  0.21134000  1
  Cu  Cu2  1  0.75090000  0.07433000  0.71473000  1
  Cu  Cu3  1  0.74280000  0.56201000  0.71264000  1
  Cu  Cu4  1  0.73541000  0.55983000  0.12388000  1
  Cu  Cu5  1  0.71876000  0.59181000  0.33570000  1
  Cu  Cu6  1  0.59319000  0.34370000  0.21842000  1
  Cu  Cu7  1  0.40681000  0.84370000  0.21842000  1
  Cu  Cu8  1  0.28124000  0.09181000  0.33570000  1
  Cu  Cu9  1  0.26459000  0.05983000  0.12388000  1
  Cu  Cu10  1  0.25720000  0.06201000  0.71264000  1
  Cu  Cu11  1  0.24910000  0.57433000  0.71473000  1
  Cu  Cu12  1  0.23157000  0.56823000  0.21134000  1
  Cu  Cu13  1  0.12226000  0.29848000  0.22934000  1
  H  H14  1  0.99700000  0.28800000  0.54600000  1
  H  H15  1  0.97500000  0.97800000  0.15500000  1
  H  H16  1  0.93500000  0.03100000  0.49500000  1
  H  H17  1  0.92600000  0.56400000  0.23600000  1
  H  H18  1  0.86900000  0.91800000  0.90600000  1
  H  H19  1  0.81900000  0.37900000  0.47900000  1
  H  H20  1  0.68600000  0.74600000  0.94600000  1
  H  H21  1  0.64100000  0.23100000  0.50500000  1
  H  H22  1  0.58900000  0.14200000  0.12960000  1
  H  H23  1  0.56700000  0.10900000  0.92100000  1
  H  H24  1  0.52600000  0.57800000  0.22600000  1
  H  H25  1  0.50100000  0.36500000  0.90500000  1
  H  H26  1  0.49900000  0.86500000  0.90500000  1
  H  H27  1  0.47400000  0.07800000  0.22600000  1
  H  H28  1  0.43300000  0.60900000  0.92100000  1
  H  H29  1  0.41100000  0.64200000  0.12960000  1
  H  H30  1  0.35900000  0.73100000  0.50500000  1
  H  H31  1  0.31400000  0.24600000  0.94600000  1
  H  H32  1  0.18100000  0.87900000  0.47900000  1
  H  H33  1  0.13100000  0.41800000  0.90600000  1
  H  H34  1  0.07400000  0.06400000  0.23600000  1
  H  H35  1  0.06500000  0.53100000  0.49500000  1
  H  H36  1  0.02500000  0.47800000  0.15500000  1
  H  H37  1  0.00300000  0.78800000  0.54600000  1
  C  C38  1  0.99840000  0.08070000  0.63100000  1
  C  C39  1  0.95570000  0.23410000  0.49800000  1
  C  C40  1  0.94200000  0.72180000  0.41870000  1
  C  C41  1  0.91970000  0.10290000  0.54030000  1
  C  C42  1  0.82400000  0.29360000  0.46820000  1
  C  C43  1  0.78150000  0.25720000  0.36790000  1
  C  C44  1  0.78100000  0.90200000  0.88300000  1
  C  C45  1  0.77390000  0.82220000  0.78930000  1
  C  C46  1  0.74180000  0.87530000  0.05700000  1
  C  C47  1  0.72540000  0.23150000  0.53800000  1
  C  C48  1  0.71550000  0.31660000  0.62830000  1
  C  C49  1  0.69030000  0.84120000  0.95810000  1
  C  C50  1  0.59030000  0.03280000  0.88920000  1
  C  C51  1  0.55420000  0.90880000  0.93910000  1
  C  C52  1  0.52990000  0.43250000  0.02590000  1
  C  C53  1  0.50870000  0.04970000  0.79900000  1
  C  C54  1  0.49130000  0.54970000  0.79900000  1
  C  C55  1  0.47010000  0.93250000  0.02590000  1
  C  C56  1  0.44580000  0.40880000  0.93910000  1
  C  C57  1  0.40970000  0.53280000  0.88920000  1
  C  C58  1  0.30970000  0.34120000  0.95810000  1
  C  C59  1  0.28450000  0.81660000  0.62830000  1
  C  C60  1  0.27460000  0.73150000  0.53800000  1
  C  C61  1  0.25820000  0.37530000  0.05700000  1
  C  C62  1  0.22610000  0.32220000  0.78930000  1
  C  C63  1  0.21900000  0.40200000  0.88300000  1
  C  C64  1  0.21850000  0.75720000  0.36790000  1
  C  C65  1  0.17600000  0.79360000  0.46820000  1
  C  C66  1  0.08030000  0.60290000  0.54030000  1
  C  C67  1  0.05800000  0.22180000  0.41870000  1
  C  C68  1  0.04430000  0.73410000  0.49800000  1
  C  C69  1  0.00160000  0.58070000  0.63100000  1
  Cl  Cl70  1  0.89398000  0.47757000  0.02980000  1
  Cl  Cl71  1  0.62553000  0.84744000  0.30972000  1
  Cl  Cl72  1  0.37447000  0.34744000  0.30972000  1
  Cl  Cl73  1  0.10602000  0.97757000  0.02980000  1
  O  O74  1  0.95380000  0.80370000  0.35548000  1
  O  O75  1  0.94050000  0.06080000  0.70740000  1
  O  O76  1  0.93270000  0.97570000  0.21670000  1
  O  O77  1  0.87880000  0.58120000  0.62010000  1
  O  O78  1  0.85400000  0.63540000  0.42563000  1
  O  O79  1  0.84560000  0.61250000  0.23130000  1
  O  O80  1  0.80240000  0.14370000  0.33730000  1
  O  O81  1  0.80030000  0.70280000  0.79684000  1
  O  O82  1  0.78820000  0.78480000  0.10405000  1
  O  O83  1  0.77780000  0.10480000  0.55610000  1
  O  O84  1  0.75670000  0.27170000  0.70460000  1
  O  O85  1  0.74140000  0.87700000  0.71540000  1
  O  O86  1  0.73210000  0.99280000  0.08408000  1
  O  O87  1  0.73080000  0.03110000  0.87143000  1
  O  O88  1  0.72240000  0.34770000  0.32465000  1
  O  O89  1  0.67340000  0.43140000  0.61913000  1
  O  O90  1  0.61380000  0.52790000  0.80900000  1
  O  O91  1  0.60880000  0.53240000  0.23108000  1
  O  O92  1  0.60650000  0.16090000  0.19397000  1
  O  O93  1  0.59460000  0.53830000  0.03311000  1
  O  O94  1  0.56080000  0.08820000  0.72520000  1
  O  O95  1  0.53040000  0.34360000  0.08453000  1
  O  O96  1  0.46960000  0.84360000  0.08453000  1
  O  O97  1  0.43920000  0.58820000  0.72520000  1
  O  O98  1  0.40540000  0.03830000  0.03311000  1
  O  O99  1  0.39350000  0.66090000  0.19397000  1
  O  O100  1  0.39120000  0.03240000  0.23108000  1
  O  O101  1  0.38620000  0.02790000  0.80900000  1
  O  O102  1  0.32660000  0.93140000  0.61913000  1
  O  O103  1  0.27760000  0.84770000  0.32465000  1
  O  O104  1  0.26920000  0.53110000  0.87143000  1
  O  O105  1  0.26790000  0.49280000  0.08408000  1
  O  O106  1  0.25860000  0.37700000  0.71540000  1
  O  O107  1  0.24330000  0.77170000  0.70460000  1
  O  O108  1  0.22220000  0.60480000  0.55610000  1
  O  O109  1  0.21180000  0.28480000  0.10405000  1
  O  O110  1  0.19970000  0.20280000  0.79684000  1
  O  O111  1  0.19760000  0.64370000  0.33730000  1
  O  O112  1  0.15440000  0.11250000  0.23130000  1
  O  O113  1  0.14600000  0.13540000  0.42563000  1
  O  O114  1  0.12120000  0.08120000  0.62010000  1
  O  O115  1  0.06730000  0.47570000  0.21670000  1
  O  O116  1  0.05950000  0.56080000  0.70740000  1
  O  O117  1  0.04620000  0.30370000  0.35548000  1
