# generated using pymatgen
data_Mn5H36C76(NO5)4
_symmetry_space_group_name_H-M   'P 1'
_cell_length_a   10.31440000
_cell_length_b   16.81000000
_cell_length_c   44.03604983
_cell_angle_alpha   90.00000000
_cell_angle_beta   91.38207272
_cell_angle_gamma   90.00000000
_symmetry_Int_Tables_number   1
_chemical_formula_structural   Mn5H36C76(NO5)4
_chemical_formula_sum   'Mn10 H72 C152 N8 O40'
_cell_volume   7632.97212922
_cell_formula_units_Z   2
loop_
 _symmetry_equiv_pos_site_id
 _symmetry_equiv_pos_as_xyz
  1  'x, y, z'
loop_
 _atom_site_type_symbol
 _atom_site_label
 _atom_site_symmetry_multiplicity
 _atom_site_fract_x
 _atom_site_fract_y
 _atom_site_fract_z
 _atom_site_occupancy
  Mn  Mn0  1  0.00000000  0.00000000  0.00000000  1
  Mn  Mn1  1  0.50000000  0.50000000  0.50000000  1
  Mn  Mn2  1  0.70733000  0.99573000  0.81165000  1
  Mn  Mn3  1  0.20733000  0.50427000  0.31165000  1
  Mn  Mn4  1  0.46150000  0.90840000  0.75759000  1
  Mn  Mn5  1  0.96150000  0.59160000  0.25759000  1
  Mn  Mn6  1  0.03850000  0.40840000  0.74241000  1
  Mn  Mn7  1  0.53850000  0.09160000  0.24241000  1
  Mn  Mn8  1  0.79267000  0.49573000  0.68835000  1
  Mn  Mn9  1  0.29267000  0.00427000  0.18835000  1
  H  H10  1  0.06330000  0.25470000  0.07510000  1
  H  H11  1  0.56330000  0.24530000  0.57510000  1
  H  H12  1  0.22310000  0.80090000  0.25070000  1
  H  H13  1  0.72310000  0.69910000  0.75070000  1
  H  H14  1  0.84860000  0.91870000  0.89340000  1
  H  H15  1  0.34860000  0.58130000  0.39340000  1
  H  H16  1  0.61880000  0.29340000  0.67360000  1
  H  H17  1  0.11880000  0.20660000  0.17360000  1
  H  H18  1  0.05290000  0.33333333  0.11980000  1
  H  H19  1  0.55290000  0.16670000  0.61980000  1
  H  H20  1  0.97600000  0.91000000  0.11790000  1
  H  H21  1  0.47600000  0.59000000  0.61790000  1
  H  H22  1  0.98120000  0.41030000  0.20740000  1
  H  H23  1  0.48120000  0.08970000  0.70740000  1
  H  H24  1  0.17750000  0.49510000  0.41080000  1
  H  H25  1  0.67750000  0.00490000  0.91080000  1
  H  H26  1  0.31580000  0.39650000  0.61270000  1
  H  H27  1  0.81580000  0.10350000  0.11270000  1
  H  H28  1  0.11860000  0.30100000  0.44460000  1
  H  H29  1  0.61860000  0.19900000  0.94460000  1
  H  H30  1  0.22130000  0.29830000  0.55610000  1
  H  H31  1  0.72130000  0.20170000  0.05610000  1
  H  H32  1  0.30490000  0.31960000  0.65440000  1
  H  H33  1  0.80490000  0.18040000  0.15440000  1
  H  H34  1  0.33210000  0.47690000  0.68890000  1
  H  H35  1  0.83210000  0.02310000  0.18890000  1
  H  H36  1  0.70050000  0.99490000  0.05990000  1
  H  H37  1  0.20050000  0.50510000  0.55990000  1
  H  H38  1  0.09690000  0.32650000  0.50970000  1
  H  H39  1  0.59690000  0.17350000  0.00970000  1
  H  H40  1  0.49990000  0.98440000  0.96480000  1
  H  H41  1  0.99990000  0.51560000  0.46480000  1
  H  H42  1  0.90550000  0.42960000  0.37460000  1
  H  H43  1  0.40550000  0.07040000  0.87460000  1
  H  H44  1  0.58320000  0.77400000  0.08020000  1
  H  H45  1  0.08320000  0.72600000  0.58020000  1
  H  H46  1  0.91680000  0.27400000  0.41980000  1
  H  H47  1  0.41680000  0.22600000  0.91980000  1
  H  H48  1  0.59450000  0.92960000  0.12540000  1
  H  H49  1  0.09450000  0.57040000  0.62540000  1
  H  H50  1  0.00010000  0.48440000  0.53520000  1
  H  H51  1  0.50010000  0.01560000  0.03520000  1
  H  H52  1  0.40310000  0.82650000  0.99030000  1
  H  H53  1  0.90310000  0.67350000  0.49030000  1
  H  H54  1  0.79950000  0.49490000  0.44010000  1
  H  H55  1  0.29950000  0.00510000  0.94010000  1
  H  H56  1  0.16790000  0.97690000  0.81110000  1
  H  H57  1  0.66790000  0.52310000  0.31110000  1
  H  H58  1  0.19510000  0.81960000  0.84560000  1
  H  H59  1  0.69510000  0.68040000  0.34560000  1
  H  H60  1  0.27870000  0.79830000  0.94390000  1
  H  H61  1  0.77870000  0.70170000  0.44390000  1
  H  H62  1  0.38140000  0.80100000  0.05540000  1
  H  H63  1  0.88140000  0.69900000  0.55540000  1
  H  H64  1  0.18420000  0.89650000  0.88730000  1
  H  H65  1  0.68420000  0.60350000  0.38730000  1
  H  H66  1  0.32250000  0.99510000  0.08920000  1
  H  H67  1  0.82250000  0.50490000  0.58920000  1
  H  H68  1  0.51880000  0.91030000  0.29260000  1
  H  H69  1  0.01880000  0.58970000  0.79260000  1
  H  H70  1  0.52400000  0.41000000  0.38210000  1
  H  H71  1  0.02400000  0.09000000  0.88210000  1
  H  H72  1  0.44710000  0.83330000  0.38020000  1
  H  H73  1  0.94710000  0.66666667  0.88020000  1
  H  H74  1  0.88120000  0.79340000  0.82640000  1
  H  H75  1  0.38120000  0.70660000  0.32640000  1
  H  H76  1  0.65140000  0.41870000  0.60660000  1
  H  H77  1  0.15140000  0.08130000  0.10660000  1
  H  H78  1  0.27690000  0.30090000  0.24930000  1
  H  H79  1  0.77690000  0.19910000  0.74930000  1
  H  H80  1  0.43670000  0.75470000  0.42490000  1
  H  H81  1  0.93670000  0.74530000  0.92490000  1
  C  C82  1  0.56247000  0.43350000  0.56257000  1
  C  C83  1  0.06247000  0.06650000  0.06257000  1
  C  C84  1  0.71023000  0.25510000  0.71163000  1
  C  C85  1  0.21023000  0.24490000  0.21163000  1
  C  C86  1  0.21507000  0.30340000  0.23357000  1
  C  C87  1  0.71507000  0.19660000  0.73357000  1
  C  C88  1  0.84437000  0.94240000  0.91247000  1
  C  C89  1  0.34437000  0.55760000  0.41247000  1
  C  C90  1  0.62020000  0.25410000  0.68850000  1
  C  C91  1  0.12020000  0.24590000  0.18850000  1
  C  C92  1  0.51270000  0.26100000  0.59120000  1
  C  C93  1  0.01270000  0.23900000  0.09120000  1
  C  C94  1  0.69842000  0.82830000  0.78672000  1
  C  C95  1  0.19842000  0.67170000  0.28672000  1
  C  C96  1  0.12827000  0.36560000  0.23217000  1
  C  C97  1  0.62827000  0.13440000  0.73217000  1
  C  C98  1  0.06122000  0.98380000  0.16882000  1
  C  C99  1  0.56122000  0.51620000  0.66882000  1
  C  C100  1  0.45449000  0.38490000  0.56319000  1
  C  C101  1  0.95449000  0.11510000  0.06319000  1
  C  C102  1  0.00550000  0.28630000  0.11830000  1
  C  C103  1  0.50550000  0.21370000  0.61830000  1
  C  C104  1  0.13630000  0.43000000  0.25640000  1
  C  C105  1  0.63630000  0.07000000  0.75640000  1
  C  C106  1  0.44202000  0.33030000  0.59002000  1
  C  C107  1  0.94202000  0.16970000  0.09002000  1
  C  C108  1  0.03206000  0.30640000  0.18786000  1
  C  C109  1  0.53206000  0.19360000  0.68786000  1
  C  C110  1  0.28564000  0.48280000  0.45174000  1
  C  C111  1  0.78564000  0.01720000  0.95174000  1
  C  C112  1  0.75189000  0.99070000  0.92189000  1
  C  C113  1  0.25189000  0.50930000  0.42189000  1
  C  C114  1  0.03855000  0.36770000  0.20905000  1
  C  C115  1  0.53855000  0.13230000  0.70905000  1
  C  C116  1  0.36259000  0.38110000  0.53979000  1
  C  C117  1  0.86259000  0.11890000  0.03979000  1
  C  C118  1  0.93020000  0.26340000  0.14190000  1
  C  C119  1  0.43020000  0.23660000  0.64190000  1
  C  C120  1  0.90520000  0.92760000  0.12870000  1
  C  C121  1  0.40520000  0.57240000  0.62870000  1
  C  C122  1  0.92513000  0.96610000  0.15533000  1
  C  C123  1  0.42513000  0.53390000  0.65533000  1
  C  C124  1  0.36503000  0.35020000  0.61383000  1
  C  C125  1  0.86503000  0.14980000  0.11383000  1
  C  C126  1  0.24661000  0.40550000  0.49851000  1
  C  C127  1  0.74661000  0.09450000  0.99851000  1
  C  C128  1  0.21249000  0.43520000  0.46919000  1
  C  C129  1  0.71249000  0.06480000  0.96919000  1
  C  C130  1  0.35900000  0.30450000  0.63880000  1
  C  C131  1  0.85900000  0.19550000  0.13880000  1
  C  C132  1  0.24440000  0.33310000  0.54070000  1
  C  C133  1  0.74440000  0.16690000  0.04070000  1
  C  C134  1  0.78188000  0.91420000  0.11728000  1
  C  C135  1  0.28188000  0.58580000  0.61728000  1
  C  C136  1  0.17649000  0.34880000  0.51539000  1
  C  C137  1  0.67649000  0.15120000  0.01539000  1
  C  C138  1  0.81927000  0.99430000  0.17107000  1
  C  C139  1  0.31927000  0.50570000  0.67107000  1
  C  C140  1  0.07858000  0.41020000  0.45628000  1
  C  C141  1  0.57858000  0.08980000  0.95628000  1
  C  C142  1  0.05507000  0.34030000  0.44357000  1
  C  C143  1  0.55507000  0.15970000  0.94357000  1
  C  C144  1  0.42180000  0.99100000  0.82270000  1
  C  C145  1  0.92180000  0.50900000  0.32270000  1
  C  C146  1  0.65489000  0.88290000  0.07339000  1
  C  C147  1  0.15489000  0.61710000  0.57339000  1
  C  C148  1  0.63669000  0.95570000  0.05949000  1
  C  C149  1  0.13669000  0.54430000  0.55949000  1
  C  C150  1  0.67772000  0.93960000  0.13312000  1
  C  C151  1  0.17772000  0.56040000  0.63312000  1
  C  C152  1  0.69271000  0.97910000  0.15991000  1
  C  C153  1  0.19271000  0.52090000  0.65991000  1
  C  C154  1  0.98367000  0.46710000  0.45527000  1
  C  C155  1  0.48367000  0.03290000  0.95527000  1
  C  C156  1  0.93389000  0.32370000  0.42829000  1
  C  C157  1  0.43389000  0.17630000  0.92829000  1
  C  C158  1  0.56611000  0.82370000  0.07171000  1
  C  C159  1  0.06611000  0.67630000  0.57171000  1
  C  C160  1  0.51633000  0.96710000  0.04473000  1
  C  C161  1  0.01633000  0.53290000  0.54473000  1
  C  C162  1  0.80729000  0.47910000  0.34009000  1
  C  C163  1  0.30729000  0.02090000  0.84009000  1
  C  C164  1  0.82228000  0.43960000  0.36688000  1
  C  C165  1  0.32228000  0.06040000  0.86688000  1
  C  C166  1  0.86331000  0.45570000  0.44051000  1
  C  C167  1  0.36331000  0.04430000  0.94051000  1
  C  C168  1  0.84511000  0.38290000  0.42661000  1
  C  C169  1  0.34511000  0.11710000  0.92661000  1
  C  C170  1  0.07820000  0.49100000  0.67730000  1
  C  C171  1  0.57820000  0.00900000  0.17730000  1
  C  C172  1  0.44493000  0.84030000  0.05643000  1
  C  C173  1  0.94493000  0.65970000  0.55643000  1
  C  C174  1  0.42142000  0.91020000  0.04372000  1
  C  C175  1  0.92142000  0.58980000  0.54372000  1
  C  C176  1  0.68073000  0.49430000  0.32893000  1
  C  C177  1  0.18073000  0.00570000  0.82893000  1
  C  C178  1  0.32351000  0.84880000  0.98461000  1
  C  C179  1  0.82351000  0.65120000  0.48461000  1
  C  C180  1  0.71812000  0.41420000  0.38272000  1
  C  C181  1  0.21812000  0.08580000  0.88272000  1
  C  C182  1  0.25560000  0.83310000  0.95930000  1
  C  C183  1  0.75560000  0.66690000  0.45930000  1
  C  C184  1  0.14100000  0.80450000  0.86120000  1
  C  C185  1  0.64100000  0.69550000  0.36120000  1
  C  C186  1  0.28751000  0.93520000  0.03081000  1
  C  C187  1  0.78751000  0.56480000  0.53081000  1
  C  C188  1  0.25339000  0.90550000  0.00149000  1
  C  C189  1  0.75339000  0.59450000  0.50149000  1
  C  C190  1  0.13497000  0.85020000  0.88617000  1
  C  C191  1  0.63497000  0.64980000  0.38617000  1
  C  C192  1  0.57487000  0.46610000  0.34467000  1
  C  C193  1  0.07487000  0.03390000  0.84467000  1
  C  C194  1  0.59480000  0.42760000  0.37130000  1
  C  C195  1  0.09480000  0.07240000  0.87130000  1
  C  C196  1  0.56980000  0.76340000  0.35810000  1
  C  C197  1  0.06980000  0.73660000  0.85810000  1
  C  C198  1  0.13741000  0.88110000  0.96021000  1
  C  C199  1  0.63741000  0.61890000  0.46021000  1
  C  C200  1  0.46145000  0.86770000  0.29095000  1
  C  C201  1  0.96145000  0.63230000  0.79095000  1
  C  C202  1  0.74811000  0.49070000  0.57811000  1
  C  C203  1  0.24811000  0.00930000  0.07811000  1
  C  C204  1  0.21436000  0.98280000  0.04826000  1
  C  C205  1  0.71436000  0.51720000  0.54826000  1
  C  C206  1  0.46794000  0.80640000  0.31214000  1
  C  C207  1  0.96794000  0.69360000  0.81214000  1
  C  C208  1  0.05798000  0.83030000  0.90998000  1
  C  C209  1  0.55798000  0.66970000  0.40998000  1
  C  C210  1  0.36370000  0.93000000  0.24360000  1
  C  C211  1  0.86370000  0.57000000  0.74360000  1
  C  C212  1  0.49450000  0.78630000  0.38170000  1
  C  C213  1  0.99450000  0.71370000  0.88170000  1
  C  C214  1  0.04551000  0.88490000  0.93681000  1
  C  C215  1  0.54551000  0.61510000  0.43681000  1
  C  C216  1  0.43878000  0.48380000  0.33118000  1
  C  C217  1  0.93878000  0.01620000  0.83118000  1
  C  C218  1  0.37173000  0.86560000  0.26783000  1
  C  C219  1  0.87173000  0.63440000  0.76783000  1
  C  C220  1  0.80158000  0.32830000  0.71328000  1
  C  C221  1  0.30158000  0.17170000  0.21328000  1
  C  C222  1  0.98730000  0.76100000  0.90880000  1
  C  C223  1  0.48730000  0.73900000  0.40880000  1
  C  C224  1  0.87980000  0.75410000  0.81150000  1
  C  C225  1  0.37980000  0.74590000  0.31150000  1
  C  C226  1  0.65563000  0.44240000  0.58753000  1
  C  C227  1  0.15563000  0.05760000  0.08753000  1
  C  C228  1  0.28493000  0.80340000  0.26643000  1
  C  C229  1  0.78493000  0.69660000  0.76643000  1
  C  C230  1  0.78977000  0.75510000  0.78837000  1
  C  C231  1  0.28977000  0.74490000  0.28837000  1
  C  C232  1  0.93753000  0.93350000  0.93743000  1
  C  C233  1  0.43753000  0.56650000  0.43743000  1
  N  N234  1  0.90058000  0.98260000  0.96078000  1
  N  N235  1  0.40058000  0.51740000  0.46078000  1
  N  N236  1  0.36175000  0.42330000  0.51345000  1
  N  N237  1  0.86175000  0.07670000  0.01345000  1
  N  N238  1  0.13825000  0.92330000  0.98655000  1
  N  N239  1  0.63825000  0.57670000  0.48655000  1
  N  N240  1  0.59942000  0.48260000  0.53922000  1
  N  N241  1  0.09942000  0.01740000  0.03922000  1
  O  O242  1  0.34395000  0.46220000  0.34625000  1
  O  O243  1  0.84395000  0.03780000  0.84625000  1
  O  O244  1  0.20216000  0.41430000  0.27946000  1
  O  O245  1  0.70216000  0.08570000  0.77946000  1
  O  O246  1  0.70221000  0.87400000  0.80851000  1
  O  O247  1  0.20221000  0.62600000  0.30851000  1
  O  O248  1  0.57308000  0.48620000  0.69358000  1
  O  O249  1  0.07308000  0.01380000  0.19358000  1
  O  O250  1  0.61754000  0.82990000  0.76454000  1
  O  O251  1  0.11754000  0.67010000  0.26454000  1
  O  O252  1  0.07270000  0.49080000  0.25120000  1
  O  O253  1  0.57270000  0.00920000  0.75120000  1
  O  O254  1  0.93444000  0.31820000  0.16564000  1
  O  O255  1  0.43444000  0.18180000  0.66564000  1
  O  O256  1  0.02975000  0.48620000  0.33245000  1
  O  O257  1  0.52975000  0.01380000  0.83245000  1
  O  O258  1  0.76999000  0.86990000  0.09049000  1
  O  O259  1  0.26999000  0.63010000  0.59049000  1
  O  O260  1  0.40138000  0.94830000  0.80038000  1
  O  O261  1  0.90138000  0.55170000  0.30038000  1
  O  O262  1  0.09862000  0.44830000  0.69962000  1
  O  O263  1  0.59862000  0.05170000  0.19962000  1
  O  O264  1  0.73001000  0.36990000  0.40951000  1
  O  O265  1  0.23001000  0.13010000  0.90951000  1
  O  O266  1  0.47025000  0.98620000  0.16755000  1
  O  O267  1  0.97025000  0.51380000  0.66755000  1
  O  O268  1  0.56556000  0.81820000  0.33436000  1
  O  O269  1  0.06556000  0.68180000  0.83436000  1
  O  O270  1  0.42730000  0.99080000  0.24880000  1
  O  O271  1  0.92730000  0.50920000  0.74880000  1
  O  O272  1  0.88246000  0.32990000  0.73546000  1
  O  O273  1  0.38246000  0.17010000  0.23546000  1
  O  O274  1  0.92692000  0.98620000  0.80642000  1
  O  O275  1  0.42692000  0.51380000  0.30642000  1
  O  O276  1  0.79779000  0.37400000  0.69149000  1
  O  O277  1  0.29779000  0.12600000  0.19149000  1
  O  O278  1  0.29784000  0.91430000  0.22054000  1
  O  O279  1  0.79784000  0.58570000  0.72054000  1
  O  O280  1  0.15605000  0.96220000  0.15375000  1
  O  O281  1  0.65605000  0.53780000  0.65375000  1
