# generated using pymatgen
data_AgH12(C3N)6
_symmetry_space_group_name_H-M   'P 1'
_cell_length_a   13.75792332
_cell_length_b   13.75792332
_cell_length_c   24.57184894
_cell_angle_alpha   101.67426198
_cell_angle_beta   101.36435304
_cell_angle_gamma   106.65900435
_symmetry_Int_Tables_number   1
_chemical_formula_structural   AgH12(C3N)6
_chemical_formula_sum   'Ag8 H96 C144 N48'
_cell_volume   4199.24858950
_cell_formula_units_Z   8
loop_
 _symmetry_equiv_pos_site_id
 _symmetry_equiv_pos_as_xyz
  1  'x, y, z'
loop_
 _atom_site_type_symbol
 _atom_site_label
 _atom_site_symmetry_multiplicity
 _atom_site_fract_x
 _atom_site_fract_y
 _atom_site_fract_z
 _atom_site_occupancy
  Ag  Ag0  1  0.61344000  0.43398000  0.13220000  1
  Ag  Ag1  1  0.69822000  0.01876000  0.63220000  1
  Ag  Ag2  1  0.42436000  0.20280000  0.13280000  1
  Ag  Ag3  1  0.93000000  0.20844000  0.63280000  1
  Ag  Ag4  1  0.57564000  0.79720000  0.86720000  1
  Ag  Ag5  1  0.07000000  0.79156000  0.36720000  1
  Ag  Ag6  1  0.38656000  0.56602000  0.86780000  1
  Ag  Ag7  1  0.30178000  0.98124000  0.36780000  1
  C  C8  1  0.07530000  0.47750000  0.40700000  1
  C  C9  1  0.92950000  0.83170000  0.90700000  1
  C  C10  1  0.11990000  0.60900000  0.49630000  1
  C  C11  1  0.88730000  0.87640000  0.99630000  1
  C  C12  1  0.36130000  0.80890000  0.49960000  1
  C  C13  1  0.69070000  0.63830000  0.99960000  1
  C  C14  1  0.38110000  0.44400000  0.11610000  1
  C  C15  1  0.67210000  0.23500000  0.61610000  1
  C  C16  1  0.40840000  0.37280000  0.03060000  1
  C  C17  1  0.65780000  0.12220000  0.53060000  1
  C  C18  1  0.34550000  0.69000000  0.41090000  1
  C  C19  1  0.72090000  0.56540000  0.91090000  1
  C  C20  1  0.10720000  0.50667000  0.46667000  1
  C  C21  1  0.96000000  0.85947000  0.96667000  1
  C  C22  1  0.21240000  0.13580000  0.03520000  1
  C  C23  1  0.89940000  0.32280000  0.53520000  1
  C  C24  1  0.17290000  0.18110000  0.12100000  1
  C  C25  1  0.93990000  0.44810000  0.62100000  1
  C  C26  1  0.36180000  0.71160000  0.46980000  1
  C  C27  1  0.75820000  0.60800000  0.96980000  1
  C  C28  1  0.12760000  0.43270000  0.50070000  1
  C  C29  1  0.06800000  0.87310000  0.00070000  1
  C  C30  1  0.38070000  0.63476000  0.50186000  1
  C  C31  1  0.86710000  0.62116000  0.00186000  1
  C  C32  1  0.46440000  0.37710000  0.25590000  1
  C  C33  1  0.87880000  0.29150000  0.75590000  1
  C  C34  1  0.63400000  0.81140000  0.52620000  1
  C  C35  1  0.71480000  0.39220000  0.02620000  1
  C  C36  1  0.22320000  0.54600000  0.68100000  1
  C  C37  1  0.13500000  0.95780000  0.18100000  1
  C  C38  1  0.18250000  0.90980000  0.08790000  1
  C  C39  1  0.17810000  0.40540000  0.58790000  1
  C  C40  1  0.23430000  0.87590000  0.00660000  1
  C  C41  1  0.13070000  0.27230000  0.50660000  1
  C  C42  1  0.29650000  0.84180000  0.91830000  1
  C  C43  1  0.07650000  0.12180000  0.41830000  1
  C  C44  1  0.51230000  0.14910000  0.02100000  1
  C  C45  1  0.87190000  0.00870000  0.52100000  1
  C  C46  1  0.68770000  0.06000000  0.75750000  1
  C  C47  1  0.69750000  0.56980000  0.25750000  1
  C  C48  1  0.49990000  0.41960000  0.31510000  1
  C  C49  1  0.89550000  0.31520000  0.81510000  1
  C  C50  1  0.61780000  0.70890000  0.49530000  1
  C  C51  1  0.78640000  0.37750000  0.99530000  1
  C  C52  1  0.31370000  0.32110000  0.41500000  1
  C  C53  1  0.09390000  0.60130000  0.91500000  1
  C  C54  1  0.37750000  0.47180000  0.50510000  1
  C  C55  1  0.03330000  0.62760000  0.00510000  1
  C  C56  1  0.43610000  0.60400000  0.58730000  1
  C  C57  1  0.98330000  0.65120000  0.08730000  1
  C  C58  1  0.26530000  0.58190000  0.74040000  1
  C  C59  1  0.15850000  0.97510000  0.24040000  1
  C  C60  1  0.22090000  0.44780000  0.65170000  1
  C  C61  1  0.20390000  0.93080000  0.15170000  1
  C  C62  1  0.31700000  0.86350000  0.97750000  1
  C  C63  1  0.50410000  0.75090000  0.67780000  1
  C  C64  1  0.92690000  0.67370000  0.17780000  1
  C  C65  1  0.11400000  0.16050000  0.47750000  1
  C  C66  1  0.37220000  0.82420000  0.89220000  1
  C  C67  1  0.06800000  0.02000000  0.39220000  1
  C  C68  1  0.70500000  0.07830000  0.81670000  1
  C  C69  1  0.73840000  0.61170000  0.31670000  1
  C  C70  1  0.58410000  0.13090000  0.99080000  1
  C  C71  1  0.85990000  0.90670000  0.49080000  1
  C  C72  1  0.29980000  0.21780000  0.38840000  1
  C  C73  1  0.17060000  0.58860000  0.88840000  1
  C  C74  1  0.35730000  0.35990000  0.47440000  1
  C  C75  1  0.11450000  0.61710000  0.97440000  1
  C  C76  1  0.48040000  0.64480000  0.65100000  1
  C  C77  1  0.00620000  0.67060000  0.15100000  1
  C  C78  1  0.54100000  0.78660000  0.73720000  1
  C  C79  1  0.95060000  0.69620000  0.23720000  1
  C  C80  1  0.45900000  0.21340000  0.26280000  1
  C  C81  1  0.04940000  0.30380000  0.76280000  1
  C  C82  1  0.51960000  0.35520000  0.34900000  1
  C  C83  1  0.99380000  0.32940000  0.84900000  1
  C  C84  1  0.64270000  0.64010000  0.52560000  1
  C  C85  1  0.88550000  0.38290000  0.02560000  1
  C  C86  1  0.70020000  0.78220000  0.61160000  1
  C  C87  1  0.82940000  0.41140000  0.11160000  1
  C  C88  1  0.41590000  0.86910000  0.00920000  1
  C  C89  1  0.14010000  0.09330000  0.50920000  1
  C  C90  1  0.29500000  0.92170000  0.18330000  1
  C  C91  1  0.26160000  0.38830000  0.68330000  1
  C  C92  1  0.62780000  0.17580000  0.10780000  1
  C  C93  1  0.93200000  0.98000000  0.60780000  1
  C  C94  1  0.49590000  0.24910000  0.32220000  1
  C  C95  1  0.68300000  0.13650000  0.02250000  1
  C  C96  1  0.88600000  0.83950000  0.52250000  1
  C  C97  1  0.07310000  0.32630000  0.82220000  1
  C  C98  1  0.77910000  0.55220000  0.34830000  1
  C  C99  1  0.79610000  0.06920000  0.84830000  1
  C  C100  1  0.73470000  0.41810000  0.25960000  1
  C  C101  1  0.84150000  0.02490000  0.75960000  1
  C  C102  1  0.56390000  0.39600000  0.41270000  1
  C  C103  1  0.01670000  0.34880000  0.91270000  1
  C  C104  1  0.62250000  0.52820000  0.49490000  1
  C  C105  1  0.96670000  0.37240000  0.99490000  1
  C  C106  1  0.68630000  0.67890000  0.58500000  1
  C  C107  1  0.90610000  0.39870000  0.08500000  1
  C  C108  1  0.38220000  0.29110000  0.50470000  1
  C  C109  1  0.21360000  0.62250000  0.00470000  1
  C  C110  1  0.50010000  0.58040000  0.68490000  1
  C  C111  1  0.10450000  0.68480000  0.18490000  1
  C  C112  1  0.31230000  0.94000000  0.24250000  1
  C  C113  1  0.30250000  0.43020000  0.74250000  1
  C  C114  1  0.48770000  0.85090000  0.97900000  1
  C  C115  1  0.12810000  0.99130000  0.47900000  1
  C  C116  1  0.70350000  0.15820000  0.08170000  1
  C  C117  1  0.92350000  0.87820000  0.58170000  1
  C  C118  1  0.76570000  0.12410000  0.99340000  1
  C  C119  1  0.86930000  0.72770000  0.49340000  1
  C  C120  1  0.81750000  0.09020000  0.91210000  1
  C  C121  1  0.82190000  0.59460000  0.41210000  1
  C  C122  1  0.77680000  0.45400000  0.31900000  1
  C  C123  1  0.86500000  0.04220000  0.81900000  1
  C  C124  1  0.36600000  0.18860000  0.47380000  1
  C  C125  1  0.28520000  0.60780000  0.97380000  1
  C  C126  1  0.53560000  0.62290000  0.74410000  1
  C  C127  1  0.12120000  0.70850000  0.24410000  1
  C  C128  1  0.61930000  0.36524000  0.49814000  1
  C  C129  1  0.13290000  0.37884000  0.99814000  1
  C  C130  1  0.87240000  0.56730000  0.49930000  1
  C  C131  1  0.93200000  0.12690000  0.99930000  1
  C  C132  1  0.63820000  0.28840000  0.53020000  1
  C  C133  1  0.24180000  0.39200000  0.03020000  1
  C  C134  1  0.82710000  0.81890000  0.87900000  1
  C  C135  1  0.06010000  0.55190000  0.37900000  1
  C  C136  1  0.78760000  0.86420000  0.96480000  1
  C  C137  1  0.10060000  0.67720000  0.46480000  1
  C  C138  1  0.89280000  0.49333000  0.53333000  1
  C  C139  1  0.04000000  0.14053000  0.03333000  1
  C  C140  1  0.65450000  0.31000000  0.58910000  1
  C  C141  1  0.27910000  0.43460000  0.08910000  1
  C  C142  1  0.59160000  0.62720000  0.96940000  1
  C  C143  1  0.34220000  0.87780000  0.46940000  1
  C  C144  1  0.61890000  0.55600000  0.88390000  1
  C  C145  1  0.32790000  0.76500000  0.38390000  1
  C  C146  1  0.63870000  0.19110000  0.50040000  1
  C  C147  1  0.30930000  0.36170000  0.00040000  1
  C  C148  1  0.88010000  0.39100000  0.50370000  1
  C  C149  1  0.11270000  0.12360000  0.00370000  1
  C  C150  1  0.92470000  0.52250000  0.59300000  1
  C  C151  1  0.07050000  0.16830000  0.09300000  1
  H  H152  1  0.06430000  0.40910000  0.38600000  1
  H  H153  1  0.97690000  0.82170000  0.88600000  1
  H  H154  1  0.14090000  0.63100000  0.53650000  1
  H  H155  1  0.90550000  0.89560000  0.03650000  1
  H  H156  1  0.37400000  0.82680000  0.53960000  1
  H  H157  1  0.71280000  0.66560000  0.03960000  1
  H  H158  1  0.40610000  0.47440000  0.15590000  1
  H  H159  1  0.68150000  0.24980000  0.65590000  1
  H  H160  1  0.34630000  0.62620000  0.38970000  1
  H  H161  1  0.76350000  0.54340000  0.88970000  1
  H  H162  1  0.45250000  0.35190000  0.01020000  1
  H  H163  1  0.65830000  0.05770000  0.51020000  1
  H  H164  1  0.26030000  0.12360000  0.01510000  1
  H  H165  1  0.89150000  0.25480000  0.51510000  1
  H  H166  1  0.19360000  0.20220000  0.16120000  1
  H  H167  1  0.95900000  0.46760000  0.66120000  1
  H  H168  1  0.45320000  0.42170000  0.23330000  1
  H  H169  1  0.61550000  0.85660000  0.50590000  1
  H  H170  1  0.64930000  0.39040000  0.00590000  1
  H  H171  1  0.81160000  0.28010000  0.73330000  1
  H  H172  1  0.19660000  0.58750000  0.66090000  1
  H  H173  1  0.07340000  0.96430000  0.16090000  1
  H  H174  1  0.23210000  0.83910000  0.89620000  1
  H  H175  1  0.05710000  0.16410000  0.39620000  1
  H  H176  1  0.62690000  0.06650000  0.73660000  1
  H  H177  1  0.67010000  0.60970000  0.23660000  1
  H  H178  1  0.44640000  0.14490000  0.99990000  1
  H  H179  1  0.85500000  0.05350000  0.49990000  1
  H  H180  1  0.29430000  0.36410000  0.39340000  1
  H  H181  1  0.02930000  0.59910000  0.89340000  1
  H  H182  1  0.51010000  0.49010000  0.33180000  1
  H  H183  1  0.84170000  0.32170000  0.83180000  1
  H  H184  1  0.49530000  0.79740000  0.65610000  1
  H  H185  1  0.85870000  0.66080000  0.15610000  1
  H  H186  1  0.59100000  0.68680000  0.45540000  1
  H  H187  1  0.76860000  0.36440000  0.95540000  1
  H  H188  1  0.26630000  0.64790000  0.75960000  1
  H  H189  1  0.11170000  0.99330000  0.25960000  1
  H  H190  1  0.65690000  0.09620000  0.83490000  1
  H  H191  1  0.73870000  0.67800000  0.33490000  1
  H  H192  1  0.35650000  0.80890000  0.85220000  1
  H  H193  1  0.04330000  0.99570000  0.35220000  1
  H  H194  1  0.56690000  0.11550000  0.95080000  1
  H  H195  1  0.83530000  0.88390000  0.45080000  1
  H  H196  1  0.27070000  0.19290000  0.34860000  1
  H  H197  1  0.15570000  0.57790000  0.84860000  1
  H  H198  1  0.55710000  0.85800000  0.75470000  1
  H  H199  1  0.89670000  0.69760000  0.25470000  1
  H  H200  1  0.44290000  0.14200000  0.24530000  1
  H  H201  1  0.10330000  0.30240000  0.74530000  1
  H  H202  1  0.72930000  0.80710000  0.65140000  1
  H  H203  1  0.84430000  0.42210000  0.15140000  1
  H  H204  1  0.43310000  0.88450000  0.04920000  1
  H  H205  1  0.16470000  0.11610000  0.54920000  1
  H  H206  1  0.64350000  0.19110000  0.14780000  1
  H  H207  1  0.95670000  0.00430000  0.64780000  1
  H  H208  1  0.34310000  0.90380000  0.16510000  1
  H  H209  1  0.26130000  0.32200000  0.66510000  1
  H  H210  1  0.73370000  0.35210000  0.24040000  1
  H  H211  1  0.88830000  0.00670000  0.74040000  1
  H  H212  1  0.40900000  0.31320000  0.54460000  1
  H  H213  1  0.23140000  0.63560000  0.04460000  1
  H  H214  1  0.50470000  0.20260000  0.34390000  1
  H  H215  1  0.14130000  0.33920000  0.84390000  1
  H  H216  1  0.48990000  0.50990000  0.66820000  1
  H  H217  1  0.15830000  0.67830000  0.16820000  1
  H  H218  1  0.70570000  0.63590000  0.60660000  1
  H  H219  1  0.97070000  0.40090000  0.10660000  1
  H  H220  1  0.55360000  0.85510000  0.00010000  1
  H  H221  1  0.14500000  0.94650000  0.50010000  1
  H  H222  1  0.37310000  0.93350000  0.26340000  1
  H  H223  1  0.32990000  0.39030000  0.76340000  1
  H  H224  1  0.76790000  0.16090000  0.10380000  1
  H  H225  1  0.94290000  0.83590000  0.60380000  1
  H  H226  1  0.80340000  0.41250000  0.33910000  1
  H  H227  1  0.92660000  0.03570000  0.83910000  1
  H  H228  1  0.38450000  0.14340000  0.49410000  1
  H  H229  1  0.54680000  0.57830000  0.76670000  1
  H  H230  1  0.18840000  0.71990000  0.26670000  1
  H  H231  1  0.35070000  0.60960000  0.99410000  1
  H  H232  1  0.80640000  0.79780000  0.83880000  1
  H  H233  1  0.04100000  0.53240000  0.33880000  1
  H  H234  1  0.73970000  0.87640000  0.98490000  1
  H  H235  1  0.10850000  0.74520000  0.48490000  1
  H  H236  1  0.54750000  0.64810000  0.98980000  1
  H  H237  1  0.34170000  0.94230000  0.48980000  1
  H  H238  1  0.65370000  0.37380000  0.61030000  1
  H  H239  1  0.23650000  0.45660000  0.11030000  1
  H  H240  1  0.59390000  0.52560000  0.84410000  1
  H  H241  1  0.31850000  0.75020000  0.34410000  1
  H  H242  1  0.62600000  0.17320000  0.46040000  1
  H  H243  1  0.28720000  0.33440000  0.96040000  1
  H  H244  1  0.85910000  0.36900000  0.46350000  1
  H  H245  1  0.09450000  0.10440000  0.96350000  1
  H  H246  1  0.93570000  0.59090000  0.61400000  1
  H  H247  1  0.02310000  0.17830000  0.11400000  1
  N  N248  1  0.44538000  0.41209000  0.08827000  1
  N  N249  1  0.67618000  0.14289000  0.58827000  1
  N  N250  1  0.24420000  0.16437000  0.09317000  1
  N  N251  1  0.92880000  0.34897000  0.59317000  1
  N  N252  1  0.16047000  0.47326000  0.55853000  1
  N  N253  1  0.08527000  0.89806000  0.05853000  1
  N  N254  1  0.13775000  0.85820000  0.97295000  1
  N  N255  1  0.11475000  0.33520000  0.47295000  1
  N  N256  1  0.35890000  0.53527000  0.47237000  1
  N  N257  1  0.93710000  0.61347000  0.97237000  1
  N  N258  1  0.42095000  0.67415000  0.55910000  1
  N  N259  1  0.88495000  0.63815000  0.05910000  1
  N  N260  1  0.44530000  0.27601000  0.22911000  1
  N  N261  1  0.95310000  0.28381000  0.72911000  1
  N  N262  1  0.67433000  0.84857000  0.58330000  1
  N  N263  1  0.73473000  0.40897000  0.08330000  1
  N  N264  1  0.26102000  0.90258000  0.06460000  1
  N  N265  1  0.16202000  0.30358000  0.56460000  1
  N  N266  1  0.53300000  0.17197000  0.07857000  1
  N  N267  1  0.90660000  0.04557000  0.57857000  1
  N  N268  1  0.69520000  0.47535000  0.22855000  1
  N  N269  1  0.75320000  0.03335000  0.72855000  1
  N  N270  1  0.41573000  0.50212000  0.56265000  1
  N  N271  1  0.06053000  0.64692000  0.06265000  1
  N  N272  1  0.58427000  0.49788000  0.43735000  1
  N  N273  1  0.93947000  0.35308000  0.93735000  1
  N  N274  1  0.30480000  0.52465000  0.77145000  1
  N  N275  1  0.24680000  0.96665000  0.27145000  1
  N  N276  1  0.46700000  0.82803000  0.92143000  1
  N  N277  1  0.09340000  0.95443000  0.42143000  1
  N  N278  1  0.73898000  0.09742000  0.93540000  1
  N  N279  1  0.83798000  0.69642000  0.43540000  1
  N  N280  1  0.32567000  0.15143000  0.41670000  1
  N  N281  1  0.26527000  0.59103000  0.91670000  1
  N  N282  1  0.55470000  0.72399000  0.77089000  1
  N  N283  1  0.04690000  0.71619000  0.27089000  1
  N  N284  1  0.57905000  0.32585000  0.44090000  1
  N  N285  1  0.11505000  0.36185000  0.94090000  1
  N  N286  1  0.64110000  0.46473000  0.52763000  1
  N  N287  1  0.06290000  0.38653000  0.02763000  1
  N  N288  1  0.86225000  0.14180000  0.02705000  1
  N  N289  1  0.88525000  0.66480000  0.52705000  1
  N  N290  1  0.83953000  0.52674000  0.44147000  1
  N  N291  1  0.91473000  0.10194000  0.94147000  1
  N  N292  1  0.75580000  0.83563000  0.90683000  1
  N  N293  1  0.07120000  0.65103000  0.40683000  1
  N  N294  1  0.55462000  0.58791000  0.91173000  1
  N  N295  1  0.32382000  0.85711000  0.41173000  1
