# generated using pymatgen
data_NiH15C15N3O2
_symmetry_space_group_name_H-M   'P 1'
_cell_length_a   13.74950000
_cell_length_b   13.74950000
_cell_length_c   25.53300000
_cell_angle_alpha   90.00000000
_cell_angle_beta   90.00000000
_cell_angle_gamma   90.00000000
_symmetry_Int_Tables_number   1
_chemical_formula_structural   NiH15C15N3O2
_chemical_formula_sum   'Ni8 H120 C120 N24 O16'
_cell_volume   4826.98174013
_cell_formula_units_Z   8
loop_
 _symmetry_equiv_pos_site_id
 _symmetry_equiv_pos_as_xyz
  1  'x, y, z'
loop_
 _atom_site_type_symbol
 _atom_site_label
 _atom_site_symmetry_multiplicity
 _atom_site_fract_x
 _atom_site_fract_y
 _atom_site_fract_z
 _atom_site_occupancy
  Ni  Ni0  1  0.09338000  0.24906000  0.02368000  1
  Ni  Ni1  1  0.24906000  0.90662000  0.97632000  1
  Ni  Ni2  1  0.25094000  0.40662000  0.47632000  1
  Ni  Ni3  1  0.40662000  0.74906000  0.52368000  1
  Ni  Ni4  1  0.59338000  0.25094000  0.52368000  1
  Ni  Ni5  1  0.74906000  0.59338000  0.47632000  1
  Ni  Ni6  1  0.75094000  0.09338000  0.97632000  1
  Ni  Ni7  1  0.90662000  0.75094000  0.02368000  1
  H  H8  1  0.02580000  0.81050000  0.43560000  1
  H  H9  1  0.02630000  0.13160000  0.84810000  1
  H  H10  1  0.03460000  0.64970000  0.27960000  1
  H  H11  1  0.03950000  0.25390000  0.90020000  1
  H  H12  1  0.04720000  0.08570000  0.57070000  1
  H  H13  1  0.05190000  0.77010000  0.55930000  1
  H  H14  1  0.05410000  0.30440000  0.21440000  1
  H  H15  1  0.05640000  0.93780000  0.11000000  1
  H  H16  1  0.05660000  0.33220000  0.45410000  1
  H  H17  1  0.06220000  0.05640000  0.89000000  1
  H  H18  1  0.06480000  0.64790000  0.37230000  1
  H  H19  1  0.07840000  0.63450000  0.05410000  1
  H  H20  1  0.08570000  0.95280000  0.42930000  1
  H  H21  1  0.12210000  0.24260000  0.13760000  1
  H  H22  1  0.12790000  0.86350000  0.13620000  1
  H  H23  1  0.13160000  0.97370000  0.15190000  1
  H  H24  1  0.13450000  0.57840000  0.44590000  1
  H  H25  1  0.13650000  0.12790000  0.86380000  1
  H  H26  1  0.14790000  0.56480000  0.12770000  1
  H  H27  1  0.14970000  0.53460000  0.22040000  1
  H  H28  1  0.16780000  0.44340000  0.04590000  1
  H  H29  1  0.18950000  0.02580000  0.56440000  1
  H  H30  1  0.19560000  0.44590000  0.28560000  1
  H  H31  1  0.19600000  0.69680000  0.54010000  1
  H  H32  1  0.19680000  0.69600000  0.95990000  1
  H  H33  1  0.20030000  0.20730000  0.94260000  1
  H  H34  1  0.20730000  0.79970000  0.05740000  1
  H  H35  1  0.22990000  0.05190000  0.44070000  1
  H  H36  1  0.24260000  0.87790000  0.86240000  1
  H  H37  1  0.24610000  0.46050000  0.59980000  1
  H  H38  1  0.25390000  0.96050000  0.09980000  1
  H  H39  1  0.25740000  0.37790000  0.36240000  1
  H  H40  1  0.27010000  0.55190000  0.94070000  1
  H  H41  1  0.29270000  0.29970000  0.55740000  1
  H  H42  1  0.29970000  0.70730000  0.44260000  1
  H  H43  1  0.30320000  0.19600000  0.45990000  1
  H  H44  1  0.30400000  0.19680000  0.04010000  1
  H  H45  1  0.30440000  0.94590000  0.78560000  1
  H  H46  1  0.31050000  0.52580000  0.06440000  1
  H  H47  1  0.33220000  0.94340000  0.54590000  1
  H  H48  1  0.35030000  0.03460000  0.72040000  1
  H  H49  1  0.35210000  0.06480000  0.62770000  1
  H  H50  1  0.36350000  0.62790000  0.36380000  1
  H  H51  1  0.36550000  0.07840000  0.94590000  1
  H  H52  1  0.36840000  0.47370000  0.65190000  1
  H  H53  1  0.37210000  0.36350000  0.63620000  1
  H  H54  1  0.37790000  0.74260000  0.63760000  1
  H  H55  1  0.41430000  0.45280000  0.92930000  1
  H  H56  1  0.42160000  0.13450000  0.55410000  1
  H  H57  1  0.43520000  0.14790000  0.87230000  1
  H  H58  1  0.43780000  0.55640000  0.39000000  1
  H  H59  1  0.44340000  0.83220000  0.95410000  1
  H  H60  1  0.44360000  0.43780000  0.61000000  1
  H  H61  1  0.44590000  0.80440000  0.71440000  1
  H  H62  1  0.44810000  0.27010000  0.05930000  1
  H  H63  1  0.45280000  0.58570000  0.07070000  1
  H  H64  1  0.46050000  0.75390000  0.40020000  1
  H  H65  1  0.46540000  0.14970000  0.77960000  1
  H  H66  1  0.47370000  0.63160000  0.34810000  1
  H  H67  1  0.47420000  0.31050000  0.93560000  1
  H  H68  1  0.52580000  0.68950000  0.93560000  1
  H  H69  1  0.52630000  0.36840000  0.34810000  1
  H  H70  1  0.53460000  0.85030000  0.77960000  1
  H  H71  1  0.53950000  0.24610000  0.40020000  1
  H  H72  1  0.54720000  0.41430000  0.07070000  1
  H  H73  1  0.55190000  0.72990000  0.05930000  1
  H  H74  1  0.55410000  0.19560000  0.71440000  1
  H  H75  1  0.55640000  0.56220000  0.61000000  1
  H  H76  1  0.55660000  0.16780000  0.95410000  1
  H  H77  1  0.56220000  0.44360000  0.39000000  1
  H  H78  1  0.56480000  0.85210000  0.87230000  1
  H  H79  1  0.57840000  0.86550000  0.55410000  1
  H  H80  1  0.58570000  0.54720000  0.92930000  1
  H  H81  1  0.62210000  0.25740000  0.63760000  1
  H  H82  1  0.62790000  0.63650000  0.63620000  1
  H  H83  1  0.63160000  0.52630000  0.65190000  1
  H  H84  1  0.63450000  0.92160000  0.94590000  1
  H  H85  1  0.63650000  0.37210000  0.36380000  1
  H  H86  1  0.64790000  0.93520000  0.62770000  1
  H  H87  1  0.64970000  0.96540000  0.72040000  1
  H  H88  1  0.66780000  0.05660000  0.54590000  1
  H  H89  1  0.68950000  0.47420000  0.06440000  1
  H  H90  1  0.69560000  0.05410000  0.78560000  1
  H  H91  1  0.69600000  0.80320000  0.04010000  1
  H  H92  1  0.69680000  0.80400000  0.45990000  1
  H  H93  1  0.70030000  0.29270000  0.44260000  1
  H  H94  1  0.70730000  0.70030000  0.55740000  1
  H  H95  1  0.72990000  0.44810000  0.94070000  1
  H  H96  1  0.74260000  0.62210000  0.36240000  1
  H  H97  1  0.74610000  0.03950000  0.09980000  1
  H  H98  1  0.75390000  0.53950000  0.59980000  1
  H  H99  1  0.75740000  0.12210000  0.86240000  1
  H  H100  1  0.77010000  0.94810000  0.44070000  1
  H  H101  1  0.79270000  0.20030000  0.05740000  1
  H  H102  1  0.79970000  0.79270000  0.94260000  1
  H  H103  1  0.80320000  0.30400000  0.95990000  1
  H  H104  1  0.80400000  0.30320000  0.54010000  1
  H  H105  1  0.80440000  0.55410000  0.28560000  1
  H  H106  1  0.81050000  0.97420000  0.56440000  1
  H  H107  1  0.83220000  0.55660000  0.04590000  1
  H  H108  1  0.85030000  0.46540000  0.22040000  1
  H  H109  1  0.85210000  0.43520000  0.12770000  1
  H  H110  1  0.86350000  0.87210000  0.86380000  1
  H  H111  1  0.86550000  0.42160000  0.44590000  1
  H  H112  1  0.86840000  0.02630000  0.15190000  1
  H  H113  1  0.87210000  0.13650000  0.13620000  1
  H  H114  1  0.87790000  0.75740000  0.13760000  1
  H  H115  1  0.91430000  0.04720000  0.42930000  1
  H  H116  1  0.92160000  0.36550000  0.05410000  1
  H  H117  1  0.93520000  0.35210000  0.37230000  1
  H  H118  1  0.93780000  0.94360000  0.89000000  1
  H  H119  1  0.94340000  0.66780000  0.45410000  1
  H  H120  1  0.94360000  0.06220000  0.11000000  1
  H  H121  1  0.94590000  0.69560000  0.21440000  1
  H  H122  1  0.94810000  0.22990000  0.55930000  1
  H  H123  1  0.95280000  0.91430000  0.57070000  1
  H  H124  1  0.96050000  0.74610000  0.90020000  1
  H  H125  1  0.96540000  0.35030000  0.27960000  1
  H  H126  1  0.97370000  0.86840000  0.84810000  1
  H  H127  1  0.97420000  0.18950000  0.43560000  1
  C  C128  1  0.00730000  0.95380000  0.56700000  1
  C  C129  1  0.02600000  0.31840000  0.18210000  1
  C  C130  1  0.03660000  0.82780000  0.95120000  1
  C  C131  1  0.04120000  0.18930000  0.44090000  1
  C  C132  1  0.04620000  0.00730000  0.43300000  1
  C  C133  1  0.05000000  0.64550000  0.08660000  1
  C  C134  1  0.05300000  0.19250000  0.91820000  1
  C  C135  1  0.05620000  0.62460000  0.17910000  1
  C  C136  1  0.06710000  0.28170000  0.13550000  1
  C  C137  1  0.07110000  0.12090000  0.87640000  1
  C  C138  1  0.08120000  0.60170000  0.27400000  1
  C  C139  1  0.09250000  0.27500000  0.45170000  1
  C  C140  1  0.09380000  0.60490000  0.13100000  1
  C  C141  1  0.09610000  0.10240000  0.43850000  1
  C  C142  1  0.10170000  0.58120000  0.22600000  1
  C  C143  1  0.10240000  0.90390000  0.56150000  1
  C  C144  1  0.10490000  0.59380000  0.36900000  1
  C  C145  1  0.10780000  0.80780000  0.55590000  1
  C  C146  1  0.12090000  0.92890000  0.12360000  1
  C  C147  1  0.12460000  0.55620000  0.32090000  1
  C  C148  1  0.14550000  0.55000000  0.41340000  1
  C  C149  1  0.17220000  0.03660000  0.04880000  1
  C  C150  1  0.18160000  0.47400000  0.31790000  1
  C  C151  1  0.18930000  0.95880000  0.55910000  1
  C  C152  1  0.19220000  0.10780000  0.44410000  1
  C  C153  1  0.19250000  0.94700000  0.08180000  1
  C  C154  1  0.19550000  0.76380000  0.54510000  1
  C  C155  1  0.21830000  0.43290000  0.36450000  1
  C  C156  1  0.22500000  0.40750000  0.04830000  1
  C  C157  1  0.23620000  0.19550000  0.45490000  1
  C  C158  1  0.26380000  0.69550000  0.95490000  1
  C  C159  1  0.27500000  0.90750000  0.54830000  1
  C  C160  1  0.28170000  0.93290000  0.86450000  1
  C  C161  1  0.30450000  0.26380000  0.04510000  1
  C  C162  1  0.30750000  0.44700000  0.58180000  1
  C  C163  1  0.30780000  0.60780000  0.94410000  1
  C  C164  1  0.31070000  0.45880000  0.05910000  1
  C  C165  1  0.31840000  0.97400000  0.81790000  1
  C  C166  1  0.32780000  0.53660000  0.54880000  1
  C  C167  1  0.35450000  0.05000000  0.91340000  1
  C  C168  1  0.37540000  0.05620000  0.82090000  1
  C  C169  1  0.37910000  0.42890000  0.62360000  1
  C  C170  1  0.39220000  0.30780000  0.05590000  1
  C  C171  1  0.39510000  0.09380000  0.86900000  1
  C  C172  1  0.39760000  0.40390000  0.06150000  1
  C  C173  1  0.39830000  0.08120000  0.72600000  1
  C  C174  1  0.40390000  0.60240000  0.93850000  1
  C  C175  1  0.40620000  0.10490000  0.63100000  1
  C  C176  1  0.40750000  0.77500000  0.95170000  1
  C  C177  1  0.41880000  0.10170000  0.77400000  1
  C  C178  1  0.42890000  0.62090000  0.37640000  1
  C  C179  1  0.43290000  0.78170000  0.63550000  1
  C  C180  1  0.44380000  0.12460000  0.67910000  1
  C  C181  1  0.44700000  0.69250000  0.41820000  1
  C  C182  1  0.45000000  0.14550000  0.58660000  1
  C  C183  1  0.45380000  0.50730000  0.93300000  1
  C  C184  1  0.45880000  0.68930000  0.94090000  1
  C  C185  1  0.46340000  0.32780000  0.45120000  1
  C  C186  1  0.47400000  0.81840000  0.68210000  1
  C  C187  1  0.49270000  0.45380000  0.06700000  1
  C  C188  1  0.50730000  0.54620000  0.06700000  1
  C  C189  1  0.52600000  0.18160000  0.68210000  1
  C  C190  1  0.53660000  0.67220000  0.45120000  1
  C  C191  1  0.54120000  0.31070000  0.94090000  1
  C  C192  1  0.54620000  0.49270000  0.93300000  1
  C  C193  1  0.55000000  0.85450000  0.58660000  1
  C  C194  1  0.55300000  0.30750000  0.41820000  1
  C  C195  1  0.55620000  0.87540000  0.67910000  1
  C  C196  1  0.56710000  0.21830000  0.63550000  1
  C  C197  1  0.57110000  0.37910000  0.37640000  1
  C  C198  1  0.58120000  0.89830000  0.77400000  1
  C  C199  1  0.59250000  0.22500000  0.95170000  1
  C  C200  1  0.59380000  0.89510000  0.63100000  1
  C  C201  1  0.59610000  0.39760000  0.93850000  1
  C  C202  1  0.60170000  0.91880000  0.72600000  1
  C  C203  1  0.60240000  0.59610000  0.06150000  1
  C  C204  1  0.60490000  0.90620000  0.86900000  1
  C  C205  1  0.60780000  0.69220000  0.05590000  1
  C  C206  1  0.62090000  0.57110000  0.62360000  1
  C  C207  1  0.62460000  0.94380000  0.82090000  1
  C  C208  1  0.64550000  0.95000000  0.91340000  1
  C  C209  1  0.67220000  0.46340000  0.54880000  1
  C  C210  1  0.68160000  0.02600000  0.81790000  1
  C  C211  1  0.68930000  0.54120000  0.05910000  1
  C  C212  1  0.69220000  0.39220000  0.94410000  1
  C  C213  1  0.69250000  0.55300000  0.58180000  1
  C  C214  1  0.69550000  0.73620000  0.04510000  1
  C  C215  1  0.71830000  0.06710000  0.86450000  1
  C  C216  1  0.72500000  0.09250000  0.54830000  1
  C  C217  1  0.73620000  0.30450000  0.95490000  1
  C  C218  1  0.76380000  0.80450000  0.45490000  1
  C  C219  1  0.77500000  0.59250000  0.04830000  1
  C  C220  1  0.78170000  0.56710000  0.36450000  1
  C  C221  1  0.80450000  0.23620000  0.54510000  1
  C  C222  1  0.80750000  0.05300000  0.08180000  1
  C  C223  1  0.80780000  0.89220000  0.44410000  1
  C  C224  1  0.81070000  0.04120000  0.55910000  1
  C  C225  1  0.81840000  0.52600000  0.31790000  1
  C  C226  1  0.82780000  0.96340000  0.04880000  1
  C  C227  1  0.85450000  0.45000000  0.41340000  1
  C  C228  1  0.87540000  0.44380000  0.32090000  1
  C  C229  1  0.87910000  0.07110000  0.12360000  1
  C  C230  1  0.89220000  0.19220000  0.55590000  1
  C  C231  1  0.89510000  0.40620000  0.36900000  1
  C  C232  1  0.89760000  0.09610000  0.56150000  1
  C  C233  1  0.89830000  0.41880000  0.22600000  1
  C  C234  1  0.90390000  0.89760000  0.43850000  1
  C  C235  1  0.90620000  0.39510000  0.13100000  1
  C  C236  1  0.90750000  0.72500000  0.45170000  1
  C  C237  1  0.91880000  0.39830000  0.27400000  1
  C  C238  1  0.92890000  0.87910000  0.87640000  1
  C  C239  1  0.93290000  0.71830000  0.13550000  1
  C  C240  1  0.94380000  0.37540000  0.17910000  1
  C  C241  1  0.94700000  0.80750000  0.91820000  1
  C  C242  1  0.95000000  0.35450000  0.08660000  1
  C  C243  1  0.95380000  0.99270000  0.43300000  1
  C  C244  1  0.95880000  0.81070000  0.44090000  1
  C  C245  1  0.96340000  0.17220000  0.95120000  1
  C  C246  1  0.97400000  0.68160000  0.18210000  1
  C  C247  1  0.99270000  0.04620000  0.56700000  1
  N  N248  1  0.02960000  0.30130000  0.08880000  1
  N  N249  1  0.13770000  0.21240000  0.95250000  1
  N  N250  1  0.18740000  0.28150000  0.45880000  1
  N  N251  1  0.19870000  0.47040000  0.41120000  1
  N  N252  1  0.21240000  0.86230000  0.04750000  1
  N  N253  1  0.21850000  0.31260000  0.04120000  1
  N  N254  1  0.28150000  0.81260000  0.54120000  1
  N  N255  1  0.28760000  0.36230000  0.54750000  1
  N  N256  1  0.30130000  0.97040000  0.91120000  1
  N  N257  1  0.31260000  0.78150000  0.95880000  1
  N  N258  1  0.36230000  0.71240000  0.45250000  1
  N  N259  1  0.47040000  0.80130000  0.58880000  1
  N  N260  1  0.52960000  0.19870000  0.58880000  1
  N  N261  1  0.63770000  0.28760000  0.45250000  1
  N  N262  1  0.68740000  0.21850000  0.95880000  1
  N  N263  1  0.69870000  0.02960000  0.91120000  1
  N  N264  1  0.71240000  0.63770000  0.54750000  1
  N  N265  1  0.71850000  0.18740000  0.54120000  1
  N  N266  1  0.78150000  0.68740000  0.04120000  1
  N  N267  1  0.78760000  0.13770000  0.04750000  1
  N  N268  1  0.80130000  0.52960000  0.41120000  1
  N  N269  1  0.81260000  0.71850000  0.45880000  1
  N  N270  1  0.86230000  0.78760000  0.95250000  1
  N  N271  1  0.97040000  0.69870000  0.08880000  1
  O  O272  1  0.03090000  0.79820000  0.99991000  1
  O  O273  1  0.10930000  0.86350000  0.93226000  1
  O  O274  1  0.13650000  0.10930000  0.06774000  1
  O  O275  1  0.20180000  0.03090000  0.00009000  1
  O  O276  1  0.29820000  0.53090000  0.50009000  1
  O  O277  1  0.36350000  0.60930000  0.56774000  1
  O  O278  1  0.39070000  0.36350000  0.43226000  1
  O  O279  1  0.46910000  0.29820000  0.49991000  1
  O  O280  1  0.53090000  0.70180000  0.49991000  1
  O  O281  1  0.60930000  0.63650000  0.43226000  1
  O  O282  1  0.63650000  0.39070000  0.56774000  1
  O  O283  1  0.70180000  0.46910000  0.50009000  1
  O  O284  1  0.79820000  0.96910000  0.00009000  1
  O  O285  1  0.86350000  0.89070000  0.06774000  1
  O  O286  1  0.89070000  0.13650000  0.93226000  1
  O  O287  1  0.96910000  0.20180000  0.99991000  1
