# generated using pymatgen
data_Al3P3HO13
_symmetry_space_group_name_H-M   'P 1'
_cell_length_a   8.68680000
_cell_length_b   9.15890000
_cell_length_c   17.42800000
_cell_angle_alpha   90.00000000
_cell_angle_beta   90.00000000
_cell_angle_gamma   109.60400000
_symmetry_Int_Tables_number   1
_chemical_formula_structural   Al3P3HO13
_chemical_formula_sum   'Al12 P12 H4 O52'
_cell_volume   1306.22287031
_cell_formula_units_Z   4
loop_
 _symmetry_equiv_pos_site_id
 _symmetry_equiv_pos_as_xyz
  1  'x, y, z'
loop_
 _atom_site_type_symbol
 _atom_site_label
 _atom_site_symmetry_multiplicity
 _atom_site_fract_x
 _atom_site_fract_y
 _atom_site_fract_z
 _atom_site_occupancy
  Al  Al0  1  0.99030000  0.81030000  0.66886000  1
  Al  Al1  1  0.93534000  0.20270000  0.79598000  1
  Al  Al2  1  0.86173000  0.33616000  0.61132000  1
  Al  Al3  1  0.63827000  0.16384000  0.11132000  1
  Al  Al4  1  0.56466000  0.29730000  0.29598000  1
  Al  Al5  1  0.50970000  0.68970000  0.16886000  1
  Al  Al6  1  0.49030000  0.31030000  0.83114000  1
  Al  Al7  1  0.43534000  0.70270000  0.70402000  1
  Al  Al8  1  0.36173000  0.83616000  0.88868000  1
  Al  Al9  1  0.13827000  0.66384000  0.38868000  1
  Al  Al10  1  0.06466000  0.79730000  0.20402000  1
  Al  Al11  1  0.00970000  0.18970000  0.33114000  1
  P  P12  1  0.84018000  0.36820000  0.42960000  1
  P  P13  1  0.79627000  0.97278000  0.21168000  1
  P  P14  1  0.75208000  0.99490000  0.66231000  1
  P  P15  1  0.74792000  0.50510000  0.16231000  1
  P  P16  1  0.70373000  0.52722000  0.71168000  1
  P  P17  1  0.65982000  0.13180000  0.92960000  1
  P  P18  1  0.34018000  0.86820000  0.07040000  1
  P  P19  1  0.29627000  0.47278000  0.28832000  1
  P  P20  1  0.25208000  0.49490000  0.83769000  1
  P  P21  1  0.24792000  0.00510000  0.33769000  1
  P  P22  1  0.20373000  0.02722000  0.78832000  1
  P  P23  1  0.15982000  0.63180000  0.57040000  1
  H  H24  1  0.95000000  0.60200000  0.28800000  1
  H  H25  1  0.55000000  0.89800000  0.78800000  1
  H  H26  1  0.45000000  0.10200000  0.21200000  1
  H  H27  1  0.05000000  0.39800000  0.71200000  1
  O  O28  1  0.95800000  0.32120000  0.70990000  1
  O  O29  1  0.94680000  0.26800000  0.41110000  1
  O  O30  1  0.94060000  0.53760000  0.41680000  1
  O  O31  1  0.93290000  0.91070000  0.19450000  1
  O  O32  1  0.91490000  0.62780000  0.15096000  1
  O  O33  1  0.88270000  0.92680000  0.63720000  1
  O  O34  1  0.86470000  0.66210000  0.72670000  1
  O  O35  1  0.83570000  0.07450000  0.28363000  1
  O  O36  1  0.80990000  0.18050000  0.87890000  1
  O  O37  1  0.78060000  0.34000000  0.51181000  1
  O  O38  1  0.77410000  0.06810000  0.14380000  1
  O  O39  1  0.77330000  0.04470000  0.74624000  1
  O  O40  1  0.76670000  0.13020000  0.60926000  1
  O  O41  1  0.73330000  0.36980000  0.10926000  1
  O  O42  1  0.72670000  0.45530000  0.24624000  1
  O  O43  1  0.72590000  0.43190000  0.64380000  1
  O  O44  1  0.71940000  0.16000000  0.01181000  1
  O  O45  1  0.69010000  0.31950000  0.37890000  1
  O  O46  1  0.66430000  0.42550000  0.78363000  1
  O  O47  1  0.63530000  0.83790000  0.22670000  1
  O  O48  1  0.61730000  0.57320000  0.13720000  1
  O  O49  1  0.58510000  0.87220000  0.65096000  1
  O  O50  1  0.56710000  0.58930000  0.69450000  1
  O  O51  1  0.55940000  0.96240000  0.91680000  1
  O  O52  1  0.55320000  0.23200000  0.91110000  1
  O  O53  1  0.54200000  0.17880000  0.20990000  1
  O  O54  1  0.45800000  0.82120000  0.79010000  1
  O  O55  1  0.44680000  0.76800000  0.08890000  1
  O  O56  1  0.44060000  0.03760000  0.08320000  1
  O  O57  1  0.43290000  0.41070000  0.30550000  1
  O  O58  1  0.41490000  0.12780000  0.34904000  1
  O  O59  1  0.38270000  0.42680000  0.86280000  1
  O  O60  1  0.36470000  0.16210000  0.77330000  1
  O  O61  1  0.33570000  0.57450000  0.21637000  1
  O  O62  1  0.30990000  0.68050000  0.62110000  1
  O  O63  1  0.28060000  0.84000000  0.98819000  1
  O  O64  1  0.27410000  0.56810000  0.35620000  1
  O  O65  1  0.27330000  0.54470000  0.75376000  1
  O  O66  1  0.26670000  0.63020000  0.89074000  1
  O  O67  1  0.23330000  0.86980000  0.39074000  1
  O  O68  1  0.22670000  0.95530000  0.25376000  1
  O  O69  1  0.22590000  0.93190000  0.85620000  1
  O  O70  1  0.21940000  0.66000000  0.48819000  1
  O  O71  1  0.19010000  0.81950000  0.12110000  1
  O  O72  1  0.16430000  0.92550000  0.71637000  1
  O  O73  1  0.13530000  0.33790000  0.27330000  1
  O  O74  1  0.11730000  0.07320000  0.36280000  1
  O  O75  1  0.08510000  0.37220000  0.84904000  1
  O  O76  1  0.06710000  0.08930000  0.80550000  1
  O  O77  1  0.05940000  0.46240000  0.58320000  1
  O  O78  1  0.05320000  0.73200000  0.58890000  1
  O  O79  1  0.04200000  0.67880000  0.29010000  1
