# generated using pymatgen
data_Y4H18C57(O4F3)6
_symmetry_space_group_name_H-M   'P 1'
_cell_length_a   8.09540000
_cell_length_b   21.25900000
_cell_length_c   22.81490000
_cell_angle_alpha   82.52000000
_cell_angle_beta   82.39400000
_cell_angle_gamma   79.97200000
_symmetry_Int_Tables_number   1
_chemical_formula_structural   Y4H18C57(O4F3)6
_chemical_formula_sum   'Y8 H36 C114 O48 F36'
_cell_volume   3809.28800979
_cell_formula_units_Z   2
loop_
 _symmetry_equiv_pos_site_id
 _symmetry_equiv_pos_as_xyz
  1  'x, y, z'
loop_
 _atom_site_type_symbol
 _atom_site_label
 _atom_site_symmetry_multiplicity
 _atom_site_fract_x
 _atom_site_fract_y
 _atom_site_fract_z
 _atom_site_occupancy
  Y  Y0  1  0.19793000  0.57540000  0.71600000  1
  Y  Y1  1  0.23957000  0.09340000  0.03635000  1
  Y  Y2  1  0.38643000  0.47118000  0.43309000  1
  Y  Y3  1  0.46433000  0.24909000  0.09561000  1
  Y  Y4  1  0.53567000  0.75091000  0.90439000  1
  Y  Y5  1  0.61357000  0.52882000  0.56691000  1
  Y  Y6  1  0.76043000  0.90660000  0.96365000  1
  Y  Y7  1  0.80207000  0.42460000  0.28400000  1
  H  H8  1  0.01810000  0.68910000  0.39030000  1
  H  H9  1  0.02020000  0.72940000  0.58410000  1
  H  H10  1  0.03160000  0.25210000  0.84870000  1
  H  H11  1  0.03260000  0.07290000  0.21490000  1
  H  H12  1  0.10120000  0.08790000  0.74680000  1
  H  H13  1  0.13750000  0.21720000  0.57740000  1
  H  H14  1  0.15560000  0.11440000  0.83630000  1
  H  H15  1  0.22590000  0.75440000  0.68590000  1
  H  H16  1  0.23230000  0.25370000  0.76700000  1
  H  H17  1  0.23690000  0.13730000  0.35150000  1
  H  H18  1  0.28140000  0.85600000  0.64950000  1
  H  H19  1  0.33660000  0.18640000  0.26030000  1
  H  H20  1  0.33880000  0.28230000  0.43070000  1
  H  H21  1  0.35080000  0.91030000  0.78320000  1
  H  H22  1  0.40260000  0.76940000  0.12550000  1
  H  H23  1  0.44080000  0.35410000  0.74660000  1
  H  H24  1  0.44310000  0.78580000  0.36060000  1
  H  H25  1  0.46660000  0.28550000  0.56210000  1
  H  H26  1  0.53340000  0.71450000  0.43790000  1
  H  H27  1  0.55690000  0.21420000  0.63940000  1
  H  H28  1  0.55920000  0.64590000  0.25340000  1
  H  H29  1  0.59740000  0.23060000  0.87450000  1
  H  H30  1  0.64920000  0.08970000  0.21680000  1
  H  H31  1  0.66120000  0.71770000  0.56930000  1
  H  H32  1  0.66340000  0.81360000  0.73970000  1
  H  H33  1  0.71860000  0.14400000  0.35050000  1
  H  H34  1  0.76310000  0.86270000  0.64850000  1
  H  H35  1  0.76770000  0.74630000  0.23300000  1
  H  H36  1  0.77410000  0.24560000  0.31410000  1
  H  H37  1  0.84440000  0.88560000  0.16370000  1
  H  H38  1  0.86250000  0.78280000  0.42260000  1
  H  H39  1  0.89880000  0.91210000  0.25320000  1
  H  H40  1  0.96740000  0.92710000  0.78510000  1
  H  H41  1  0.96840000  0.74790000  0.15130000  1
  H  H42  1  0.97980000  0.27060000  0.41590000  1
  H  H43  1  0.98190000  0.31090000  0.60970000  1
  C  C44  1  0.01300000  0.16835000  0.21258000  1
  C  C45  1  0.01600000  0.69671000  0.42964000  1
  C  C46  1  0.01730000  0.72076000  0.54535000  1
  C  C47  1  0.01790000  0.01324000  0.67357000  1
  C  C48  1  0.02170000  0.89222000  0.76555000  1
  C  C49  1  0.05860000  0.22651000  0.96297000  1
  C  C50  1  0.06990000  0.71006000  0.78700000  1
  C  C51  1  0.07150000  0.77805000  0.75899000  1
  C  C52  1  0.07830000  0.24705000  0.55103000  1
  C  C53  1  0.08340000  0.23576000  0.49174000  1
  C  C54  1  0.09160000  0.12664000  0.46294000  1
  C  C55  1  0.10670000  0.65180000  0.46790000  1
  C  C56  1  0.11270000  0.66536000  0.52598000  1
  C  C57  1  0.13560000  0.90286000  0.71501000  1
  C  C58  1  0.14520000  0.17311000  0.15982000  1
  C  C59  1  0.14550000  0.24600000  0.85402000  1
  C  C60  1  0.16050000  0.05704000  0.77232000  1
  C  C61  1  0.17410000  0.97165000  0.69945000  1
  C  C62  1  0.17640000  0.78902000  0.70668000  1
  C  C63  1  0.18050000  0.58729000  0.45009000  1
  C  C64  1  0.19370000  0.23560000  0.91148000  1
  C  C65  1  0.19410000  0.07296000  0.82604000  1
  C  C66  1  0.19860000  0.17963000  0.46351000  1
  C  C67  1  0.20990000  0.85018000  0.68447000  1
  C  C68  1  0.21460000  0.99526000  0.75628000  1
  C  C69  1  0.21830000  0.62159000  0.56921000  1
  C  C70  1  0.25760000  0.75557000  0.23478000  1
  C  C71  1  0.26600000  0.24725000  0.80500000  1
  C  C72  1  0.27240000  0.20541000  0.40102000  1
  C  C73  1  0.27490000  0.17648000  0.34933000  1
  C  C74  1  0.28330000  0.04590000  0.92646000  1
  C  C75  1  0.28340000  0.02862000  0.86464000  1
  C  C76  1  0.30940000  0.95123000  0.79424000  1
  C  C77  1  0.32900000  0.97736000  0.65297000  1
  C  C78  1  0.33450000  0.20635000  0.29442000  1
  C  C79  1  0.33630000  0.26337000  0.39636000  1
  C  C80  1  0.34450000  0.96660000  0.84868000  1
  C  C81  1  0.34600000  0.45392000  0.67362000  1
  C  C82  1  0.34960000  0.15049000  0.49878000  1
  C  C83  1  0.36270000  0.23141000  0.91858000  1
  C  C84  1  0.38000000  0.40870000  0.55025000  1
  C  C85  1  0.39050000  0.26496000  0.28947000  1
  C  C86  1  0.39530000  0.29278000  0.34206000  1
  C  C87  1  0.40760000  0.38562000  0.66123000  1
  C  C88  1  0.41560000  0.36442000  0.60504000  1
  C  C89  1  0.41570000  0.84134000  0.25399000  1
  C  C90  1  0.41700000  0.22774000  0.97921000  1
  C  C91  1  0.42460000  0.30184000  0.22914000  1
  C  C92  1  0.43210000  0.91475000  0.88947000  1
  C  C93  1  0.43380000  0.76889000  0.24398000  1
  C  C94  1  0.43700000  0.23903000  0.81197000  1
  C  C95  1  0.45090000  0.34069000  0.70895000  1
  C  C96  1  0.46660000  0.29990000  0.59883000  1
  C  C97  1  0.46680000  0.35392000  0.34109000  1
  C  C98  1  0.48320000  0.74318000  0.35456000  1
  C  C99  1  0.48440000  0.23322000  0.86921000  1
  C  C100  1  0.49120000  0.72384000  0.29796000  1
  C  C101  1  0.50880000  0.27616000  0.70204000  1
  C  C102  1  0.51560000  0.76678000  0.13079000  1
  C  C103  1  0.51680000  0.25682000  0.64544000  1
  C  C104  1  0.53320000  0.64608000  0.65891000  1
  C  C105  1  0.53340000  0.70010000  0.40117000  1
  C  C106  1  0.54910000  0.65931000  0.29105000  1
  C  C107  1  0.56300000  0.76097000  0.18803000  1
  C  C108  1  0.56620000  0.23111000  0.75602000  1
  C  C109  1  0.56790000  0.08525000  0.11053000  1
  C  C110  1  0.57540000  0.69816000  0.77086000  1
  C  C111  1  0.58300000  0.77226000  0.02079000  1
  C  C112  1  0.58430000  0.15866000  0.74601000  1
  C  C113  1  0.58440000  0.63558000  0.39496000  1
  C  C114  1  0.59240000  0.61438000  0.33877000  1
  C  C115  1  0.60470000  0.70722000  0.65794000  1
  C  C116  1  0.60950000  0.73504000  0.71053000  1
  C  C117  1  0.62000000  0.59130000  0.44975000  1
  C  C118  1  0.63730000  0.76859000  0.08142000  1
  C  C119  1  0.65040000  0.84951000  0.50122000  1
  C  C120  1  0.65400000  0.54608000  0.32638000  1
  C  C121  1  0.65550000  0.03340000  0.15132000  1
  C  C122  1  0.66370000  0.73663000  0.60364000  1
  C  C123  1  0.66550000  0.79365000  0.70558000  1
  C  C124  1  0.67100000  0.02264000  0.34703000  1
  C  C125  1  0.69060000  0.04877000  0.20576000  1
  C  C126  1  0.71660000  0.97138000  0.13536000  1
  C  C127  1  0.71670000  0.95410000  0.07354000  1
  C  C128  1  0.72510000  0.82352000  0.65067000  1
  C  C129  1  0.72760000  0.79459000  0.59898000  1
  C  C130  1  0.73400000  0.75275000  0.19500000  1
  C  C131  1  0.74240000  0.24443000  0.76522000  1
  C  C132  1  0.78170000  0.37841000  0.43079000  1
  C  C133  1  0.78540000  0.00474000  0.24372000  1
  C  C134  1  0.79010000  0.14982000  0.31553000  1
  C  C135  1  0.80140000  0.82037000  0.53649000  1
  C  C136  1  0.80590000  0.92704000  0.17396000  1
  C  C137  1  0.80630000  0.76440000  0.08852000  1
  C  C138  1  0.81950000  0.41271000  0.54991000  1
  C  C139  1  0.82360000  0.21098000  0.29332000  1
  C  C140  1  0.82590000  0.02835000  0.30055000  1
  C  C141  1  0.83950000  0.94296000  0.22768000  1
  C  C142  1  0.85450000  0.75400000  0.14598000  1
  C  C143  1  0.85480000  0.82689000  0.84018000  1
  C  C144  1  0.86440000  0.09714000  0.28499000  1
  C  C145  1  0.88730000  0.33464000  0.47402000  1
  C  C146  1  0.89330000  0.34820000  0.53210000  1
  C  C147  1  0.90840000  0.87336000  0.53706000  1
  C  C148  1  0.91660000  0.76424000  0.50826000  1
  C  C149  1  0.92170000  0.75295000  0.44897000  1
  C  C150  1  0.92850000  0.22195000  0.24101000  1
  C  C151  1  0.93010000  0.28994000  0.21300000  1
  C  C152  1  0.94140000  0.77349000  0.03703000  1
  C  C153  1  0.97830000  0.10778000  0.23445000  1
  C  C154  1  0.98210000  0.98676000  0.32643000  1
  C  C155  1  0.98270000  0.27924000  0.45465000  1
  C  C156  1  0.98400000  0.30329000  0.57036000  1
  C  C157  1  0.98700000  0.83165000  0.78742000  1
  O  O158  1  0.04650000  0.72685000  0.02234000  1
  O  O159  1  0.05630000  0.16901000  0.98636000  1
  O  O160  1  0.06860000  0.66745000  0.75355000  1
  O  O161  1  0.07930000  0.69921000  0.84245000  1
  O  O162  1  0.14280000  0.60695000  0.62081000  1
  O  O163  1  0.15970000  0.13119000  0.12429000  1
  O  O164  1  0.16560000  0.03035000  0.96461000  1
  O  O165  1  0.17390000  0.53946000  0.48996000  1
  O  O166  1  0.20520000  0.46508000  0.70473000  1
  O  O167  1  0.23610000  0.21498000  0.15628000  1
  O  O168  1  0.25050000  0.57942000  0.39787000  1
  O  O169  1  0.30730000  0.39131000  0.51134000  1
  O  O170  1  0.35070000  0.19304000  0.02259000  1
  O  O171  1  0.36990000  0.60373000  0.55298000  1
  O  O172  1  0.37160000  0.36114000  0.22423000  1
  O  O173  1  0.37910000  0.39708000  0.36930000  1
  O  O174  1  0.38750000  0.07877000  0.93875000  1
  O  O175  1  0.38830000  0.64439000  0.68620000  1
  O  O176  1  0.43070000  0.49879000  0.65672000  1
  O  O177  1  0.43590000  0.46191000  0.54196000  1
  O  O178  1  0.44020000  0.85792000  0.87935000  1
  O  O179  1  0.47810000  0.73791000  0.01180000  1
  O  O180  1  0.49060000  0.93228000  0.93331000  1
  O  O181  1  0.49780000  0.27081000  0.18704000  1
  O  O182  1  0.50220000  0.72919000  0.81296000  1
  O  O183  1  0.50940000  0.06772000  0.06669000  1
  O  O184  1  0.52190000  0.26209000  0.98820000  1
  O  O185  1  0.55980000  0.14208000  0.12065000  1
  O  O186  1  0.56410000  0.53809000  0.45804000  1
  O  O187  1  0.56930000  0.50121000  0.34328000  1
  O  O188  1  0.61170000  0.35561000  0.31380000  1
  O  O189  1  0.61250000  0.92123000  0.06125000  1
  O  O190  1  0.62090000  0.60292000  0.63070000  1
  O  O191  1  0.62840000  0.63886000  0.77577000  1
  O  O192  1  0.63010000  0.39627000  0.44702000  1
  O  O193  1  0.64930000  0.80696000  0.97741000  1
  O  O194  1  0.69270000  0.60869000  0.48866000  1
  O  O195  1  0.74950000  0.42058000  0.60213000  1
  O  O196  1  0.76390000  0.78502000  0.84372000  1
  O  O197  1  0.79480000  0.53492000  0.29527000  1
  O  O198  1  0.82610000  0.46054000  0.51004000  1
  O  O199  1  0.83440000  0.96965000  0.03539000  1
  O  O200  1  0.84030000  0.86881000  0.87571000  1
  O  O201  1  0.85720000  0.39305000  0.37919000  1
  O  O202  1  0.92070000  0.30079000  0.15755000  1
  O  O203  1  0.93140000  0.33255000  0.24645000  1
  O  O204  1  0.94370000  0.83099000  0.01364000  1
  O  O205  1  0.95350000  0.27315000  0.97766000  1
  F  F206  1  0.01050000  0.11249000  0.51656000  1
  F  F207  1  0.02690000  0.85422000  0.57427000  1
  F  F208  1  0.03050000  0.01432000  0.36890000  1
  F  F209  1  0.04440000  0.07237000  0.65043000  1
  F  F210  1  0.11290000  0.97973000  0.28402000  1
  F  F211  1  0.15710000  0.75166000  0.28639000  1
  F  F212  1  0.17460000  0.80169000  0.19822000  1
  F  F213  1  0.18280000  0.07203000  0.44591000  1
  F  F214  1  0.26880000  0.70045000  0.21171000  1
  F  F215  1  0.28620000  0.85767000  0.29536000  1
  F  F216  1  0.30350000  0.96723000  0.59856000  1
  F  F217  1  0.30500000  0.11863000  0.55104000  1
  F  F218  1  0.37530000  0.03535000  0.64840000  1
  F  F219  1  0.38880000  0.87998000  0.20452000  1
  F  F220  1  0.43250000  0.19634000  0.51006000  1
  F  F221  1  0.44540000  0.14664000  0.72725000  1
  F  F222  1  0.46200000  0.10964000  0.46802000  1
  F  F223  1  0.46300000  0.93449000  0.66882000  1
  F  F224  1  0.53700000  0.06551000  0.33118000  1
  F  F225  1  0.53800000  0.89036000  0.53198000  1
  F  F226  1  0.55460000  0.85336000  0.27275000  1
  F  F227  1  0.56750000  0.80366000  0.48994000  1
  F  F228  1  0.61120000  0.12002000  0.79548000  1
  F  F229  1  0.62470000  0.96465000  0.35160000  1
  F  F230  1  0.69500000  0.88137000  0.44896000  1
  F  F231  1  0.69650000  0.03277000  0.40144000  1
  F  F232  1  0.71380000  0.14233000  0.70464000  1
  F  F233  1  0.73120000  0.29955000  0.78829000  1
  F  F234  1  0.81720000  0.92797000  0.55409000  1
  F  F235  1  0.82540000  0.19831000  0.80178000  1
  F  F236  1  0.84290000  0.24834000  0.71361000  1
  F  F237  1  0.88710000  0.02027000  0.71598000  1
  F  F238  1  0.95560000  0.92763000  0.34957000  1
  F  F239  1  0.96950000  0.98568000  0.63110000  1
  F  F240  1  0.97310000  0.14578000  0.42573000  1
  F  F241  1  0.98950000  0.88751000  0.48344000  1
