# generated using pymatgen
data_Co3P4H14C10(N2O7)2
_symmetry_space_group_name_H-M   'P 1'
_cell_length_a   5.06960000
_cell_length_b   9.60810000
_cell_length_c   12.53280000
_cell_angle_alpha   89.12000000
_cell_angle_beta   85.50800000
_cell_angle_gamma   76.86200000
_symmetry_Int_Tables_number   1
_chemical_formula_structural   Co3P4H14C10(N2O7)2
_chemical_formula_sum   'Co3 P4 H14 C10 N4 O14'
_cell_volume   592.65638799
_cell_formula_units_Z   1
loop_
 _symmetry_equiv_pos_site_id
 _symmetry_equiv_pos_as_xyz
  1  'x, y, z'
loop_
 _atom_site_type_symbol
 _atom_site_label
 _atom_site_symmetry_multiplicity
 _atom_site_fract_x
 _atom_site_fract_y
 _atom_site_fract_z
 _atom_site_occupancy
  Co  Co0  1  0.16618000  0.89367000  0.40345000  1
  Co  Co1  1  0.50000000  0.00000000  0.00000000  1
  Co  Co2  1  0.83382000  0.10633000  0.59655000  1
  P  P3  1  0.31620000  0.21348000  0.44277000  1
  P  P4  1  0.37740000  0.96745000  0.74681000  1
  P  P5  1  0.62260000  0.03255000  0.25319000  1
  P  P6  1  0.68380000  0.78652000  0.55723000  1
  H  H7  1  0.01830000  0.47770000  0.17310000  1
  H  H8  1  0.05420000  0.37590000  0.52040000  1
  H  H9  1  0.07410000  0.15040000  0.26700000  1
  H  H10  1  0.15880000  0.27970000  0.75750000  1
  H  H11  1  0.32010000  0.67190000  0.71090000  1
  H  H12  1  0.43570000  0.68440000  0.82160000  1
  H  H13  1  0.48100000  0.43410000  0.62460000  1
  H  H14  1  0.51900000  0.56590000  0.37540000  1
  H  H15  1  0.56430000  0.31560000  0.17840000  1
  H  H16  1  0.67990000  0.32810000  0.28910000  1
  H  H17  1  0.84120000  0.72030000  0.24250000  1
  H  H18  1  0.92590000  0.84960000  0.73300000  1
  H  H19  1  0.94580000  0.62410000  0.47960000  1
  H  H20  1  0.98170000  0.52230000  0.82690000  1
  C  C21  1  0.00030000  0.65860000  0.26110000  1
  C  C22  1  0.09620000  0.52460000  0.22220000  1
  C  C23  1  0.37090000  0.57480000  0.33440000  1
  C  C24  1  0.39420000  0.20570000  0.29720000  1
  C  C25  1  0.48520000  0.66990000  0.74560000  1
  C  C26  1  0.51480000  0.33010000  0.25440000  1
  C  C27  1  0.60580000  0.79430000  0.70280000  1
  C  C28  1  0.62910000  0.42520000  0.66560000  1
  C  C29  1  0.90380000  0.47540000  0.77780000  1
  C  C30  1  0.99970000  0.34140000  0.73890000  1
  N  N31  1  0.17150000  0.69070000  0.33220000  1
  N  N32  1  0.33290000  0.47220000  0.27050000  1
  N  N33  1  0.66710000  0.52780000  0.72950000  1
  N  N34  1  0.82850000  0.30930000  0.66780000  1
  O  O35  1  0.10330000  0.36190000  0.45680000  1
  O  O36  1  0.11430000  0.98490000  0.69370000  1
  O  O37  1  0.14620000  0.21470000  0.24510000  1
  O  O38  1  0.17230000  0.09670000  0.47640000  1
  O  O39  1  0.32420000  0.95620000  0.86750000  1
  O  O40  1  0.43140000  0.78010000  0.50590000  1
  O  O41  1  0.46190000  0.92110000  0.28330000  1
  O  O42  1  0.53810000  0.07890000  0.71670000  1
  O  O43  1  0.56860000  0.21990000  0.49410000  1
  O  O44  1  0.67580000  0.04380000  0.13250000  1
  O  O45  1  0.82770000  0.90330000  0.52360000  1
  O  O46  1  0.85380000  0.78530000  0.75490000  1
  O  O47  1  0.88570000  0.01510000  0.30630000  1
  O  O48  1  0.89670000  0.63810000  0.54320000  1
