# generated using pymatgen
data_In3Co2H18C30N9O13
_symmetry_space_group_name_H-M   'P 1'
_cell_length_a   13.90500000
_cell_length_b   13.90500000
_cell_length_c   18.46630000
_cell_angle_alpha   90.00000000
_cell_angle_beta   90.00000000
_cell_angle_gamma   120.00000000
_symmetry_Int_Tables_number   1
_chemical_formula_structural   In3Co2H18C30N9O13
_chemical_formula_sum   'In6 Co4 H36 C60 N18 O26'
_cell_volume   3092.09269563
_cell_formula_units_Z   2
loop_
 _symmetry_equiv_pos_site_id
 _symmetry_equiv_pos_as_xyz
  1  'x, y, z'
loop_
 _atom_site_type_symbol
 _atom_site_label
 _atom_site_symmetry_multiplicity
 _atom_site_fract_x
 _atom_site_fract_y
 _atom_site_fract_z
 _atom_site_occupancy
  In  In0  1  0.75095000  0.24905000  0.25000000  1
  In  In1  1  0.75095000  0.50190000  0.25000000  1
  In  In2  1  0.50190000  0.75095000  0.75000000  1
  In  In3  1  0.49810000  0.24905000  0.25000000  1
  In  In4  1  0.24905000  0.49810000  0.75000000  1
  In  In5  1  0.24905000  0.75095000  0.75000000  1
  Co  Co6  1  0.00000000  0.00000000  0.85738000  1
  Co  Co7  1  0.00000000  0.00000000  0.64262000  1
  Co  Co8  1  0.00000000  0.00000000  0.35738000  1
  Co  Co9  1  0.00000000  0.00000000  0.14262000  1
  H  H10  1  0.95490000  0.33450000  0.44480000  1
  H  H11  1  0.95490000  0.33450000  0.05520000  1
  H  H12  1  0.95490000  0.62040000  0.44480000  1
  H  H13  1  0.95490000  0.62040000  0.05520000  1
  H  H14  1  0.86300000  0.13700000  0.35470000  1
  H  H15  1  0.86300000  0.13700000  0.14530000  1
  H  H16  1  0.86300000  0.72600000  0.35470000  1
  H  H17  1  0.86300000  0.72600000  0.14530000  1
  H  H18  1  0.72600000  0.86300000  0.85470000  1
  H  H19  1  0.72600000  0.86300000  0.64530000  1
  H  H20  1  0.66550000  0.04510000  0.44480000  1
  H  H21  1  0.66550000  0.04510000  0.05520000  1
  H  H22  1  0.66550000  0.62040000  0.44480000  1
  H  H23  1  0.66550000  0.62040000  0.05520000  1
  H  H24  1  0.62040000  0.66550000  0.94480000  1
  H  H25  1  0.62040000  0.66550000  0.55520000  1
  H  H26  1  0.62040000  0.95490000  0.94480000  1
  H  H27  1  0.62040000  0.95490000  0.55520000  1
  H  H28  1  0.37960000  0.04510000  0.44480000  1
  H  H29  1  0.37960000  0.04510000  0.05520000  1
  H  H30  1  0.37960000  0.33450000  0.44480000  1
  H  H31  1  0.37960000  0.33450000  0.05520000  1
  H  H32  1  0.33450000  0.37960000  0.94480000  1
  H  H33  1  0.33450000  0.37960000  0.55520000  1
  H  H34  1  0.33450000  0.95490000  0.94480000  1
  H  H35  1  0.33450000  0.95490000  0.55520000  1
  H  H36  1  0.27400000  0.13700000  0.35470000  1
  H  H37  1  0.27400000  0.13700000  0.14530000  1
  H  H38  1  0.13700000  0.27400000  0.85470000  1
  H  H39  1  0.13700000  0.27400000  0.64530000  1
  H  H40  1  0.13700000  0.86300000  0.85470000  1
  H  H41  1  0.13700000  0.86300000  0.64530000  1
  H  H42  1  0.04510000  0.37960000  0.94480000  1
  H  H43  1  0.04510000  0.37960000  0.55520000  1
  H  H44  1  0.04510000  0.66550000  0.94480000  1
  H  H45  1  0.04510000  0.66550000  0.55520000  1
  C  C46  1  0.97290000  0.40160000  0.46680000  1
  C  C47  1  0.97290000  0.40160000  0.03320000  1
  C  C48  1  0.97290000  0.57130000  0.46680000  1
  C  C49  1  0.97290000  0.57130000  0.03320000  1
  C  C50  1  0.94580000  0.47290000  0.43340000  1
  C  C51  1  0.94580000  0.47290000  0.06660000  1
  C  C52  1  0.88610000  0.44305000  0.36220000  1
  C  C53  1  0.88610000  0.44305000  0.13780000  1
  C  C54  1  0.87490000  0.12510000  0.30680000  1
  C  C55  1  0.87490000  0.12510000  0.19320000  1
  C  C56  1  0.87490000  0.74980000  0.30680000  1
  C  C57  1  0.87490000  0.74980000  0.19320000  1
  C  C58  1  0.74980000  0.87490000  0.80680000  1
  C  C59  1  0.74980000  0.87490000  0.69320000  1
  C  C60  1  0.59840000  0.02710000  0.46680000  1
  C  C61  1  0.59840000  0.02710000  0.03320000  1
  C  C62  1  0.59840000  0.57130000  0.46680000  1
  C  C63  1  0.59840000  0.57130000  0.03320000  1
  C  C64  1  0.57130000  0.59840000  0.96680000  1
  C  C65  1  0.57130000  0.59840000  0.53320000  1
  C  C66  1  0.57130000  0.97290000  0.96680000  1
  C  C67  1  0.57130000  0.97290000  0.53320000  1
  C  C68  1  0.55695000  0.11390000  0.36220000  1
  C  C69  1  0.55695000  0.11390000  0.13780000  1
  C  C70  1  0.55695000  0.44305000  0.36220000  1
  C  C71  1  0.55695000  0.44305000  0.13780000  1
  C  C72  1  0.52710000  0.05420000  0.43340000  1
  C  C73  1  0.52710000  0.05420000  0.06660000  1
  C  C74  1  0.52710000  0.47290000  0.43340000  1
  C  C75  1  0.52710000  0.47290000  0.06660000  1
  C  C76  1  0.47290000  0.52710000  0.93340000  1
  C  C77  1  0.47290000  0.52710000  0.56660000  1
  C  C78  1  0.47290000  0.94580000  0.93340000  1
  C  C79  1  0.47290000  0.94580000  0.56660000  1
  C  C80  1  0.44305000  0.55695000  0.86220000  1
  C  C81  1  0.44305000  0.55695000  0.63780000  1
  C  C82  1  0.44305000  0.88610000  0.86220000  1
  C  C83  1  0.44305000  0.88610000  0.63780000  1
  C  C84  1  0.42870000  0.02710000  0.46680000  1
  C  C85  1  0.42870000  0.02710000  0.03320000  1
  C  C86  1  0.42870000  0.40160000  0.46680000  1
  C  C87  1  0.42870000  0.40160000  0.03320000  1
  C  C88  1  0.40160000  0.42870000  0.96680000  1
  C  C89  1  0.40160000  0.42870000  0.53320000  1
  C  C90  1  0.40160000  0.97290000  0.96680000  1
  C  C91  1  0.40160000  0.97290000  0.53320000  1
  C  C92  1  0.25020000  0.12510000  0.30680000  1
  C  C93  1  0.25020000  0.12510000  0.19320000  1
  C  C94  1  0.12510000  0.25020000  0.80680000  1
  C  C95  1  0.12510000  0.25020000  0.69320000  1
  C  C96  1  0.12510000  0.87490000  0.80680000  1
  C  C97  1  0.12510000  0.87490000  0.69320000  1
  C  C98  1  0.11390000  0.55695000  0.86220000  1
  C  C99  1  0.11390000  0.55695000  0.63780000  1
  C  C100  1  0.05420000  0.52710000  0.93340000  1
  C  C101  1  0.05420000  0.52710000  0.56660000  1
  C  C102  1  0.02710000  0.42870000  0.96680000  1
  C  C103  1  0.02710000  0.42870000  0.53320000  1
  C  C104  1  0.02710000  0.59840000  0.96680000  1
  C  C105  1  0.02710000  0.59840000  0.53320000  1
  N  N106  1  0.92751000  0.07249000  0.28740000  1
  N  N107  1  0.92751000  0.07249000  0.21260000  1
  N  N108  1  0.92751000  0.85502000  0.28740000  1
  N  N109  1  0.92751000  0.85502000  0.21260000  1
  N  N110  1  0.85502000  0.92751000  0.78740000  1
  N  N111  1  0.85502000  0.92751000  0.71260000  1
  N  N112  1  0.84070000  0.15930000  0.25000000  1
  N  N113  1  0.84070000  0.68140000  0.25000000  1
  N  N114  1  0.68140000  0.84070000  0.75000000  1
  N  N115  1  0.31860000  0.15930000  0.25000000  1
  N  N116  1  0.15930000  0.31860000  0.75000000  1
  N  N117  1  0.15930000  0.84070000  0.75000000  1
  N  N118  1  0.14498000  0.07249000  0.28740000  1
  N  N119  1  0.14498000  0.07249000  0.21260000  1
  N  N120  1  0.07249000  0.14498000  0.78740000  1
  N  N121  1  0.07249000  0.14498000  0.71260000  1
  N  N122  1  0.07249000  0.92751000  0.78740000  1
  N  N123  1  0.07249000  0.92751000  0.71260000  1
  O  O124  1  0.86320000  0.35150000  0.33547000  1
  O  O125  1  0.86320000  0.35150000  0.16453000  1
  O  O126  1  0.86320000  0.51170000  0.33547000  1
  O  O127  1  0.86320000  0.51170000  0.16453000  1
  O  O128  1  0.66666667  0.33333333  0.25000000  1
  O  O129  1  0.64850000  0.13680000  0.33547000  1
  O  O130  1  0.64850000  0.13680000  0.16453000  1
  O  O131  1  0.64850000  0.51170000  0.33547000  1
  O  O132  1  0.64850000  0.51170000  0.16453000  1
  O  O133  1  0.51170000  0.64850000  0.83547000  1
  O  O134  1  0.51170000  0.64850000  0.66453000  1
  O  O135  1  0.51170000  0.86320000  0.83547000  1
  O  O136  1  0.51170000  0.86320000  0.66453000  1
  O  O137  1  0.48830000  0.13680000  0.33547000  1
  O  O138  1  0.48830000  0.13680000  0.16453000  1
  O  O139  1  0.48830000  0.35150000  0.33547000  1
  O  O140  1  0.48830000  0.35150000  0.16453000  1
  O  O141  1  0.35150000  0.48830000  0.83547000  1
  O  O142  1  0.35150000  0.48830000  0.66453000  1
  O  O143  1  0.35150000  0.86320000  0.83547000  1
  O  O144  1  0.35150000  0.86320000  0.66453000  1
  O  O145  1  0.33333333  0.66666667  0.75000000  1
  O  O146  1  0.13680000  0.48830000  0.83547000  1
  O  O147  1  0.13680000  0.48830000  0.66453000  1
  O  O148  1  0.13680000  0.64850000  0.83547000  1
  O  O149  1  0.13680000  0.64850000  0.66453000  1
