# generated using pymatgen
data_CdH19C25N5O4
_symmetry_space_group_name_H-M   'P 1'
_cell_length_a   13.13900000
_cell_length_b   14.86500000
_cell_length_c   14.86500000
_cell_angle_alpha   90.00000000
_cell_angle_beta   90.00000000
_cell_angle_gamma   90.00000000
_symmetry_Int_Tables_number   1
_chemical_formula_structural   CdH19C25N5O4
_chemical_formula_sum   'Cd4 H76 C100 N20 O16'
_cell_volume   2903.30150827
_cell_formula_units_Z   4
loop_
 _symmetry_equiv_pos_site_id
 _symmetry_equiv_pos_as_xyz
  1  'x, y, z'
loop_
 _atom_site_type_symbol
 _atom_site_label
 _atom_site_symmetry_multiplicity
 _atom_site_fract_x
 _atom_site_fract_y
 _atom_site_fract_z
 _atom_site_occupancy
  Cd  Cd0  1  0.00000000  0.26947000  0.26947000  1
  Cd  Cd1  1  0.25000000  0.23053000  0.76947000  1
  Cd  Cd2  1  0.50000000  0.73053000  0.73053000  1
  Cd  Cd3  1  0.75000000  0.76947000  0.23053000  1
  H  H4  1  0.00000000  0.55410000  0.55410000  1
  H  H5  1  0.01990000  0.09690000  0.50540000  1
  H  H6  1  0.03370000  0.49380000  0.72070000  1
  H  H7  1  0.04100000  0.40730000  0.59680000  1
  H  H8  1  0.04340000  0.29870000  0.47550000  1
  H  H9  1  0.04940000  0.09580000  0.77180000  1
  H  H10  1  0.05380000  0.54960000  0.93960000  1
  H  H11  1  0.05560000  0.93120000  0.34490000  1
  H  H12  1  0.08130000  0.31300000  0.04650000  1
  H  H13  1  0.10890000  0.73720000  0.58620000  1
  H  H14  1  0.14110000  0.76280000  0.08620000  1
  H  H15  1  0.16870000  0.18700000  0.54650000  1
  H  H16  1  0.19440000  0.56880000  0.84490000  1
  H  H17  1  0.19620000  0.95040000  0.43960000  1
  H  H18  1  0.20060000  0.40420000  0.27180000  1
  H  H19  1  0.20660000  0.20130000  0.97550000  1
  H  H20  1  0.20900000  0.09270000  0.09680000  1
  H  H21  1  0.21630000  0.00620000  0.22070000  1
  H  H22  1  0.23010000  0.40310000  0.00540000  1
  H  H23  1  0.25000000  0.94590000  0.05410000  1
  H  H24  1  0.26990000  0.99460000  0.59690000  1
  H  H25  1  0.28370000  0.77930000  0.99380000  1
  H  H26  1  0.29100000  0.90320000  0.90730000  1
  H  H27  1  0.29340000  0.02450000  0.79870000  1
  H  H28  1  0.29940000  0.72820000  0.59580000  1
  H  H29  1  0.30380000  0.56040000  0.04960000  1
  H  H30  1  0.30560000  0.15510000  0.43120000  1
  H  H31  1  0.33130000  0.45350000  0.81300000  1
  H  H32  1  0.35890000  0.91380000  0.23720000  1
  H  H33  1  0.39110000  0.41380000  0.26280000  1
  H  H34  1  0.41870000  0.95350000  0.68700000  1
  H  H35  1  0.44440000  0.65510000  0.06880000  1
  H  H36  1  0.44620000  0.06040000  0.45040000  1
  H  H37  1  0.45060000  0.22820000  0.90420000  1
  H  H38  1  0.45660000  0.52450000  0.70130000  1
  H  H39  1  0.45900000  0.40320000  0.59270000  1
  H  H40  1  0.46630000  0.27930000  0.50620000  1
  H  H41  1  0.48010000  0.49460000  0.90310000  1
  H  H42  1  0.50000000  0.44590000  0.44590000  1
  H  H43  1  0.51990000  0.90310000  0.49460000  1
  H  H44  1  0.53370000  0.50620000  0.27930000  1
  H  H45  1  0.54100000  0.59270000  0.40320000  1
  H  H46  1  0.54340000  0.70130000  0.52450000  1
  H  H47  1  0.54940000  0.90420000  0.22820000  1
  H  H48  1  0.55380000  0.45040000  0.06040000  1
  H  H49  1  0.55560000  0.06880000  0.65510000  1
  H  H50  1  0.58130000  0.68700000  0.95350000  1
  H  H51  1  0.60890000  0.26280000  0.41380000  1
  H  H52  1  0.64110000  0.23720000  0.91380000  1
  H  H53  1  0.66870000  0.81300000  0.45350000  1
  H  H54  1  0.69440000  0.43120000  0.15510000  1
  H  H55  1  0.69620000  0.04960000  0.56040000  1
  H  H56  1  0.70060000  0.59580000  0.72820000  1
  H  H57  1  0.70660000  0.79870000  0.02450000  1
  H  H58  1  0.70900000  0.90730000  0.90320000  1
  H  H59  1  0.71630000  0.99380000  0.77930000  1
  H  H60  1  0.73010000  0.59690000  0.99460000  1
  H  H61  1  0.75000000  0.05410000  0.94590000  1
  H  H62  1  0.76990000  0.00540000  0.40310000  1
  H  H63  1  0.78370000  0.22070000  0.00620000  1
  H  H64  1  0.79100000  0.09680000  0.09270000  1
  H  H65  1  0.79340000  0.97550000  0.20130000  1
  H  H66  1  0.79940000  0.27180000  0.40420000  1
  H  H67  1  0.80380000  0.43960000  0.95040000  1
  H  H68  1  0.80560000  0.84490000  0.56880000  1
  H  H69  1  0.83130000  0.54650000  0.18700000  1
  H  H70  1  0.85890000  0.08620000  0.76280000  1
  H  H71  1  0.89110000  0.58620000  0.73720000  1
  H  H72  1  0.91870000  0.04650000  0.31300000  1
  H  H73  1  0.94440000  0.34490000  0.93120000  1
  H  H74  1  0.94620000  0.93960000  0.54960000  1
  H  H75  1  0.95060000  0.77180000  0.09580000  1
  H  H76  1  0.95660000  0.47550000  0.29870000  1
  H  H77  1  0.95900000  0.59680000  0.40730000  1
  H  H78  1  0.96630000  0.72070000  0.49380000  1
  H  H79  1  0.98010000  0.50540000  0.09690000  1
  C  C80  1  0.00000000  0.50990000  0.50990000  1
  C  C81  1  0.00160000  0.40890000  0.82250000  1
  C  C82  1  0.01320000  0.76600000  0.48200000  1
  C  C83  1  0.02500000  0.35800000  0.46360000  1
  C  C84  1  0.02600000  0.42250000  0.53770000  1
  C  C85  1  0.04390000  0.10770000  0.56320000  1
  C  C86  1  0.06120000  0.10730000  0.71130000  1
  C  C87  1  0.06600000  0.89230000  0.39300000  1
  C  C88  1  0.08590000  0.65410000  0.02130000  1
  C  C89  1  0.09190000  0.34820000  0.80740000  1
  C  C90  1  0.09780000  0.77630000  0.53840000  1
  C  C91  1  0.09980000  0.59600000  0.94990000  1
  C  C92  1  0.12390000  0.34300000  0.08640000  1
  C  C93  1  0.12610000  0.15700000  0.58640000  1
  C  C94  1  0.15020000  0.90400000  0.44990000  1
  C  C95  1  0.15220000  0.72370000  0.03840000  1
  C  C96  1  0.15810000  0.15180000  0.30740000  1
  C  C97  1  0.16410000  0.84590000  0.52130000  1
  C  C98  1  0.18400000  0.60770000  0.89300000  1
  C  C99  1  0.18880000  0.39270000  0.21130000  1
  C  C100  1  0.20610000  0.39230000  0.06320000  1
  C  C101  1  0.22400000  0.07750000  0.03770000  1
  C  C102  1  0.22500000  0.14200000  0.96360000  1
  C  C103  1  0.23680000  0.73400000  0.98200000  1
  C  C104  1  0.24840000  0.09110000  0.32250000  1
  C  C105  1  0.25000000  0.99010000  0.00990000  1
  C  C106  1  0.25160000  0.67750000  0.90890000  1
  C  C107  1  0.26320000  0.01800000  0.26600000  1
  C  C108  1  0.27500000  0.03640000  0.85800000  1
  C  C109  1  0.27600000  0.96230000  0.92250000  1
  C  C110  1  0.29390000  0.93680000  0.60770000  1
  C  C111  1  0.31120000  0.78870000  0.60730000  1
  C  C112  1  0.31600000  0.10700000  0.39230000  1
  C  C113  1  0.33590000  0.47870000  0.15410000  1
  C  C114  1  0.34190000  0.69260000  0.84820000  1
  C  C115  1  0.34780000  0.96160000  0.27630000  1
  C  C116  1  0.34980000  0.55010000  0.09600000  1
  C  C117  1  0.37390000  0.41360000  0.84300000  1
  C  C118  1  0.37610000  0.91360000  0.65700000  1
  C  C119  1  0.40020000  0.05010000  0.40400000  1
  C  C120  1  0.40220000  0.46160000  0.22370000  1
  C  C121  1  0.40810000  0.19260000  0.65180000  1
  C  C122  1  0.41410000  0.97870000  0.34590000  1
  C  C123  1  0.43400000  0.60700000  0.10770000  1
  C  C124  1  0.43880000  0.28870000  0.89270000  1
  C  C125  1  0.45610000  0.43680000  0.89230000  1
  C  C126  1  0.47400000  0.46230000  0.57750000  1
  C  C127  1  0.47500000  0.53640000  0.64200000  1
  C  C128  1  0.48680000  0.51800000  0.23400000  1
  C  C129  1  0.49840000  0.17750000  0.59110000  1
  C  C130  1  0.50000000  0.49010000  0.49010000  1
  C  C131  1  0.50160000  0.59110000  0.17750000  1
  C  C132  1  0.51320000  0.23400000  0.51800000  1
  C  C133  1  0.52500000  0.64200000  0.53640000  1
  C  C134  1  0.52600000  0.57750000  0.46230000  1
  C  C135  1  0.54390000  0.89230000  0.43680000  1
  C  C136  1  0.56120000  0.89270000  0.28870000  1
  C  C137  1  0.56600000  0.10770000  0.60700000  1
  C  C138  1  0.58590000  0.34590000  0.97870000  1
  C  C139  1  0.59190000  0.65180000  0.19260000  1
  C  C140  1  0.59780000  0.22370000  0.46160000  1
  C  C141  1  0.59980000  0.40400000  0.05010000  1
  C  C142  1  0.62390000  0.65700000  0.91360000  1
  C  C143  1  0.62610000  0.84300000  0.41360000  1
  C  C144  1  0.65020000  0.09600000  0.55010000  1
  C  C145  1  0.65220000  0.27630000  0.96160000  1
  C  C146  1  0.65810000  0.84820000  0.69260000  1
  C  C147  1  0.66410000  0.15410000  0.47870000  1
  C  C148  1  0.68400000  0.39230000  0.10700000  1
  C  C149  1  0.68880000  0.60730000  0.78870000  1
  C  C150  1  0.70610000  0.60770000  0.93680000  1
  C  C151  1  0.72400000  0.92250000  0.96230000  1
  C  C152  1  0.72500000  0.85800000  0.03640000  1
  C  C153  1  0.73680000  0.26600000  0.01800000  1
  C  C154  1  0.74840000  0.90890000  0.67750000  1
  C  C155  1  0.75000000  0.00990000  0.99010000  1
  C  C156  1  0.75160000  0.32250000  0.09110000  1
  C  C157  1  0.76320000  0.98200000  0.73400000  1
  C  C158  1  0.77500000  0.96360000  0.14200000  1
  C  C159  1  0.77600000  0.03770000  0.07750000  1
  C  C160  1  0.79390000  0.06320000  0.39230000  1
  C  C161  1  0.81120000  0.21130000  0.39270000  1
  C  C162  1  0.81600000  0.89300000  0.60770000  1
  C  C163  1  0.83590000  0.52130000  0.84590000  1
  C  C164  1  0.84190000  0.30740000  0.15180000  1
  C  C165  1  0.84780000  0.03840000  0.72370000  1
  C  C166  1  0.84980000  0.44990000  0.90400000  1
  C  C167  1  0.87390000  0.58640000  0.15700000  1
  C  C168  1  0.87610000  0.08640000  0.34300000  1
  C  C169  1  0.90020000  0.94990000  0.59600000  1
  C  C170  1  0.90220000  0.53840000  0.77630000  1
  C  C171  1  0.90810000  0.80740000  0.34820000  1
  C  C172  1  0.91410000  0.02130000  0.65410000  1
  C  C173  1  0.93400000  0.39300000  0.89230000  1
  C  C174  1  0.93880000  0.71130000  0.10730000  1
  C  C175  1  0.95610000  0.56320000  0.10770000  1
  C  C176  1  0.97400000  0.53770000  0.42250000  1
  C  C177  1  0.97500000  0.46360000  0.35800000  1
  C  C178  1  0.98680000  0.48200000  0.76600000  1
  C  C179  1  0.99840000  0.82250000  0.40890000  1
  N  N180  1  0.00000000  0.38020000  0.38020000  1
  N  N181  1  0.00270000  0.07660000  0.64280000  1
  N  N182  1  0.11280000  0.34420000  0.18010000  1
  N  N183  1  0.13720000  0.15580000  0.68010000  1
  N  N184  1  0.24730000  0.42340000  0.14280000  1
  N  N185  1  0.25000000  0.11980000  0.88020000  1
  N  N186  1  0.25270000  0.85720000  0.57660000  1
  N  N187  1  0.36280000  0.31990000  0.84420000  1
  N  N188  1  0.38720000  0.81990000  0.65580000  1
  N  N189  1  0.49730000  0.35720000  0.92340000  1
  N  N190  1  0.50000000  0.61980000  0.61980000  1
  N  N191  1  0.50270000  0.92340000  0.35720000  1
  N  N192  1  0.61280000  0.65580000  0.81990000  1
  N  N193  1  0.63720000  0.84420000  0.31990000  1
  N  N194  1  0.74730000  0.57660000  0.85720000  1
  N  N195  1  0.75000000  0.88020000  0.11980000  1
  N  N196  1  0.75270000  0.14280000  0.42340000  1
  N  N197  1  0.86280000  0.68010000  0.15580000  1
  N  N198  1  0.88720000  0.18010000  0.34420000  1
  N  N199  1  0.99730000  0.64280000  0.07660000  1
  O  O200  1  0.09750000  0.13520000  0.24460000  1
  O  O201  1  0.10130000  0.28200000  0.85940000  1
  O  O202  1  0.14870000  0.21800000  0.35940000  1
  O  O203  1  0.15250000  0.36480000  0.74460000  1
  O  O204  1  0.34750000  0.25540000  0.63520000  1
  O  O205  1  0.35130000  0.64060000  0.78200000  1
  O  O206  1  0.39870000  0.14060000  0.71800000  1
  O  O207  1  0.40250000  0.75540000  0.86480000  1
  O  O208  1  0.59750000  0.86480000  0.75540000  1
  O  O209  1  0.60130000  0.71800000  0.14060000  1
  O  O210  1  0.64870000  0.78200000  0.64060000  1
  O  O211  1  0.65250000  0.63520000  0.25540000  1
  O  O212  1  0.84750000  0.74460000  0.36480000  1
  O  O213  1  0.85130000  0.35940000  0.21800000  1
  O  O214  1  0.89870000  0.85940000  0.28200000  1
  O  O215  1  0.90250000  0.24460000  0.13520000  1
