# generated using pymatgen
data_InH8C12N4Cl3
_symmetry_space_group_name_H-M   'P 1'
_cell_length_a   19.12720832
_cell_length_b   19.12700000
_cell_length_c   19.12700000
_cell_angle_alpha   109.47100000
_cell_angle_beta   109.47144127
_cell_angle_gamma   109.47144127
_symmetry_Int_Tables_number   1
_chemical_formula_structural   InH8C12N4Cl3
_chemical_formula_sum   'In6 H48 C72 N24 Cl18'
_cell_volume   5386.69306999
_cell_formula_units_Z   6
loop_
 _symmetry_equiv_pos_site_id
 _symmetry_equiv_pos_as_xyz
  1  'x, y, z'
loop_
 _atom_site_type_symbol
 _atom_site_label
 _atom_site_symmetry_multiplicity
 _atom_site_fract_x
 _atom_site_fract_y
 _atom_site_fract_z
 _atom_site_occupancy
  In  In0  1  0.26394000  0.76394000  0.50000000  1
  In  In1  1  0.50000000  0.26394000  0.76394000  1
  In  In2  1  0.23606000  0.50000000  0.73606000  1
  In  In3  1  0.76394000  0.50000000  0.26394000  1
  In  In4  1  0.50000000  0.73606000  0.23606000  1
  In  In5  1  0.73606000  0.23606000  0.50000000  1
  H  H6  1  0.79920000  0.40690000  0.80130000  1
  H  H7  1  0.53670000  0.34730000  0.56680000  1
  H  H8  1  0.30050000  0.73380000  0.33890000  1
  H  H9  1  0.64970000  0.33850000  0.73280000  1
  H  H10  1  0.34730000  0.56680000  0.53670000  1
  H  H11  1  0.00210000  0.60770000  0.20080000  1
  H  H12  1  0.39230000  0.39440000  0.59310000  1
  H  H13  1  0.81060000  0.46330000  0.03010000  1
  H  H14  1  0.39490000  0.96160000  0.66110000  1
  H  H15  1  0.08310000  0.68880000  0.35030000  1
  H  H16  1  0.66110000  0.39490000  0.96160000  1
  H  H17  1  0.33850000  0.73280000  0.64970000  1
  H  H18  1  0.35030000  0.08310000  0.68880000  1
  H  H19  1  0.26620000  0.56670000  0.60510000  1
  H  H20  1  0.46330000  0.03010000  0.81060000  1
  H  H21  1  0.31120000  0.39430000  0.66150000  1
  H  H22  1  0.40690000  0.80130000  0.79920000  1
  H  H23  1  0.68880000  0.35030000  0.08310000  1
  H  H24  1  0.60770000  0.20080000  0.00210000  1
  H  H25  1  0.33890000  0.30050000  0.73380000  1
  H  H26  1  0.20080000  0.00210000  0.60770000  1
  H  H27  1  0.03010000  0.81060000  0.46330000  1
  H  H28  1  0.96160000  0.66110000  0.39490000  1
  H  H29  1  0.18940000  0.21950000  0.65270000  1
  H  H30  1  0.43320000  0.78050000  0.96990000  1
  H  H31  1  0.73380000  0.33890000  0.30050000  1
  H  H32  1  0.65270000  0.18940000  0.21950000  1
  H  H33  1  0.60560000  0.99790000  0.19870000  1
  H  H34  1  0.43330000  0.69950000  0.03840000  1
  H  H35  1  0.80130000  0.79920000  0.40690000  1
  H  H36  1  0.73280000  0.64970000  0.33850000  1
  H  H37  1  0.99790000  0.19870000  0.60560000  1
  H  H38  1  0.26720000  0.60570000  0.91690000  1
  H  H39  1  0.78050000  0.96990000  0.43320000  1
  H  H40  1  0.03840000  0.43330000  0.69950000  1
  H  H41  1  0.60570000  0.91690000  0.26720000  1
  H  H42  1  0.91690000  0.26720000  0.60570000  1
  H  H43  1  0.56670000  0.60510000  0.26620000  1
  H  H44  1  0.66150000  0.31120000  0.39430000  1
  H  H45  1  0.69950000  0.03840000  0.43330000  1
  H  H46  1  0.56680000  0.53670000  0.34730000  1
  H  H47  1  0.19870000  0.60560000  0.99790000  1
  H  H48  1  0.59310000  0.39230000  0.39440000  1
  H  H49  1  0.96990000  0.43320000  0.78050000  1
  H  H50  1  0.39430000  0.66150000  0.31120000  1
  H  H51  1  0.60510000  0.26620000  0.56670000  1
  H  H52  1  0.21950000  0.65270000  0.18940000  1
  H  H53  1  0.39440000  0.59310000  0.39230000  1
  C  C54  1  0.19180000  0.66000000  0.22200000  1
  C  C55  1  0.04930000  0.58350000  0.08660000  1
  C  C56  1  0.91340000  0.49690000  0.96270000  1
  C  C57  1  0.77120000  0.40450000  0.83390000  1
  C  C58  1  0.24000000  0.70830000  0.31090000  1
  C  C59  1  0.10310000  0.62250000  0.18100000  1
  C  C60  1  0.41650000  0.46580000  0.50310000  1
  C  C61  1  0.81900000  0.44150000  0.92210000  1
  C  C62  1  0.68230000  0.36380000  0.79310000  1
  C  C63  1  0.06270000  0.63330000  0.22880000  1
  C  C64  1  0.37750000  0.48060000  0.55850000  1
  C  C65  1  0.77800000  0.43800000  0.96980000  1
  C  C66  1  0.11080000  0.68150000  0.31770000  1
  C  C67  1  0.34000000  0.53180000  0.56200000  1
  C  C68  1  0.36670000  0.42940000  0.59550000  1
  C  C69  1  0.68910000  0.39740000  0.92910000  1
  C  C70  1  0.39740000  0.92910000  0.68910000  1
  C  C71  1  0.29170000  0.53170000  0.60260000  1
  C  C72  1  0.31850000  0.42930000  0.63620000  1
  C  C73  1  0.36380000  0.79310000  0.68230000  1
  C  C74  1  0.43800000  0.96980000  0.77800000  1
  C  C75  1  0.31770000  0.11080000  0.68150000  1
  C  C76  1  0.40450000  0.83390000  0.77120000  1
  C  C77  1  0.44150000  0.92210000  0.81900000  1
  C  C78  1  0.31090000  0.24000000  0.70830000  1
  C  C79  1  0.22880000  0.06270000  0.63330000  1
  C  C80  1  0.49690000  0.96270000  0.91340000  1
  C  C81  1  0.68150000  0.31770000  0.11080000  1
  C  C82  1  0.63330000  0.22880000  0.06270000  1
  C  C83  1  0.22200000  0.19180000  0.66000000  1
  C  C84  1  0.18100000  0.10310000  0.62250000  1
  C  C85  1  0.58350000  0.08660000  0.04930000  1
  C  C86  1  0.96980000  0.77800000  0.43800000  1
  C  C87  1  0.92910000  0.68910000  0.39740000  1
  C  C88  1  0.62250000  0.18100000  0.10310000  1
  C  C89  1  0.08660000  0.04930000  0.58350000  1
  C  C90  1  0.53420000  0.95070000  0.03730000  1
  C  C91  1  0.92210000  0.81900000  0.44150000  1
  C  C92  1  0.70830000  0.31090000  0.24000000  1
  C  C93  1  0.66000000  0.22200000  0.19180000  1
  C  C94  1  0.96270000  0.91340000  0.49690000  1
  C  C95  1  0.51940000  0.89690000  0.07790000  1
  C  C96  1  0.46820000  0.80820000  0.03020000  1
  C  C97  1  0.83390000  0.77120000  0.40450000  1
  C  C98  1  0.79310000  0.68230000  0.36380000  1
  C  C99  1  0.95070000  0.03730000  0.53420000  1
  C  C100  1  0.57060000  0.93730000  0.16610000  1
  C  C101  1  0.46830000  0.76000000  0.07090000  1
  C  C102  1  0.89690000  0.07790000  0.51940000  1
  C  C103  1  0.93730000  0.16610000  0.57060000  1
  C  C104  1  0.57070000  0.88920000  0.20690000  1
  C  C105  1  0.80820000  0.03020000  0.46820000  1
  C  C106  1  0.88920000  0.20690000  0.57070000  1
  C  C107  1  0.20690000  0.57070000  0.88920000  1
  C  C108  1  0.07090000  0.46830000  0.76000000  1
  C  C109  1  0.76000000  0.07090000  0.46830000  1
  C  C110  1  0.53170000  0.60260000  0.29170000  1
  C  C111  1  0.16610000  0.57060000  0.93730000  1
  C  C112  1  0.03020000  0.46820000  0.80820000  1
  C  C113  1  0.63620000  0.31850000  0.42930000  1
  C  C114  1  0.53180000  0.56200000  0.34000000  1
  C  C115  1  0.07790000  0.51940000  0.89690000  1
  C  C116  1  0.59550000  0.36670000  0.42940000  1
  C  C117  1  0.42930000  0.63620000  0.31850000  1
  C  C118  1  0.48060000  0.55850000  0.37750000  1
  C  C119  1  0.03730000  0.53420000  0.95070000  1
  C  C120  1  0.55850000  0.37750000  0.48060000  1
  C  C121  1  0.60260000  0.29170000  0.53170000  1
  C  C122  1  0.42940000  0.59550000  0.36670000  1
  C  C123  1  0.46580000  0.50310000  0.41650000  1
  C  C124  1  0.50310000  0.41650000  0.46580000  1
  C  C125  1  0.56200000  0.34000000  0.53180000  1
  N  N126  1  0.42100000  0.51070000  0.45950000  1
  N  N127  1  0.45950000  0.42100000  0.51070000  1
  N  N128  1  0.96150000  0.54050000  0.05120000  1
  N  N129  1  0.19950000  0.71900000  0.35870000  1
  N  N130  1  0.64130000  0.36030000  0.84080000  1
  N  N131  1  0.36030000  0.84080000  0.64130000  1
  N  N132  1  0.28100000  0.48050000  0.63970000  1
  N  N133  1  0.35870000  0.19950000  0.71900000  1
  N  N134  1  0.54050000  0.05120000  0.96150000  1
  N  N135  1  0.48930000  0.91030000  0.94880000  1
  N  N136  1  0.71900000  0.35870000  0.19950000  1
  N  N137  1  0.05120000  0.96150000  0.54050000  1
  N  N138  1  0.57900000  0.03850000  0.08970000  1
  N  N139  1  0.84080000  0.64130000  0.36030000  1
  N  N140  1  0.03850000  0.08970000  0.57900000  1
  N  N141  1  0.91030000  0.94880000  0.48930000  1
  N  N142  1  0.51950000  0.80050000  0.15920000  1
  N  N143  1  0.15920000  0.51950000  0.80050000  1
  N  N144  1  0.80050000  0.15920000  0.51950000  1
  N  N145  1  0.48050000  0.63970000  0.28100000  1
  N  N146  1  0.63970000  0.28100000  0.48050000  1
  N  N147  1  0.51070000  0.45950000  0.42100000  1
  N  N148  1  0.08970000  0.57900000  0.03850000  1
  N  N149  1  0.94880000  0.48930000  0.91030000  1
  Cl  Cl150  1  0.36920000  0.86920000  0.50000000  1
  Cl  Cl151  1  0.34206000  0.68610000  0.48776000  1
  Cl  Cl152  1  0.48776000  0.34206000  0.68610000  1
  Cl  Cl153  1  0.19834000  0.85430000  0.51224000  1
  Cl  Cl154  1  0.51224000  0.19834000  0.85430000  1
  Cl  Cl155  1  0.85430000  0.51224000  0.19834000  1
  Cl  Cl156  1  0.50000000  0.36920000  0.86920000  1
  Cl  Cl157  1  0.31390000  0.65596000  0.80166000  1
  Cl  Cl158  1  0.13080000  0.50000000  0.63080000  1
  Cl  Cl159  1  0.86920000  0.50000000  0.36920000  1
  Cl  Cl160  1  0.14570000  0.34404000  0.65794000  1
  Cl  Cl161  1  0.50000000  0.63080000  0.13080000  1
  Cl  Cl162  1  0.68610000  0.48776000  0.34206000  1
  Cl  Cl163  1  0.65596000  0.80166000  0.31390000  1
  Cl  Cl164  1  0.65794000  0.14570000  0.34404000  1
  Cl  Cl165  1  0.34404000  0.65794000  0.14570000  1
  Cl  Cl166  1  0.80166000  0.31390000  0.65596000  1
  Cl  Cl167  1  0.63080000  0.13080000  0.50000000  1
