# generated using pymatgen
data_Zn5H16C24S2(N9O4)2
_symmetry_space_group_name_H-M   'P 1'
_cell_length_a   16.02996570
_cell_length_b   16.02996570
_cell_length_c   16.02996570
_cell_angle_alpha   108.37224690
_cell_angle_beta   108.37224690
_cell_angle_gamma   111.69226001
_symmetry_Int_Tables_number   1
_chemical_formula_structural   Zn5H16C24S2(N9O4)2
_chemical_formula_sum   'Zn10 H32 C48 S4 N36 O16'
_cell_volume   3167.26243120
_cell_formula_units_Z   2
loop_
 _symmetry_equiv_pos_site_id
 _symmetry_equiv_pos_as_xyz
  1  'x, y, z'
loop_
 _atom_site_type_symbol
 _atom_site_label
 _atom_site_symmetry_multiplicity
 _atom_site_fract_x
 _atom_site_fract_y
 _atom_site_fract_z
 _atom_site_occupancy
  C  C0  1  0.79240000  0.74040000  0.99220000  1
  C  C1  1  0.50180000  0.00960000  0.55200000  1
  C  C2  1  0.05020000  0.49820000  0.50780000  1
  C  C3  1  0.25960000  0.25180000  0.05200000  1
  C  C4  1  0.32040000  0.56030000  0.31150000  1
  C  C5  1  0.00120000  0.18970000  0.26010000  1
  C  C6  1  0.31500000  0.51840000  0.37240000  1
  C  C7  1  0.10400000  0.23160000  0.29660000  1
  C  C8  1  0.85940000  0.56310000  0.89690000  1
  C  C9  1  0.58380000  0.18690000  0.79630000  1
  C  C10  1  0.80760000  0.46210000  0.89370000  1
  C  C11  1  0.68160000  0.28790000  0.84550000  1
  C  C12  1  0.84720000  0.42600000  0.95080000  1
  C  C13  1  0.77480000  0.32400000  0.92120000  1
  C  C14  1  0.21250000  0.41620000  0.60310000  1
  C  C15  1  0.43690000  0.33380000  0.29630000  1
  C  C16  1  0.19260000  0.89600000  0.12760000  1
  C  C17  1  0.48160000  0.85400000  0.79660000  1
  C  C18  1  0.25890000  0.99880000  0.18850000  1
  C  C19  1  0.43970000  0.75120000  0.76010000  1
  C  C20  1  0.16390000  0.31840000  0.60630000  1
  C  C21  1  0.53790000  0.43160000  0.34550000  1
  C  C22  1  0.14640000  0.22520000  0.54920000  1
  C  C23  1  0.57400000  0.52480000  0.42120000  1
  C  C24  1  0.10360000  0.15280000  0.57880000  1
  C  C25  1  0.67600000  0.59720000  0.45080000  1
  C  C26  1  0.08610000  0.19240000  0.65450000  1
  C  C27  1  0.71210000  0.55760000  0.39370000  1
  C  C28  1  0.99110000  0.67960000  0.23990000  1
  C  C29  1  0.81030000  0.07040000  0.81150000  1
  C  C30  1  0.05740000  0.68500000  0.20340000  1
  C  C31  1  0.76840000  0.06500000  0.87240000  1
  C  C32  1  0.03750000  0.14060000  0.70370000  1
  C  C33  1  0.81310000  0.60940000  0.39690000  1
  C  C34  1  0.40280000  0.85360000  0.07880000  1
  C  C35  1  0.47520000  0.89640000  0.04920000  1
  C  C36  1  0.44240000  0.83610000  0.15450000  1
  C  C37  1  0.56840000  0.91390000  0.10630000  1
  C  C38  1  0.39060000  0.78750000  0.20370000  1
  C  C39  1  0.66620000  0.96250000  0.10310000  1
  C  C40  1  0.93500000  0.80740000  0.70340000  1
  C  C41  1  0.14600000  0.94260000  0.62760000  1
  C  C42  1  0.92960000  0.74110000  0.73990000  1
  C  C43  1  0.24880000  0.00890000  0.68850000  1
  C  C44  1  0.19980000  0.20760000  0.94800000  1
  C  C45  1  0.99040000  0.54240000  0.49220000  1
  C  C46  1  0.45760000  0.94980000  0.44800000  1
  C  C47  1  0.74820000  0.80020000  0.00780000  1
  H  H48  1  0.96900000  0.20860000  0.29520000  1
  H  H49  1  0.33660000  0.54140000  0.26040000  1
  H  H50  1  0.76870000  0.67580000  0.98750000  1
  H  H51  1  0.56170000  0.07420000  0.59290000  1
  H  H52  1  0.03120000  0.43830000  0.51250000  1
  H  H53  1  0.32420000  0.31170000  0.09290000  1
  H  H54  1  0.32650000  0.46520000  0.37030000  1
  H  H55  1  0.15510000  0.28480000  0.36130000  1
  H  H56  1  0.16060000  0.21000000  0.49620000  1
  H  H57  1  0.53620000  0.54000000  0.45060000  1
  H  H58  1  0.91440000  0.46380000  0.00380000  1
  H  H59  1  0.79000000  0.28620000  0.95060000  1
  H  H60  1  0.92380000  0.66340000  0.20480000  1
  H  H61  1  0.79140000  0.08660000  0.76040000  1
  H  H62  1  0.20620000  0.84490000  0.12970000  1
  H  H63  1  0.53480000  0.90510000  0.86130000  1
  H  H64  1  0.04380000  0.67350000  0.13870000  1
  H  H65  1  0.71520000  0.07650000  0.87030000  1
  H  H66  1  0.32620000  0.03100000  0.23960000  1
  H  H67  1  0.45860000  0.71900000  0.79520000  1
  H  H68  1  0.33560000  0.83940000  0.04940000  1
  H  H69  1  0.46000000  0.91060000  0.99620000  1
  H  H70  1  0.08940000  0.08560000  0.54940000  1
  H  H71  1  0.71380000  0.66440000  0.50380000  1
  H  H72  1  0.92350000  0.79380000  0.63870000  1
  H  H73  1  0.09490000  0.95620000  0.62970000  1
  H  H74  1  0.21880000  0.23130000  0.90710000  1
  H  H75  1  0.92580000  0.51870000  0.48750000  1
  H  H76  1  0.48130000  0.96880000  0.40710000  1
  H  H77  1  0.68830000  0.78120000  0.01250000  1
  H  H78  1  0.28100000  0.07620000  0.73960000  1
  H  H79  1  0.91340000  0.67380000  0.70480000  1
  N  N80  1  0.11850000  0.11850000  0.00000000  1
  N  N81  1  0.88150000  0.88150000  0.00000000  1
  N  N82  1  0.13150000  0.63150000  0.50000000  1
  N  N83  1  0.36850000  0.86850000  0.50000000  1
  N  N84  1  0.29800000  0.63500000  0.33900000  1
  N  N85  1  0.95400000  0.11500000  0.16300000  1
  N  N86  1  0.28030000  0.63740000  0.41570000  1
  N  N87  1  0.02830000  0.11260000  0.14290000  1
  N  N88  1  0.87340000  0.79140000  0.98520000  1
  N  N89  1  0.44380000  0.95860000  0.58200000  1
  N  N90  1  0.13820000  0.55620000  0.51480000  1
  N  N91  1  0.20860000  0.19380000  0.08200000  1
  N  N92  1  0.29050000  0.56640000  0.43530000  1
  N  N93  1  0.11890000  0.18360000  0.22410000  1
  N  N94  1  0.11460000  0.97170000  0.08430000  1
  N  N95  1  0.36260000  0.77830000  0.64290000  1
  N  N96  1  0.10520000  0.88110000  0.06470000  1
  N  N97  1  0.43360000  0.86890000  0.72410000  1
  N  N98  1  0.20900000  0.04600000  0.16100000  1
  N  N99  1  0.36500000  0.70400000  0.66300000  1
  N  N100  1  0.04100000  0.70200000  0.33700000  1
  N  N101  1  0.88500000  0.04800000  0.83900000  1
  N  N102  1  0.14480000  0.70950000  0.27590000  1
  N  N103  1  0.81640000  0.04050000  0.93530000  1
  N  N104  1  0.13540000  0.71970000  0.35710000  1
  N  N105  1  0.88740000  0.03030000  0.91570000  1
  N  N106  1  0.95950000  0.89480000  0.77590000  1
  N  N107  1  0.13110000  0.85520000  0.56470000  1
  N  N108  1  0.11180000  0.12660000  0.91800000  1
  N  N109  1  0.04140000  0.62340000  0.48520000  1
  N  N110  1  0.37660000  0.86180000  0.41800000  1
  N  N111  1  0.80620000  0.88820000  0.01480000  1
  N  N112  1  0.96970000  0.88540000  0.85710000  1
  N  N113  1  0.22170000  0.86460000  0.58430000  1
  N  N114  1  0.95200000  0.79100000  0.83700000  1
  N  N115  1  0.29600000  0.95900000  0.66100000  1
  O  O116  1  0.82240000  0.57540000  0.82860000  1
  O  O117  1  0.50320000  0.17460000  0.74700000  1
  O  O118  1  0.94350000  0.63350000  0.97600000  1
  O  O119  1  0.59250000  0.11650000  0.81000000  1
  O  O120  1  0.21750000  0.40750000  0.52400000  1
  O  O121  1  0.36650000  0.34250000  0.31000000  1
  O  O122  1  0.24380000  0.49680000  0.67140000  1
  O  O123  1  0.42460000  0.25320000  0.24700000  1
  O  O124  1  0.00620000  0.17760000  0.75300000  1
  O  O125  1  0.82540000  0.57240000  0.32860000  1
  O  O126  1  0.03250000  0.05650000  0.69000000  1
  O  O127  1  0.88350000  0.69350000  0.47600000  1
  O  O128  1  0.30650000  0.78250000  0.19000000  1
  O  O129  1  0.65750000  0.96750000  0.02400000  1
  O  O130  1  0.42760000  0.75620000  0.25300000  1
  O  O131  1  0.74680000  0.99380000  0.17140000  1
  S  S132  1  0.68226000  0.37500000  0.80726000  1
  S  S133  1  0.12500000  0.31774000  0.69274000  1
  S  S134  1  0.62500000  0.43226000  0.30726000  1
  S  S135  1  0.56774000  0.87500000  0.19274000  1
  Zn  Zn136  1  0.00000000  0.00000000  0.00000000  1
  Zn  Zn137  1  0.25000000  0.75000000  0.50000000  1
  Zn  Zn138  1  0.97240000  0.74983000  0.94557000  1
  Zn  Zn139  1  0.44574000  0.00017000  0.72257000  1
  Zn  Zn140  1  0.27683000  0.55426000  0.55443000  1
  Zn  Zn141  1  0.25017000  0.19574000  0.22257000  1
  Zn  Zn142  1  0.97317000  0.02760000  0.77743000  1
  Zn  Zn143  1  0.99983000  0.72240000  0.44557000  1
  Zn  Zn144  1  0.27760000  0.72317000  0.27743000  1
  Zn  Zn145  1  0.80426000  0.02683000  0.05443000  1
