# generated using pymatgen
data_TbAgH11C14(NO3)2
_symmetry_space_group_name_H-M   'P 1'
_cell_length_a   7.95730000
_cell_length_b   14.97810000
_cell_length_c   16.21070000
_cell_angle_alpha   90.00000000
_cell_angle_beta   92.06900000
_cell_angle_gamma   90.00000000
_symmetry_Int_Tables_number   1
_chemical_formula_structural   TbAgH11C14(NO3)2
_chemical_formula_sum   'Tb4 Ag4 H44 C56 N8 O24'
_cell_volume   1930.81651983
_cell_formula_units_Z   4
loop_
 _symmetry_equiv_pos_site_id
 _symmetry_equiv_pos_as_xyz
  1  'x, y, z'
loop_
 _atom_site_type_symbol
 _atom_site_label
 _atom_site_symmetry_multiplicity
 _atom_site_fract_x
 _atom_site_fract_y
 _atom_site_fract_z
 _atom_site_occupancy
  Tb  Tb0  1  0.95109000  0.38364000  0.54616000  1
  Tb  Tb1  1  0.45109000  0.11636000  0.54616000  1
  Tb  Tb2  1  0.54891000  0.88364000  0.45384000  1
  Tb  Tb3  1  0.04891000  0.61636000  0.45384000  1
  Ag  Ag4  1  0.10058000  0.76053000  0.97276000  1
  Ag  Ag5  1  0.60058000  0.73947000  0.97276000  1
  Ag  Ag6  1  0.39942000  0.26053000  0.02724000  1
  Ag  Ag7  1  0.89942000  0.23947000  0.02724000  1
  H  H8  1  0.24190000  0.92350000  0.90000000  1
  H  H9  1  0.74190000  0.57650000  0.90000000  1
  H  H10  1  0.52320000  0.38270000  0.89410000  1
  H  H11  1  0.02320000  0.11730000  0.89410000  1
  H  H12  1  0.99700000  0.37770000  0.89340000  1
  H  H13  1  0.49700000  0.12230000  0.89340000  1
  H  H14  1  0.67560000  0.80700000  0.79110000  1
  H  H15  1  0.17560000  0.69300000  0.79110000  1
  H  H16  1  0.32570000  0.98700000  0.77930000  1
  H  H17  1  0.82570000  0.51300000  0.77930000  1
  H  H18  1  0.63460000  0.38290000  0.76500000  1
  H  H19  1  0.13460000  0.11710000  0.76500000  1
  H  H20  1  0.10300000  0.38370000  0.76290000  1
  H  H21  1  0.60300000  0.11630000  0.76290000  1
  H  H22  1  0.91810000  0.94950000  0.67980000  1
  H  H23  1  0.41810000  0.55050000  0.67980000  1
  H  H24  1  0.26220000  0.75090000  0.66830000  1
  H  H25  1  0.76220000  0.74910000  0.66830000  1
  H  H26  1  0.36010000  0.45290000  0.65850000  1
  H  H27  1  0.86010000  0.04710000  0.65850000  1
  H  H28  1  0.51260000  0.49510000  0.61380000  1
  H  H29  1  0.01260000  0.00490000  0.61380000  1
  H  H30  1  0.98740000  0.99510000  0.38620000  1
  H  H31  1  0.48740000  0.50490000  0.38620000  1
  H  H32  1  0.13990000  0.95290000  0.34150000  1
  H  H33  1  0.63990000  0.54710000  0.34150000  1
  H  H34  1  0.23780000  0.25090000  0.33170000  1
  H  H35  1  0.73780000  0.24910000  0.33170000  1
  H  H36  1  0.58190000  0.44950000  0.32020000  1
  H  H37  1  0.08190000  0.05050000  0.32020000  1
  H  H38  1  0.39700000  0.88370000  0.23710000  1
  H  H39  1  0.89700000  0.61630000  0.23710000  1
  H  H40  1  0.86540000  0.88290000  0.23500000  1
  H  H41  1  0.36540000  0.61710000  0.23500000  1
  H  H42  1  0.17430000  0.48700000  0.22070000  1
  H  H43  1  0.67430000  0.01300000  0.22070000  1
  H  H44  1  0.82440000  0.30700000  0.20890000  1
  H  H45  1  0.32440000  0.19300000  0.20890000  1
  H  H46  1  0.50300000  0.87770000  0.10660000  1
  H  H47  1  0.00300000  0.62230000  0.10660000  1
  H  H48  1  0.97680000  0.88270000  0.10590000  1
  H  H49  1  0.47680000  0.61730000  0.10590000  1
  H  H50  1  0.25810000  0.42350000  0.10000000  1
  H  H51  1  0.75810000  0.07650000  0.10000000  1
  C  C52  1  0.54060000  0.32860000  0.86760000  1
  C  C53  1  0.04060000  0.17140000  0.86760000  1
  C  C54  1  0.02450000  0.32480000  0.86702000  1
  C  C55  1  0.52450000  0.17520000  0.86702000  1
  C  C56  1  0.24460000  0.88850000  0.85260000  1
  C  C57  1  0.74460000  0.61150000  0.85260000  1
  C  C58  1  0.60660000  0.32920000  0.78985000  1
  C  C59  1  0.10660000  0.17080000  0.78985000  1
  C  C60  1  0.08860000  0.32890000  0.78861000  1
  C  C61  1  0.58860000  0.17110000  0.78861000  1
  C  C62  1  0.20610000  0.75290000  0.78860000  1
  C  C63  1  0.70610000  0.74710000  0.78860000  1
  C  C64  1  0.29590000  0.92700000  0.78042000  1
  C  C65  1  0.79590000  0.57300000  0.78042000  1
  C  C66  1  0.13060000  0.25089000  0.74937000  1
  C  C67  1  0.63060000  0.24911000  0.74937000  1
  C  C68  1  0.25780000  0.78730000  0.71464000  1
  C  C69  1  0.75780000  0.71270000  0.71464000  1
  C  C70  1  0.30260000  0.87570000  0.71005000  1
  C  C71  1  0.80260000  0.62430000  0.71005000  1
  C  C72  1  0.20010000  0.25092000  0.66426000  1
  C  C73  1  0.70010000  0.24908000  0.66426000  1
  C  C74  1  0.90510000  0.99300000  0.63650000  1
  C  C75  1  0.40510000  0.50700000  0.63650000  1
  C  C76  1  0.35900000  0.91850000  0.63182000  1
  C  C77  1  0.85900000  0.58150000  0.63182000  1
  C  C78  1  0.78770000  0.95765000  0.57030000  1
  C  C79  1  0.28770000  0.54235000  0.57030000  1
  C  C80  1  0.71230000  0.45765000  0.42970000  1
  C  C81  1  0.21230000  0.04235000  0.42970000  1
  C  C82  1  0.14100000  0.41850000  0.36818000  1
  C  C83  1  0.64100000  0.08150000  0.36818000  1
  C  C84  1  0.59490000  0.49300000  0.36350000  1
  C  C85  1  0.09490000  0.00700000  0.36350000  1
  C  C86  1  0.29990000  0.75092000  0.33574000  1
  C  C87  1  0.79990000  0.74908000  0.33574000  1
  C  C88  1  0.19740000  0.37570000  0.28995000  1
  C  C89  1  0.69740000  0.12430000  0.28995000  1
  C  C90  1  0.24220000  0.28730000  0.28536000  1
  C  C91  1  0.74220000  0.21270000  0.28536000  1
  C  C92  1  0.36940000  0.75089000  0.25063000  1
  C  C93  1  0.86940000  0.74911000  0.25063000  1
  C  C94  1  0.20410000  0.42700000  0.21958000  1
  C  C95  1  0.70410000  0.07300000  0.21958000  1
  C  C96  1  0.29390000  0.25290000  0.21140000  1
  C  C97  1  0.79390000  0.24710000  0.21140000  1
  C  C98  1  0.41140000  0.82890000  0.21139000  1
  C  C99  1  0.91140000  0.67110000  0.21139000  1
  C  C100  1  0.89340000  0.82920000  0.21015000  1
  C  C101  1  0.39340000  0.67080000  0.21015000  1
  C  C102  1  0.25540000  0.38850000  0.14740000  1
  C  C103  1  0.75540000  0.11150000  0.14740000  1
  C  C104  1  0.47550000  0.82480000  0.13298000  1
  C  C105  1  0.97550000  0.67520000  0.13298000  1
  C  C106  1  0.95940000  0.82860000  0.13240000  1
  C  C107  1  0.45940000  0.67140000  0.13240000  1
  N  N108  1  0.50100000  0.25295000  0.90607000  1
  N  N109  1  0.00100000  0.24705000  0.90607000  1
  N  N110  1  0.19860000  0.80310000  0.85696000  1
  N  N111  1  0.69860000  0.69690000  0.85696000  1
  N  N112  1  0.30140000  0.30310000  0.14304000  1
  N  N113  1  0.80140000  0.19690000  0.14304000  1
  N  N114  1  0.99900000  0.75295000  0.09393000  1
  N  N115  1  0.49900000  0.74705000  0.09393000  1
  O  O116  1  0.78170000  0.31548000  0.64283000  1
  O  O117  1  0.28170000  0.18452000  0.64283000  1
  O  O118  1  0.85810000  0.49848000  0.62915000  1
  O  O119  1  0.35810000  0.00152000  0.62915000  1
  O  O120  1  0.17200000  0.31897000  0.61935000  1
  O  O121  1  0.67200000  0.18103000  0.61935000  1
  O  O122  1  0.40200000  0.86614000  0.57476000  1
  O  O123  1  0.90200000  0.63386000  0.57476000  1
  O  O124  1  0.15750000  0.49836000  0.54984000  1
  O  O125  1  0.65750000  0.00164000  0.54984000  1
  O  O126  1  0.81310000  0.88449000  0.53502000  1
  O  O127  1  0.31310000  0.61551000  0.53502000  1
  O  O128  1  0.68690000  0.38449000  0.46498000  1
  O  O129  1  0.18690000  0.11551000  0.46498000  1
  O  O130  1  0.34250000  0.99836000  0.45016000  1
  O  O131  1  0.84250000  0.50164000  0.45016000  1
  O  O132  1  0.09800000  0.36614000  0.42524000  1
  O  O133  1  0.59800000  0.13386000  0.42524000  1
  O  O134  1  0.32800000  0.81897000  0.38065000  1
  O  O135  1  0.82800000  0.68103000  0.38065000  1
  O  O136  1  0.64190000  0.99848000  0.37085000  1
  O  O137  1  0.14190000  0.50152000  0.37085000  1
  O  O138  1  0.71830000  0.81548000  0.35717000  1
  O  O139  1  0.21830000  0.68452000  0.35717000  1
