# generated using pymatgen
data_CuH2C3(N2O)2
_symmetry_space_group_name_H-M   'P 1'
_cell_length_a   8.90420000
_cell_length_b   12.80560000
_cell_length_c   12.80556907
_cell_angle_alpha   114.79781221
_cell_angle_beta   103.40159324
_cell_angle_gamma   103.40200000
_symmetry_Int_Tables_number   1
_chemical_formula_structural   CuH2C3(N2O)2
_chemical_formula_sum   'Cu6 H12 C18 N24 O12'
_cell_volume   1196.58533214
_cell_formula_units_Z   6
loop_
 _symmetry_equiv_pos_site_id
 _symmetry_equiv_pos_as_xyz
  1  'x, y, z'
loop_
 _atom_site_type_symbol
 _atom_site_label
 _atom_site_symmetry_multiplicity
 _atom_site_fract_x
 _atom_site_fract_y
 _atom_site_fract_z
 _atom_site_occupancy
  Cu  Cu0  1  0.73851000  0.52844000  0.58044000  1
  Cu  Cu1  1  0.15807000  0.41956000  0.94800000  1
  Cu  Cu2  1  0.78993000  0.94800000  0.52844000  1
  Cu  Cu3  1  0.21007000  0.05200000  0.47156000  1
  Cu  Cu4  1  0.84193000  0.58044000  0.05200000  1
  Cu  Cu5  1  0.26149000  0.47156000  0.41956000  1
  H  H6  1  0.61600000  0.16260000  0.51270000  1
  H  H7  1  0.73080000  0.28100000  0.55420000  1
  H  H8  1  0.55020000  0.72680000  0.28100000  1
  H  H9  1  0.54660000  0.64990000  0.16260000  1
  H  H10  1  0.17660000  0.44580000  0.72680000  1
  H  H11  1  0.10330000  0.48730000  0.64990000  1
  H  H12  1  0.89670000  0.51270000  0.35010000  1
  H  H13  1  0.82340000  0.55420000  0.27320000  1
  H  H14  1  0.45340000  0.35010000  0.83740000  1
  H  H15  1  0.44980000  0.27320000  0.71900000  1
  H  H16  1  0.26920000  0.71900000  0.44580000  1
  H  H17  1  0.38400000  0.83740000  0.48730000  1
  C  C18  1  0.18430000  0.46050000  0.18150000  1
  C  C19  1  0.48410000  0.72400000  0.47830000  1
  C  C20  1  0.84850000  0.15500000  0.75260000  1
  C  C21  1  0.30650000  0.40240000  0.15500000  1
  C  C22  1  0.72380000  0.72100000  0.53950000  1
  C  C23  1  0.99420000  0.47830000  0.75430000  1
  C  C24  1  0.99720000  0.18150000  0.72100000  1
  C  C25  1  0.90410000  0.75260000  0.59760000  1
  C  C26  1  0.76010000  0.75430000  0.27600000  1
  C  C27  1  0.23990000  0.24570000  0.72400000  1
  C  C28  1  0.09590000  0.24740000  0.40240000  1
  C  C29  1  0.00280000  0.81850000  0.27900000  1
  C  C30  1  0.00580000  0.52170000  0.24570000  1
  C  C31  1  0.27620000  0.27900000  0.46050000  1
  C  C32  1  0.69350000  0.59760000  0.84500000  1
  C  C33  1  0.15150000  0.84500000  0.24740000  1
  C  C34  1  0.51590000  0.27600000  0.52170000  1
  C  C35  1  0.81570000  0.53950000  0.81850000  1
  N  N36  1  0.10503000  0.48571000  0.10058000  1
  N  N37  1  0.53736000  0.38418000  0.52530000  1
  N  N38  1  0.64234000  0.24018000  0.55704000  1
  N  N39  1  0.61932000  0.61487000  0.51429000  1
  N  N40  1  0.64674000  0.79311000  0.51671000  1
  N  N41  1  0.86997000  0.51671000  0.72360000  1
  N  N42  1  0.01206000  0.47470000  0.85888000  1
  N  N43  1  0.14637000  0.27640000  0.79311000  1
  N  N44  1  0.59784000  0.68314000  0.24018000  1
  N  N45  1  0.99555000  0.10058000  0.61487000  1
  N  N46  1  0.08530000  0.44296000  0.68314000  1
  N  N47  1  0.84682000  0.85888000  0.38418000  1
  N  N48  1  0.15318000  0.14112000  0.61582000  1
  N  N49  1  0.91470000  0.55704000  0.31686000  1
  N  N50  1  0.00445000  0.89942000  0.38513000  1
  N  N51  1  0.40216000  0.31686000  0.75982000  1
  N  N52  1  0.85363000  0.72360000  0.20689000  1
  N  N53  1  0.98794000  0.52530000  0.14112000  1
  N  N54  1  0.13003000  0.48329000  0.27640000  1
  N  N55  1  0.35326000  0.20689000  0.48329000  1
  N  N56  1  0.38068000  0.38513000  0.48571000  1
  N  N57  1  0.35766000  0.75982000  0.44296000  1
  N  N58  1  0.46264000  0.61582000  0.47470000  1
  N  N59  1  0.89497000  0.51429000  0.89942000  1
  O  O60  1  0.15178000  0.77230000  0.14724000  1
  O  O61  1  0.73163000  0.05191000  0.66798000  1
  O  O62  1  0.37948000  0.37494000  0.22770000  1
  O  O63  1  0.32028000  0.38393000  0.05191000  1
  O  O64  1  0.93635000  0.66798000  0.61607000  1
  O  O65  1  0.00454000  0.85276000  0.62506000  1
  O  O66  1  0.99546000  0.14724000  0.37494000  1
  O  O67  1  0.06365000  0.33202000  0.38393000  1
  O  O68  1  0.67972000  0.61607000  0.94809000  1
  O  O69  1  0.62052000  0.62506000  0.77230000  1
  O  O70  1  0.26837000  0.94809000  0.33202000  1
  O  O71  1  0.84822000  0.22770000  0.85276000  1
