# generated using pymatgen
data_Zn4H20C37O20
_symmetry_space_group_name_H-M   'P 1'
_cell_length_a   12.50590000
_cell_length_b   26.17080000
_cell_length_c   26.25090000
_cell_angle_alpha   90.00000000
_cell_angle_beta   90.00000000
_cell_angle_gamma   90.00000000
_symmetry_Int_Tables_number   1
_chemical_formula_structural   Zn4H20C37O20
_chemical_formula_sum   'Zn16 H80 C148 O80'
_cell_volume   8591.64151312
_cell_formula_units_Z   4
loop_
 _symmetry_equiv_pos_site_id
 _symmetry_equiv_pos_as_xyz
  1  'x, y, z'
loop_
 _atom_site_type_symbol
 _atom_site_label
 _atom_site_symmetry_multiplicity
 _atom_site_fract_x
 _atom_site_fract_y
 _atom_site_fract_z
 _atom_site_occupancy
  Zn  Zn0  1  0.34984000  0.72066000  0.75000000  1
  Zn  Zn1  1  0.34984000  0.77934000  0.25000000  1
  Zn  Zn2  1  0.41896000  0.00660000  0.04116000  1
  Zn  Zn3  1  0.41896000  0.00660000  0.45884000  1
  Zn  Zn4  1  0.41896000  0.49340000  0.54116000  1
  Zn  Zn5  1  0.41896000  0.49340000  0.95884000  1
  Zn  Zn6  1  0.48667000  0.19657000  0.25000000  1
  Zn  Zn7  1  0.48667000  0.30343000  0.75000000  1
  Zn  Zn8  1  0.51333000  0.69657000  0.25000000  1
  Zn  Zn9  1  0.51333000  0.80343000  0.75000000  1
  Zn  Zn10  1  0.58104000  0.50660000  0.04116000  1
  Zn  Zn11  1  0.58104000  0.50660000  0.45884000  1
  Zn  Zn12  1  0.58104000  0.99340000  0.54116000  1
  Zn  Zn13  1  0.58104000  0.99340000  0.95884000  1
  Zn  Zn14  1  0.65016000  0.22066000  0.75000000  1
  Zn  Zn15  1  0.65016000  0.27934000  0.25000000  1
  H  H16  1  0.01640000  0.22510000  0.07400000  1
  H  H17  1  0.01640000  0.22510000  0.42600000  1
  H  H18  1  0.01640000  0.27490000  0.57400000  1
  H  H19  1  0.01640000  0.27490000  0.92600000  1
  H  H20  1  0.06830000  0.17620000  0.52630000  1
  H  H21  1  0.06830000  0.17620000  0.97370000  1
  H  H22  1  0.06830000  0.32380000  0.02630000  1
  H  H23  1  0.06830000  0.32380000  0.47370000  1
  H  H24  1  0.07720000  0.73990000  0.55410000  1
  H  H25  1  0.07720000  0.73990000  0.94590000  1
  H  H26  1  0.07720000  0.76010000  0.05410000  1
  H  H27  1  0.07720000  0.76010000  0.44590000  1
  H  H28  1  0.16030000  0.19530000  0.00990000  1
  H  H29  1  0.16030000  0.19530000  0.49010000  1
  H  H30  1  0.16030000  0.30470000  0.50990000  1
  H  H31  1  0.16030000  0.30470000  0.99010000  1
  H  H32  1  0.16220000  0.71850000  0.11850000  1
  H  H33  1  0.16220000  0.71850000  0.38150000  1
  H  H34  1  0.16220000  0.78150000  0.61850000  1
  H  H35  1  0.16220000  0.78150000  0.88150000  1
  H  H36  1  0.19570000  0.61350000  0.00780000  1
  H  H37  1  0.19570000  0.61350000  0.49220000  1
  H  H38  1  0.19570000  0.88650000  0.50780000  1
  H  H39  1  0.19570000  0.88650000  0.99220000  1
  H  H40  1  0.25120000  0.13330000  0.52870000  1
  H  H41  1  0.25120000  0.13330000  0.97130000  1
  H  H42  1  0.25120000  0.36670000  0.02870000  1
  H  H43  1  0.25120000  0.36670000  0.47130000  1
  H  H44  1  0.28710000  0.24470000  0.63330000  1
  H  H45  1  0.28710000  0.24470000  0.86670000  1
  H  H46  1  0.28710000  0.25530000  0.13330000  1
  H  H47  1  0.28710000  0.25530000  0.36670000  1
  H  H48  1  0.39970000  0.61510000  0.12510000  1
  H  H49  1  0.39970000  0.61510000  0.37490000  1
  H  H50  1  0.39970000  0.88490000  0.62510000  1
  H  H51  1  0.39970000  0.88490000  0.87490000  1
  H  H52  1  0.49050000  0.12630000  0.63180000  1
  H  H53  1  0.49050000  0.12630000  0.86820000  1
  H  H54  1  0.49050000  0.37370000  0.13180000  1
  H  H55  1  0.49050000  0.37370000  0.36820000  1
  H  H56  1  0.50950000  0.62630000  0.63180000  1
  H  H57  1  0.50950000  0.62630000  0.86820000  1
  H  H58  1  0.50950000  0.87370000  0.13180000  1
  H  H59  1  0.50950000  0.87370000  0.36820000  1
  H  H60  1  0.60030000  0.11510000  0.12510000  1
  H  H61  1  0.60030000  0.11510000  0.37490000  1
  H  H62  1  0.60030000  0.38490000  0.62510000  1
  H  H63  1  0.60030000  0.38490000  0.87490000  1
  H  H64  1  0.71290000  0.74470000  0.63330000  1
  H  H65  1  0.71290000  0.74470000  0.86670000  1
  H  H66  1  0.71290000  0.75530000  0.13330000  1
  H  H67  1  0.71290000  0.75530000  0.36670000  1
  H  H68  1  0.74880000  0.63330000  0.52870000  1
  H  H69  1  0.74880000  0.63330000  0.97130000  1
  H  H70  1  0.74880000  0.86670000  0.02870000  1
  H  H71  1  0.74880000  0.86670000  0.47130000  1
  H  H72  1  0.80430000  0.11350000  0.00780000  1
  H  H73  1  0.80430000  0.11350000  0.49220000  1
  H  H74  1  0.80430000  0.38650000  0.50780000  1
  H  H75  1  0.80430000  0.38650000  0.99220000  1
  H  H76  1  0.83780000  0.21850000  0.11850000  1
  H  H77  1  0.83780000  0.21850000  0.38150000  1
  H  H78  1  0.83780000  0.28150000  0.61850000  1
  H  H79  1  0.83780000  0.28150000  0.88150000  1
  H  H80  1  0.83970000  0.69530000  0.00990000  1
  H  H81  1  0.83970000  0.69530000  0.49010000  1
  H  H82  1  0.83970000  0.80470000  0.50990000  1
  H  H83  1  0.83970000  0.80470000  0.99010000  1
  H  H84  1  0.92280000  0.23990000  0.55410000  1
  H  H85  1  0.92280000  0.23990000  0.94590000  1
  H  H86  1  0.92280000  0.26010000  0.05410000  1
  H  H87  1  0.92280000  0.26010000  0.44590000  1
  H  H88  1  0.93170000  0.67620000  0.52630000  1
  H  H89  1  0.93170000  0.67620000  0.97370000  1
  H  H90  1  0.93170000  0.82380000  0.02630000  1
  H  H91  1  0.93170000  0.82380000  0.47370000  1
  H  H92  1  0.98360000  0.72510000  0.07400000  1
  H  H93  1  0.98360000  0.72510000  0.42600000  1
  H  H94  1  0.98360000  0.77490000  0.57400000  1
  H  H95  1  0.98360000  0.77490000  0.92600000  1
  C  C96  1  0.02790000  0.73315000  0.04470000  1
  C  C97  1  0.02790000  0.73315000  0.45530000  1
  C  C98  1  0.02790000  0.76685000  0.54470000  1
  C  C99  1  0.02790000  0.76685000  0.95530000  1
  C  C100  1  0.04150000  0.25000000  0.00000000  1
  C  C101  1  0.04150000  0.25000000  0.50000000  1
  C  C102  1  0.11230000  0.20535000  0.51731000  1
  C  C103  1  0.11230000  0.20535000  0.98269000  1
  C  C104  1  0.11230000  0.29465000  0.01731000  1
  C  C105  1  0.11230000  0.29465000  0.48269000  1
  C  C106  1  0.16600000  0.67055000  0.05856000  1
  C  C107  1  0.16600000  0.67055000  0.44144000  1
  C  C108  1  0.16600000  0.82945000  0.55856000  1
  C  C109  1  0.16600000  0.82945000  0.94144000  1
  C  C110  1  0.19850000  0.69093000  0.10441000  1
  C  C111  1  0.19850000  0.69093000  0.39559000  1
  C  C112  1  0.19850000  0.80907000  0.60441000  1
  C  C113  1  0.19850000  0.80907000  0.89559000  1
  C  C114  1  0.21910000  0.62794000  0.03816000  1
  C  C115  1  0.21910000  0.62794000  0.46184000  1
  C  C116  1  0.21910000  0.87206000  0.53816000  1
  C  C117  1  0.21910000  0.87206000  0.96184000  1
  C  C118  1  0.25410000  0.19278000  0.57770000  1
  C  C119  1  0.25410000  0.19278000  0.92230000  1
  C  C120  1  0.25410000  0.30722000  0.07770000  1
  C  C121  1  0.25410000  0.30722000  0.42230000  1
  C  C122  1  0.28600000  0.66989000  0.12939000  1
  C  C123  1  0.28600000  0.66989000  0.37061000  1
  C  C124  1  0.28600000  0.83011000  0.62939000  1
  C  C125  1  0.28600000  0.83011000  0.87061000  1
  C  C126  1  0.28770000  0.14721000  0.55624000  1
  C  C127  1  0.28770000  0.14721000  0.94376000  1
  C  C128  1  0.28770000  0.35279000  0.05624000  1
  C  C129  1  0.28770000  0.35279000  0.44376000  1
  C  C130  1  0.30570000  0.60764000  0.06310000  1
  C  C131  1  0.30570000  0.60764000  0.43690000  1
  C  C132  1  0.30570000  0.89236000  0.56310000  1
  C  C133  1  0.30570000  0.89236000  0.93690000  1
  C  C134  1  0.30990000  0.21406000  0.61906000  1
  C  C135  1  0.30990000  0.21406000  0.88094000  1
  C  C136  1  0.30990000  0.28594000  0.11906000  1
  C  C137  1  0.30990000  0.28594000  0.38094000  1
  C  C138  1  0.32990000  0.69460000  0.17771000  1
  C  C139  1  0.32990000  0.69460000  0.32229000  1
  C  C140  1  0.32990000  0.80540000  0.67771000  1
  C  C141  1  0.32990000  0.80540000  0.82229000  1
  C  C142  1  0.34030000  0.62861000  0.10859000  1
  C  C143  1  0.34030000  0.62861000  0.39141000  1
  C  C144  1  0.34030000  0.87139000  0.60859000  1
  C  C145  1  0.34030000  0.87139000  0.89141000  1
  C  C146  1  0.36930000  0.56499000  0.03847000  1
  C  C147  1  0.36930000  0.56499000  0.46153000  1
  C  C148  1  0.36930000  0.93501000  0.53847000  1
  C  C149  1  0.36930000  0.93501000  0.96153000  1
  C  C150  1  0.37770000  0.12222000  0.57661000  1
  C  C151  1  0.37770000  0.12222000  0.92339000  1
  C  C152  1  0.37770000  0.37778000  0.07661000  1
  C  C153  1  0.37770000  0.37778000  0.42339000  1
  C  C154  1  0.39830000  0.18940000  0.63847000  1
  C  C155  1  0.39830000  0.18940000  0.86153000  1
  C  C156  1  0.39830000  0.31060000  0.13847000  1
  C  C157  1  0.39830000  0.31060000  0.36153000  1
  C  C158  1  0.41920000  0.07472000  0.55092000  1
  C  C159  1  0.41920000  0.07472000  0.94908000  1
  C  C160  1  0.41920000  0.42528000  0.05092000  1
  C  C161  1  0.41920000  0.42528000  0.44908000  1
  C  C162  1  0.43190000  0.14318000  0.61793000  1
  C  C163  1  0.43190000  0.14318000  0.88207000  1
  C  C164  1  0.43190000  0.35682000  0.11793000  1
  C  C165  1  0.43190000  0.35682000  0.38207000  1
  C  C166  1  0.46080000  0.21557000  0.68081000  1
  C  C167  1  0.46080000  0.21557000  0.81919000  1
  C  C168  1  0.46080000  0.28443000  0.18081000  1
  C  C169  1  0.46080000  0.28443000  0.31919000  1
  C  C170  1  0.53920000  0.71557000  0.68081000  1
  C  C171  1  0.53920000  0.71557000  0.81919000  1
  C  C172  1  0.53920000  0.78443000  0.18081000  1
  C  C173  1  0.53920000  0.78443000  0.31919000  1
  C  C174  1  0.56810000  0.64318000  0.61793000  1
  C  C175  1  0.56810000  0.64318000  0.88207000  1
  C  C176  1  0.56810000  0.85682000  0.11793000  1
  C  C177  1  0.56810000  0.85682000  0.38207000  1
  C  C178  1  0.58080000  0.57472000  0.55092000  1
  C  C179  1  0.58080000  0.57472000  0.94908000  1
  C  C180  1  0.58080000  0.92528000  0.05092000  1
  C  C181  1  0.58080000  0.92528000  0.44908000  1
  C  C182  1  0.60170000  0.68940000  0.63847000  1
  C  C183  1  0.60170000  0.68940000  0.86153000  1
  C  C184  1  0.60170000  0.81060000  0.13847000  1
  C  C185  1  0.60170000  0.81060000  0.36153000  1
  C  C186  1  0.62230000  0.62222000  0.57661000  1
  C  C187  1  0.62230000  0.62222000  0.92339000  1
  C  C188  1  0.62230000  0.87778000  0.07661000  1
  C  C189  1  0.62230000  0.87778000  0.42339000  1
  C  C190  1  0.63070000  0.06499000  0.03847000  1
  C  C191  1  0.63070000  0.06499000  0.46153000  1
  C  C192  1  0.63070000  0.43501000  0.53847000  1
  C  C193  1  0.63070000  0.43501000  0.96153000  1
  C  C194  1  0.65970000  0.12861000  0.10859000  1
  C  C195  1  0.65970000  0.12861000  0.39141000  1
  C  C196  1  0.65970000  0.37139000  0.60859000  1
  C  C197  1  0.65970000  0.37139000  0.89141000  1
  C  C198  1  0.67010000  0.19460000  0.17771000  1
  C  C199  1  0.67010000  0.19460000  0.32229000  1
  C  C200  1  0.67010000  0.30540000  0.67771000  1
  C  C201  1  0.67010000  0.30540000  0.82229000  1
  C  C202  1  0.69010000  0.71406000  0.61906000  1
  C  C203  1  0.69010000  0.71406000  0.88094000  1
  C  C204  1  0.69010000  0.78594000  0.11906000  1
  C  C205  1  0.69010000  0.78594000  0.38094000  1
  C  C206  1  0.69430000  0.10764000  0.06310000  1
  C  C207  1  0.69430000  0.10764000  0.43690000  1
  C  C208  1  0.69430000  0.39236000  0.56310000  1
  C  C209  1  0.69430000  0.39236000  0.93690000  1
  C  C210  1  0.71230000  0.64721000  0.55624000  1
  C  C211  1  0.71230000  0.64721000  0.94376000  1
  C  C212  1  0.71230000  0.85279000  0.05624000  1
  C  C213  1  0.71230000  0.85279000  0.44376000  1
  C  C214  1  0.71400000  0.16989000  0.12939000  1
  C  C215  1  0.71400000  0.16989000  0.37061000  1
  C  C216  1  0.71400000  0.33011000  0.62939000  1
  C  C217  1  0.71400000  0.33011000  0.87061000  1
  C  C218  1  0.74590000  0.69278000  0.57770000  1
  C  C219  1  0.74590000  0.69278000  0.92230000  1
  C  C220  1  0.74590000  0.80722000  0.07770000  1
  C  C221  1  0.74590000  0.80722000  0.42230000  1
  C  C222  1  0.78090000  0.12794000  0.03816000  1
  C  C223  1  0.78090000  0.12794000  0.46184000  1
  C  C224  1  0.78090000  0.37206000  0.53816000  1
  C  C225  1  0.78090000  0.37206000  0.96184000  1
  C  C226  1  0.80150000  0.19093000  0.10441000  1
  C  C227  1  0.80150000  0.19093000  0.39559000  1
  C  C228  1  0.80150000  0.30907000  0.60441000  1
  C  C229  1  0.80150000  0.30907000  0.89559000  1
  C  C230  1  0.83400000  0.17055000  0.05856000  1
  C  C231  1  0.83400000  0.17055000  0.44144000  1
  C  C232  1  0.83400000  0.32945000  0.55856000  1
  C  C233  1  0.83400000  0.32945000  0.94144000  1
  C  C234  1  0.88770000  0.70535000  0.51731000  1
  C  C235  1  0.88770000  0.70535000  0.98269000  1
  C  C236  1  0.88770000  0.79465000  0.01731000  1
  C  C237  1  0.88770000  0.79465000  0.48269000  1
  C  C238  1  0.95850000  0.75000000  0.00000000  1
  C  C239  1  0.95850000  0.75000000  0.50000000  1
  C  C240  1  0.97210000  0.23315000  0.04470000  1
  C  C241  1  0.97210000  0.23315000  0.45530000  1
  C  C242  1  0.97210000  0.26685000  0.54470000  1
  C  C243  1  0.97210000  0.26685000  0.95530000  1
  O  O244  1  0.08530000  0.68888000  0.02835000  1
  O  O245  1  0.08530000  0.68888000  0.47165000  1
  O  O246  1  0.08530000  0.81112000  0.52835000  1
  O  O247  1  0.08530000  0.81112000  0.97165000  1
  O  O248  1  0.17190000  0.22193000  0.56042000  1
  O  O249  1  0.17190000  0.22193000  0.93958000  1
  O  O250  1  0.17190000  0.27807000  0.06042000  1
  O  O251  1  0.17190000  0.27807000  0.43958000  1
  O  O252  1  0.28620000  0.73381000  0.19414000  1
  O  O253  1  0.28620000  0.73381000  0.30586000  1
  O  O254  1  0.28620000  0.76619000  0.69414000  1
  O  O255  1  0.28620000  0.76619000  0.80586000  1
  O  O256  1  0.33300000  0.54539000  0.50171000  1
  O  O257  1  0.33300000  0.54539000  0.99829000  1
  O  O258  1  0.33300000  0.95461000  0.00171000  1
  O  O259  1  0.33300000  0.95461000  0.49829000  1
  O  O260  1  0.37410000  0.06134000  0.51063000  1
  O  O261  1  0.37410000  0.06134000  0.98937000  1
  O  O262  1  0.37410000  0.43866000  0.01063000  1
  O  O263  1  0.37410000  0.43866000  0.48937000  1
  O  O264  1  0.41030000  0.67263000  0.19716000  1
  O  O265  1  0.41030000  0.67263000  0.30284000  1
  O  O266  1  0.41030000  0.82737000  0.69716000  1
  O  O267  1  0.41030000  0.82737000  0.80284000  1
  O  O268  1  0.42390000  0.24294000  0.19632000  1
  O  O269  1  0.42390000  0.24294000  0.30368000  1
  O  O270  1  0.42390000  0.25706000  0.69632000  1
  O  O271  1  0.42390000  0.25706000  0.80368000  1
  O  O272  1  0.45490000  0.55285000  0.06008000  1
  O  O273  1  0.45490000  0.55285000  0.43992000  1
  O  O274  1  0.45490000  0.94715000  0.56008000  1
  O  O275  1  0.45490000  0.94715000  0.93992000  1
  O  O276  1  0.45590000  0.69386000  0.69576000  1
  O  O277  1  0.45590000  0.69386000  0.80424000  1
  O  O278  1  0.45590000  0.80614000  0.19576000  1
  O  O279  1  0.45590000  0.80614000  0.30424000  1
  O  O280  1  0.49780000  0.05307000  0.57177000  1
  O  O281  1  0.49780000  0.05307000  0.92823000  1
  O  O282  1  0.49780000  0.44693000  0.07177000  1
  O  O283  1  0.49780000  0.44693000  0.42823000  1
  O  O284  1  0.50220000  0.55307000  0.57177000  1
  O  O285  1  0.50220000  0.55307000  0.92823000  1
  O  O286  1  0.50220000  0.94693000  0.07177000  1
  O  O287  1  0.50220000  0.94693000  0.42823000  1
  O  O288  1  0.54410000  0.19386000  0.69576000  1
  O  O289  1  0.54410000  0.19386000  0.80424000  1
  O  O290  1  0.54410000  0.30614000  0.19576000  1
  O  O291  1  0.54410000  0.30614000  0.30424000  1
  O  O292  1  0.54510000  0.05285000  0.06008000  1
  O  O293  1  0.54510000  0.05285000  0.43992000  1
  O  O294  1  0.54510000  0.44715000  0.56008000  1
  O  O295  1  0.54510000  0.44715000  0.93992000  1
  O  O296  1  0.57610000  0.74294000  0.19632000  1
  O  O297  1  0.57610000  0.74294000  0.30368000  1
  O  O298  1  0.57610000  0.75706000  0.69632000  1
  O  O299  1  0.57610000  0.75706000  0.80368000  1
  O  O300  1  0.58970000  0.17263000  0.19716000  1
  O  O301  1  0.58970000  0.17263000  0.30284000  1
  O  O302  1  0.58970000  0.32737000  0.69716000  1
  O  O303  1  0.58970000  0.32737000  0.80284000  1
  O  O304  1  0.62590000  0.56134000  0.51063000  1
  O  O305  1  0.62590000  0.56134000  0.98937000  1
  O  O306  1  0.62590000  0.93866000  0.01063000  1
  O  O307  1  0.62590000  0.93866000  0.48937000  1
  O  O308  1  0.66700000  0.04539000  0.50171000  1
  O  O309  1  0.66700000  0.04539000  0.99829000  1
  O  O310  1  0.66700000  0.45461000  0.00171000  1
  O  O311  1  0.66700000  0.45461000  0.49829000  1
  O  O312  1  0.71380000  0.23381000  0.19414000  1
  O  O313  1  0.71380000  0.23381000  0.30586000  1
  O  O314  1  0.71380000  0.26619000  0.69414000  1
  O  O315  1  0.71380000  0.26619000  0.80586000  1
  O  O316  1  0.82810000  0.72193000  0.56042000  1
  O  O317  1  0.82810000  0.72193000  0.93958000  1
  O  O318  1  0.82810000  0.77807000  0.06042000  1
  O  O319  1  0.82810000  0.77807000  0.43958000  1
  O  O320  1  0.91470000  0.18888000  0.02835000  1
  O  O321  1  0.91470000  0.18888000  0.47165000  1
  O  O322  1  0.91470000  0.31112000  0.52835000  1
  O  O323  1  0.91470000  0.31112000  0.97165000  1
