# generated using pymatgen
data_ZnH8C12(IN2)2
_symmetry_space_group_name_H-M   'P 1'
_cell_length_a   14.82090000
_cell_length_b   19.15080000
_cell_length_c   31.35400000
_cell_angle_alpha   101.86500000
_cell_angle_beta   90.00000000
_cell_angle_gamma   112.76500000
_symmetry_Int_Tables_number   1
_chemical_formula_structural   ZnH8C12(IN2)2
_chemical_formula_sum   'Zn12 H96 C144 I24 N48'
_cell_volume   7999.41967788
_cell_formula_units_Z   12
loop_
 _symmetry_equiv_pos_site_id
 _symmetry_equiv_pos_as_xyz
  1  'x, y, z'
loop_
 _atom_site_type_symbol
 _atom_site_label
 _atom_site_symmetry_multiplicity
 _atom_site_fract_x
 _atom_site_fract_y
 _atom_site_fract_z
 _atom_site_occupancy
  Zn  Zn0  1  0.03653000  0.82820000  0.91020000  1
  Zn  Zn1  1  0.18737000  0.65844000  0.73121000  1
  Zn  Zn2  1  0.20833000  0.17180000  0.58980000  1
  Zn  Zn3  1  0.28296000  0.75448000  0.43966000  1
  Zn  Zn4  1  0.47107000  0.65844000  0.23121000  1
  Zn  Zn5  1  0.47152000  0.75448000  0.93966000  1
  Zn  Zn6  1  0.52848000  0.24552000  0.06034000  1
  Zn  Zn7  1  0.52893000  0.34156000  0.76879000  1
  Zn  Zn8  1  0.71704000  0.24552000  0.56034000  1
  Zn  Zn9  1  0.79167000  0.82820000  0.41020000  1
  Zn  Zn10  1  0.81263000  0.34156000  0.26879000  1
  Zn  Zn11  1  0.96347000  0.17180000  0.08980000  1
  H  H12  1  0.00390000  0.32240000  0.16070000  1
  H  H13  1  0.00420000  0.04560000  0.55920000  1
  H  H14  1  0.00760000  0.73180000  0.31600000  1
  H  H15  1  0.01820000  0.22380000  0.47690000  1
  H  H16  1  0.03930000  0.19740000  0.62540000  1
  H  H17  1  0.04140000  0.04560000  0.05920000  1
  H  H18  1  0.08060000  0.65140000  0.64630000  1
  H  H19  1  0.08950000  0.24060000  0.02390000  1
  H  H20  1  0.09680000  0.72780000  0.59540000  1
  H  H21  1  0.11490000  0.51120000  0.17210000  1
  H  H22  1  0.11810000  0.39880000  0.21920000  1
  H  H23  1  0.12800000  0.58180000  0.87680000  1
  H  H24  1  0.13410000  0.97580000  0.48490000  1
  H  H25  1  0.15110000  0.24060000  0.52390000  1
  H  H26  1  0.15810000  0.19740000  0.12540000  1
  H  H27  1  0.15830000  0.02420000  0.01510000  1
  H  H28  1  0.16840000  0.70520000  0.26580000  1
  H  H29  1  0.18270000  0.63780000  0.35570000  1
  H  H30  1  0.20260000  0.53800000  0.30590000  1
  H  H31  1  0.20560000  0.22380000  0.97690000  1
  H  H32  1  0.25490000  0.53520000  0.67990000  1
  H  H33  1  0.25510000  0.68220000  0.92400000  1
  H  H34  1  0.27580000  0.26820000  0.18400000  1
  H  H35  1  0.28030000  0.53520000  0.17990000  1
  H  H36  1  0.28070000  0.39880000  0.71920000  1
  H  H37  1  0.31850000  0.32240000  0.66070000  1
  H  H38  1  0.32120000  0.80600000  0.71280000  1
  H  H39  1  0.33420000  0.72460000  0.26910000  1
  H  H40  1  0.33540000  0.53800000  0.80590000  1
  H  H41  1  0.34040000  0.95720000  0.00000000  1
  H  H42  1  0.34370000  0.88780000  0.66390000  1
  H  H43  1  0.36900000  0.27220000  0.90460000  1
  H  H44  1  0.38240000  0.85200000  0.99890000  1
  H  H45  1  0.38320000  0.04280000  0.50000000  1
  H  H46  1  0.38920000  0.85840000  0.38260000  1
  H  H47  1  0.39040000  0.72460000  0.76910000  1
  H  H48  1  0.39630000  0.51120000  0.67210000  1
  H  H49  1  0.42710000  0.68220000  0.42400000  1
  H  H50  1  0.42920000  0.34860000  0.85370000  1
  H  H51  1  0.44640000  0.96760000  0.88250000  1
  H  H52  1  0.45380000  0.58180000  0.37680000  1
  H  H53  1  0.45510000  0.63780000  0.85570000  1
  H  H54  1  0.45590000  0.11220000  0.83610000  1
  H  H55  1  0.46320000  0.29480000  0.23420000  1
  H  H56  1  0.46920000  0.85840000  0.88260000  1
  H  H57  1  0.46960000  0.85200000  0.49890000  1
  H  H58  1  0.47880000  0.03240000  0.61750000  1
  H  H59  1  0.48480000  0.80600000  0.21280000  1
  H  H60  1  0.51520000  0.19400000  0.78720000  1
  H  H61  1  0.52120000  0.96760000  0.38250000  1
  H  H62  1  0.53040000  0.14800000  0.50110000  1
  H  H63  1  0.53080000  0.14160000  0.11740000  1
  H  H64  1  0.53680000  0.70520000  0.76580000  1
  H  H65  1  0.54410000  0.88780000  0.16390000  1
  H  H66  1  0.54490000  0.36220000  0.14430000  1
  H  H67  1  0.54620000  0.41820000  0.62320000  1
  H  H68  1  0.55360000  0.03240000  0.11750000  1
  H  H69  1  0.57080000  0.65140000  0.14630000  1
  H  H70  1  0.57290000  0.31780000  0.57600000  1
  H  H71  1  0.60370000  0.48880000  0.32790000  1
  H  H72  1  0.60960000  0.27540000  0.23090000  1
  H  H73  1  0.61080000  0.14160000  0.61740000  1
  H  H74  1  0.61680000  0.95720000  0.50000000  1
  H  H75  1  0.61760000  0.14800000  0.00110000  1
  H  H76  1  0.63100000  0.72780000  0.09540000  1
  H  H77  1  0.65630000  0.11220000  0.33610000  1
  H  H78  1  0.65960000  0.04280000  0.00000000  1
  H  H79  1  0.66460000  0.46200000  0.19410000  1
  H  H80  1  0.66580000  0.27540000  0.73090000  1
  H  H81  1  0.67880000  0.19400000  0.28720000  1
  H  H82  1  0.68150000  0.67760000  0.33930000  1
  H  H83  1  0.71930000  0.60120000  0.28080000  1
  H  H84  1  0.71970000  0.46480000  0.82010000  1
  H  H85  1  0.72420000  0.73180000  0.81600000  1
  H  H86  1  0.74490000  0.31780000  0.07600000  1
  H  H87  1  0.74510000  0.46480000  0.32010000  1
  H  H88  1  0.79440000  0.77620000  0.02310000  1
  H  H89  1  0.79740000  0.46200000  0.69410000  1
  H  H90  1  0.81730000  0.36220000  0.64430000  1
  H  H91  1  0.83160000  0.29480000  0.73420000  1
  H  H92  1  0.84170000  0.97580000  0.98490000  1
  H  H93  1  0.84190000  0.80260000  0.87460000  1
  H  H94  1  0.84890000  0.75940000  0.47610000  1
  H  H95  1  0.86590000  0.02420000  0.51510000  1
  H  H96  1  0.87200000  0.41820000  0.12320000  1
  H  H97  1  0.88190000  0.60120000  0.78080000  1
  H  H98  1  0.88510000  0.48880000  0.82790000  1
  H  H99  1  0.90320000  0.27220000  0.40460000  1
  H  H100  1  0.91050000  0.75940000  0.97610000  1
  H  H101  1  0.91940000  0.34860000  0.35370000  1
  H  H102  1  0.95860000  0.95440000  0.94080000  1
  H  H103  1  0.96070000  0.80260000  0.37460000  1
  H  H104  1  0.98180000  0.77620000  0.52310000  1
  H  H105  1  0.99240000  0.26820000  0.68400000  1
  H  H106  1  0.99580000  0.95440000  0.44080000  1
  H  H107  1  0.99610000  0.67760000  0.83930000  1
  C  C108  1  0.00690000  0.08240000  0.54250000  1
  C  C109  1  0.01340000  0.18680000  0.49360000  1
  C  C110  1  0.01580000  0.58700000  0.21980000  1
  C  C111  1  0.05990000  0.28080000  0.67980000  1
  C  C112  1  0.05990000  0.31140000  0.16530000  1
  C  C113  1  0.07100000  0.87780000  0.50860000  1
  C  C114  1  0.07550000  0.08240000  0.04250000  1
  C  C115  1  0.07560000  0.93100000  0.48380000  1
  C  C116  1  0.08920000  0.23880000  0.64510000  1
  C  C117  1  0.09200000  0.19560000  0.52160000  1
  C  C118  1  0.10350000  0.38640000  0.74530000  1
  C  C119  1  0.10360000  0.19560000  0.02160000  1
  C  C120  1  0.12130000  0.60260000  0.21860000  1
  C  C121  1  0.12760000  0.35700000  0.20040000  1
  C  C122  1  0.13360000  0.34180000  0.70800000  1
  C  C123  1  0.13530000  0.69980000  0.64990000  1
  C  C124  1  0.14270000  0.48560000  0.80420000  1
  C  C125  1  0.14440000  0.74560000  0.61970000  1
  C  C126  1  0.14460000  0.06900000  0.01620000  1
  C  C127  1  0.14960000  0.23880000  0.14510000  1
  C  C128  1  0.15770000  0.55520000  0.19300000  1
  C  C129  1  0.16040000  0.89040000  0.53780000  1
  C  C130  1  0.17340000  0.18680000  0.99360000  1
  C  C131  1  0.18940000  0.66900000  0.24760000  1
  C  C132  1  0.19320000  0.12220000  0.99140000  1
  C  C133  1  0.19470000  0.59240000  0.87160000  1
  C  C134  1  0.20820000  0.34180000  0.20800000  1
  C  C135  1  0.21890000  0.54920000  0.83600000  1
  C  C136  1  0.21900000  0.81400000  0.62440000  1
  C  C137  1  0.22090000  0.28080000  0.17980000  1
  C  C138  1  0.22940000  0.35700000  0.70040000  1
  C  C139  1  0.22990000  0.86380000  0.59210000  1
  C  C140  1  0.23870000  0.62660000  0.35990000  1
  C  C141  1  0.24990000  0.56680000  0.33020000  1
  C  C142  1  0.25150000  0.31140000  0.66530000  1
  C  C143  1  0.25720000  0.57080000  0.19720000  1
  C  C144  1  0.27000000  0.10960000  0.96220000  1
  C  C145  1  0.27110000  0.65200000  0.89960000  1
  C  C146  1  0.27440000  0.78940000  0.68830000  1
  C  C147  1  0.28290000  0.38640000  0.24530000  1
  C  C148  1  0.28850000  0.68040000  0.24910000  1
  C  C149  1  0.28900000  0.83940000  0.65950000  1
  C  C150  1  0.31360000  0.57080000  0.69720000  1
  C  C151  1  0.31690000  0.56680000  0.83020000  1
  C  C152  1  0.31970000  0.95780000  0.55990000  1
  C  C153  1  0.33030000  0.54920000  0.33600000  1
  C  C154  1  0.34290000  0.48560000  0.30420000  1
  C  C155  1  0.36190000  0.04220000  0.94010000  1
  C  C156  1  0.36610000  0.13620000  0.90790000  1
  C  C157  1  0.37020000  0.93940000  0.97560000  1
  C  C158  1  0.38090000  0.65200000  0.39960000  1
  C  C159  1  0.38790000  0.62660000  0.85990000  1
  C  C160  1  0.38840000  0.97580000  0.94180000  1
  C  C161  1  0.39190000  0.68040000  0.74910000  1
  C  C162  1  0.39520000  0.87600000  0.97460000  1
  C  C163  1  0.39750000  0.55520000  0.69300000  1
  C  C164  1  0.39770000  0.59240000  0.37160000  1
  C  C165  1  0.39880000  0.25440000  0.88030000  1
  C  C166  1  0.40500000  0.18600000  0.87560000  1
  C  C167  1  0.41260000  0.02420000  0.55820000  1
  C  C168  1  0.42880000  0.41300000  0.28020000  1
  C  C169  1  0.43030000  0.94420000  0.90690000  1
  C  C170  1  0.43080000  0.06060000  0.52440000  1
  C  C171  1  0.43450000  0.88160000  0.40790000  1
  C  C172  1  0.43550000  0.30020000  0.85010000  1
  C  C173  1  0.44710000  0.88160000  0.90790000  1
  C  C174  1  0.44960000  0.16060000  0.84050000  1
  C  C175  1  0.47960000  0.66900000  0.74760000  1
  C  C176  1  0.48080000  0.87600000  0.47460000  1
  C  C177  1  0.48130000  0.60260000  0.71860000  1
  C  C178  1  0.48500000  0.21060000  0.81170000  1
  C  C179  1  0.48610000  0.05580000  0.59310000  1
  C  C180  1  0.51390000  0.94420000  0.40690000  1
  C  C181  1  0.51500000  0.78940000  0.18830000  1
  C  C182  1  0.51870000  0.39740000  0.28140000  1
  C  C183  1  0.51920000  0.12400000  0.52540000  1
  C  C184  1  0.52040000  0.33100000  0.25240000  1
  C  C185  1  0.55040000  0.83940000  0.15950000  1
  C  C186  1  0.55290000  0.11840000  0.09210000  1
  C  C187  1  0.56450000  0.69980000  0.14990000  1
  C  C188  1  0.56550000  0.11840000  0.59210000  1
  C  C189  1  0.56920000  0.93940000  0.47560000  1
  C  C190  1  0.56970000  0.05580000  0.09310000  1
  C  C191  1  0.57120000  0.58700000  0.71980000  1
  C  C192  1  0.58740000  0.97580000  0.44180000  1
  C  C193  1  0.59500000  0.81400000  0.12440000  1
  C  C194  1  0.60120000  0.74560000  0.11970000  1
  C  C195  1  0.60230000  0.40760000  0.62840000  1
  C  C196  1  0.60250000  0.44480000  0.30700000  1
  C  C197  1  0.60480000  0.12400000  0.02540000  1
  C  C198  1  0.60810000  0.31960000  0.25090000  1
  C  C199  1  0.61160000  0.02420000  0.05820000  1
  C  C200  1  0.61210000  0.37340000  0.14010000  1
  C  C201  1  0.61910000  0.34800000  0.60040000  1
  C  C202  1  0.62980000  0.06060000  0.02440000  1
  C  C203  1  0.63390000  0.86380000  0.09210000  1
  C  C204  1  0.63810000  0.95780000  0.05990000  1
  C  C205  1  0.65710000  0.51440000  0.69580000  1
  C  C206  1  0.66970000  0.45080000  0.66400000  1
  C  C207  1  0.68030000  0.04220000  0.44010000  1
  C  C208  1  0.68310000  0.43320000  0.16980000  1
  C  C209  1  0.68640000  0.42920000  0.30280000  1
  C  C210  1  0.71100000  0.16060000  0.34050000  1
  C  C211  1  0.71150000  0.31960000  0.75090000  1
  C  C212  1  0.71710000  0.61360000  0.75470000  1
  C  C213  1  0.72560000  0.21060000  0.31170000  1
  C  C214  1  0.72890000  0.34800000  0.10040000  1
  C  C215  1  0.73000000  0.89040000  0.03780000  1
  C  C216  1  0.74280000  0.42920000  0.80280000  1
  C  C217  1  0.74850000  0.68860000  0.33470000  1
  C  C218  1  0.75010000  0.43320000  0.66980000  1
  C  C219  1  0.76130000  0.37340000  0.64010000  1
  C  C220  1  0.77010000  0.13620000  0.40790000  1
  C  C221  1  0.77060000  0.64300000  0.29960000  1
  C  C222  1  0.77910000  0.71920000  0.82020000  1
  C  C223  1  0.78100000  0.18600000  0.37560000  1
  C  C224  1  0.78110000  0.45080000  0.16400000  1
  C  C225  1  0.79180000  0.65820000  0.79200000  1
  C  C226  1  0.80530000  0.40760000  0.12840000  1
  C  C227  1  0.80680000  0.87780000  0.00860000  1
  C  C228  1  0.81060000  0.33100000  0.75240000  1
  C  C229  1  0.82660000  0.81320000  0.00640000  1
  C  C230  1  0.83960000  0.10960000  0.46220000  1
  C  C231  1  0.84230000  0.44480000  0.80700000  1
  C  C232  1  0.85040000  0.76120000  0.85490000  1
  C  C233  1  0.85540000  0.93100000  0.98380000  1
  C  C234  1  0.85560000  0.25440000  0.38030000  1
  C  C235  1  0.85730000  0.51440000  0.19580000  1
  C  C236  1  0.86470000  0.30020000  0.35010000  1
  C  C237  1  0.86640000  0.65820000  0.29200000  1
  C  C238  1  0.87240000  0.64300000  0.79960000  1
  C  C239  1  0.87870000  0.39740000  0.78140000  1
  C  C240  1  0.89640000  0.80440000  0.97840000  1
  C  C241  1  0.89650000  0.61360000  0.25470000  1
  C  C242  1  0.90800000  0.80440000  0.47840000  1
  C  C243  1  0.91080000  0.76120000  0.35490000  1
  C  C244  1  0.92440000  0.06900000  0.51620000  1
  C  C245  1  0.92450000  0.91760000  0.95750000  1
  C  C246  1  0.92900000  0.12220000  0.49140000  1
  C  C247  1  0.94010000  0.68860000  0.83470000  1
  C  C248  1  0.94010000  0.71920000  0.32020000  1
  C  C249  1  0.98420000  0.41300000  0.78020000  1
  C  C250  1  0.98660000  0.81320000  0.50640000  1
  C  C251  1  0.99310000  0.91760000  0.45750000  1
  I  I252  1  0.03304000  0.53604000  0.70634000  1
  I  I253  1  0.11395000  0.75674000  0.94626000  1
  I  I254  1  0.11799000  0.94444000  0.87479000  1
  I  I255  1  0.15389000  0.78676000  0.40428000  1
  I  I256  1  0.17355000  0.05556000  0.62521000  1
  I  I257  1  0.21059000  0.74662000  0.80674000  1
  I  I258  1  0.27311000  0.71470000  0.51218000  1
  I  I259  1  0.35721000  0.24326000  0.55374000  1
  I  I260  1  0.36713000  0.21324000  0.09572000  1
  I  I261  1  0.44159000  0.71470000  0.01218000  1
  I  I262  1  0.46397000  0.25338000  0.69326000  1
  I  I263  1  0.49700000  0.46396000  0.79366000  1
  I  I264  1  0.50300000  0.53604000  0.20634000  1
  I  I265  1  0.53603000  0.74662000  0.30674000  1
  I  I266  1  0.55841000  0.28530000  0.98782000  1
  I  I267  1  0.63287000  0.78676000  0.90428000  1
  I  I268  1  0.64279000  0.75674000  0.44626000  1
  I  I269  1  0.72689000  0.28530000  0.48782000  1
  I  I270  1  0.78941000  0.25338000  0.19326000  1
  I  I271  1  0.82645000  0.94444000  0.37479000  1
  I  I272  1  0.84611000  0.21324000  0.59572000  1
  I  I273  1  0.88201000  0.05556000  0.12521000  1
  I  I274  1  0.88605000  0.24326000  0.05374000  1
  I  I275  1  0.96696000  0.46396000  0.29366000  1
  N  N276  1  0.00740000  0.36580000  0.74880000  1
  N  N277  1  0.04760000  0.47260000  0.81010000  1
  N  N278  1  0.05530000  0.14400000  0.04550000  1
  N  N279  1  0.07030000  0.25200000  0.13740000  1
  N  N280  1  0.08870000  0.14400000  0.54550000  1
  N  N281  1  0.14810000  0.84680000  0.56560000  1
  N  N282  1  0.17400000  0.44640000  0.77180000  1
  N  N283  1  0.18170000  0.25200000  0.63740000  1
  N  N284  1  0.20250000  0.72280000  0.68400000  1
  N  N285  1  0.24540000  0.94580000  0.53120000  1
  N  N286  1  0.27240000  0.44640000  0.27180000  1
  N  N287  1  0.29960000  0.05420000  0.96880000  1
  N  N288  1  0.30130000  0.15320000  0.93440000  1
  N  N289  1  0.30270000  0.66820000  0.39360000  1
  N  N290  1  0.31170000  0.63320000  0.72420000  1
  N  N291  1  0.31340000  0.91880000  0.59090000  1
  N  N292  1  0.32150000  0.63320000  0.22420000  1
  N  N293  1  0.35840000  0.36580000  0.24880000  1
  N  N294  1  0.36550000  0.66820000  0.89360000  1
  N  N295  1  0.39460000  0.08120000  0.90910000  1
  N  N296  1  0.41380000  0.84860000  0.44250000  1
  N  N297  1  0.42500000  0.47260000  0.31010000  1
  N  N298  1  0.43480000  0.84860000  0.94250000  1
  N  N299  1  0.47970000  0.27720000  0.81600000  1
  N  N300  1  0.52030000  0.72280000  0.18400000  1
  N  N301  1  0.56520000  0.15140000  0.05750000  1
  N  N302  1  0.57500000  0.52740000  0.68990000  1
  N  N303  1  0.58620000  0.15140000  0.55750000  1
  N  N304  1  0.60540000  0.91880000  0.09090000  1
  N  N305  1  0.63450000  0.33180000  0.10640000  1
  N  N306  1  0.64160000  0.63420000  0.75120000  1
  N  N307  1  0.67850000  0.36680000  0.77580000  1
  N  N308  1  0.68660000  0.08120000  0.40910000  1
  N  N309  1  0.68830000  0.36680000  0.27580000  1
  N  N310  1  0.69730000  0.33180000  0.60640000  1
  N  N311  1  0.69870000  0.84680000  0.06560000  1
  N  N312  1  0.70040000  0.94580000  0.03120000  1
  N  N313  1  0.72760000  0.55360000  0.72820000  1
  N  N314  1  0.75460000  0.05420000  0.46880000  1
  N  N315  1  0.79750000  0.27720000  0.31600000  1
  N  N316  1  0.81830000  0.74800000  0.36260000  1
  N  N317  1  0.82600000  0.55360000  0.22820000  1
  N  N318  1  0.85190000  0.15320000  0.43440000  1
  N  N319  1  0.91130000  0.85600000  0.45450000  1
  N  N320  1  0.92970000  0.74800000  0.86260000  1
  N  N321  1  0.94470000  0.85600000  0.95450000  1
  N  N322  1  0.95240000  0.52740000  0.18990000  1
  N  N323  1  0.99260000  0.63420000  0.25120000  1
