# generated using pymatgen
data_KEuC8(NO4)2
_symmetry_space_group_name_H-M   'P 1'
_cell_length_a   6.72870000
_cell_length_b   14.25200000
_cell_length_c   15.40000000
_cell_angle_alpha   90.00000000
_cell_angle_beta   90.00000000
_cell_angle_gamma   90.00000000
_symmetry_Int_Tables_number   1
_chemical_formula_structural   KEuC8(NO4)2
_chemical_formula_sum   'K4 Eu4 C32 N8 O32'
_cell_volume   1476.82045896
_cell_formula_units_Z   4
loop_
 _symmetry_equiv_pos_site_id
 _symmetry_equiv_pos_as_xyz
  1  'x, y, z'
loop_
 _atom_site_type_symbol
 _atom_site_label
 _atom_site_symmetry_multiplicity
 _atom_site_fract_x
 _atom_site_fract_y
 _atom_site_fract_z
 _atom_site_occupancy
  K  K0  1  0.25000000  0.80950000  0.23280000  1
  K  K1  1  0.75000000  0.30950000  0.26720000  1
  K  K2  1  0.25000000  0.69050000  0.73280000  1
  K  K3  1  0.75000000  0.19050000  0.76720000  1
  Eu  Eu4  1  0.75000000  0.62359000  0.19665000  1
  Eu  Eu5  1  0.25000000  0.12359000  0.30335000  1
  Eu  Eu6  1  0.75000000  0.87641000  0.69665000  1
  Eu  Eu7  1  0.25000000  0.37641000  0.80335000  1
  C  C8  1  0.75000000  0.50740000  0.00330000  1
  C  C9  1  0.25000000  0.33260000  0.02010000  1
  C  C10  1  0.75000000  0.76230000  0.02270000  1
  C  C11  1  0.75000000  0.43170000  0.07230000  1
  C  C12  1  0.25000000  0.50760000  0.08670000  1
  C  C13  1  0.25000000  0.34920000  0.10960000  1
  C  C14  1  0.25000000  0.60410000  0.12840000  1
  C  C15  1  0.25000000  0.27280000  0.17670000  1
  C  C16  1  0.75000000  0.77280000  0.32330000  1
  C  C17  1  0.75000000  0.10410000  0.37160000  1
  C  C18  1  0.75000000  0.84920000  0.39040000  1
  C  C19  1  0.75000000  0.00760000  0.41330000  1
  C  C20  1  0.25000000  0.93170000  0.42770000  1
  C  C21  1  0.25000000  0.26230000  0.47730000  1
  C  C22  1  0.75000000  0.83260000  0.47990000  1
  C  C23  1  0.25000000  0.00740000  0.49670000  1
  C  C24  1  0.75000000  0.99260000  0.50330000  1
  C  C25  1  0.25000000  0.16740000  0.52010000  1
  C  C26  1  0.75000000  0.73770000  0.52270000  1
  C  C27  1  0.75000000  0.06830000  0.57230000  1
  C  C28  1  0.25000000  0.99240000  0.58670000  1
  C  C29  1  0.25000000  0.15080000  0.60960000  1
  C  C30  1  0.25000000  0.89590000  0.62840000  1
  C  C31  1  0.25000000  0.22720000  0.67670000  1
  C  C32  1  0.75000000  0.72720000  0.82330000  1
  C  C33  1  0.75000000  0.39590000  0.87160000  1
  C  C34  1  0.75000000  0.65080000  0.89040000  1
  C  C35  1  0.75000000  0.49240000  0.91330000  1
  C  C36  1  0.25000000  0.56830000  0.92770000  1
  C  C37  1  0.25000000  0.23770000  0.97730000  1
  C  C38  1  0.75000000  0.66740000  0.97990000  1
  C  C39  1  0.25000000  0.49260000  0.99670000  1
  N  N40  1  0.75000000  0.59480000  0.03340000  1
  N  N41  1  0.25000000  0.43650000  0.14210000  1
  N  N42  1  0.75000000  0.93650000  0.35790000  1
  N  N43  1  0.25000000  0.09480000  0.46660000  1
  N  N44  1  0.75000000  0.90520000  0.53340000  1
  N  N45  1  0.25000000  0.06350000  0.64210000  1
  N  N46  1  0.75000000  0.56350000  0.85790000  1
  N  N47  1  0.25000000  0.40520000  0.96660000  1
  O  O48  1  0.25000000  0.16690000  0.02400000  1
  O  O49  1  0.75000000  0.35010000  0.04920000  1
  O  O50  1  0.75000000  0.76150000  0.10480000  1
  O  O51  1  0.08630000  0.63890000  0.14810000  1
  O  O52  1  0.41370000  0.63890000  0.14810000  1
  O  O53  1  0.75000000  0.46350000  0.15080000  1
  O  O54  1  0.09170000  0.24900000  0.21000000  1
  O  O55  1  0.40830000  0.24900000  0.21000000  1
  O  O56  1  0.59170000  0.74900000  0.29000000  1
  O  O57  1  0.90830000  0.74900000  0.29000000  1
  O  O58  1  0.25000000  0.96350000  0.34920000  1
  O  O59  1  0.58630000  0.13890000  0.35190000  1
  O  O60  1  0.91370000  0.13890000  0.35190000  1
  O  O61  1  0.25000000  0.26150000  0.39520000  1
  O  O62  1  0.25000000  0.85010000  0.45080000  1
  O  O63  1  0.75000000  0.66690000  0.47600000  1
  O  O64  1  0.25000000  0.33310000  0.52400000  1
  O  O65  1  0.75000000  0.14990000  0.54920000  1
  O  O66  1  0.75000000  0.73850000  0.60480000  1
  O  O67  1  0.08630000  0.86110000  0.64810000  1
  O  O68  1  0.41370000  0.86110000  0.64810000  1
  O  O69  1  0.75000000  0.03650000  0.65080000  1
  O  O70  1  0.09170000  0.25100000  0.71000000  1
  O  O71  1  0.40830000  0.25100000  0.71000000  1
  O  O72  1  0.59170000  0.75100000  0.79000000  1
  O  O73  1  0.90830000  0.75100000  0.79000000  1
  O  O74  1  0.25000000  0.53650000  0.84920000  1
  O  O75  1  0.58630000  0.36110000  0.85190000  1
  O  O76  1  0.91370000  0.36110000  0.85190000  1
  O  O77  1  0.25000000  0.23850000  0.89520000  1
  O  O78  1  0.25000000  0.64990000  0.95080000  1
  O  O79  1  0.75000000  0.83310000  0.97600000  1
