# generated using pymatgen
data_Mn2H39C63(N2O)6
_symmetry_space_group_name_H-M   'P 1'
_cell_length_a   14.14100000
_cell_length_b   16.62950147
_cell_length_c   16.62950147
_cell_angle_alpha   114.60759242
_cell_angle_beta   91.28591724
_cell_angle_gamma   91.28591724
_symmetry_Int_Tables_number   1
_chemical_formula_structural   Mn2H39C63(N2O)6
_chemical_formula_sum   'Mn4 H78 C126 N24 O12'
_cell_volume   3552.33405314
_cell_formula_units_Z   2
loop_
 _symmetry_equiv_pos_site_id
 _symmetry_equiv_pos_as_xyz
  1  'x, y, z'
loop_
 _atom_site_type_symbol
 _atom_site_label
 _atom_site_symmetry_multiplicity
 _atom_site_fract_x
 _atom_site_fract_y
 _atom_site_fract_z
 _atom_site_occupancy
  C  C0  1  0.75000000  0.95770000  0.04230000  1
  C  C1  1  0.25000000  0.94280000  0.05720000  1
  C  C2  1  0.75000000  0.90410000  0.09590000  1
  C  C3  1  0.25000000  0.09590000  0.90410000  1
  C  C4  1  0.75000000  0.05720000  0.94280000  1
  C  C5  1  0.25000000  0.04230000  0.95770000  1
  C  C6  1  0.43980000  0.88570000  0.08510000  1
  C  C7  1  0.93980000  0.08510000  0.88570000  1
  C  C8  1  0.58560000  0.66560000  0.29760000  1
  C  C9  1  0.08560000  0.29760000  0.66560000  1
  C  C10  1  0.82870000  0.95830000  0.99310000  1
  C  C11  1  0.32870000  0.99310000  0.95830000  1
  C  C12  1  0.32780000  0.94360000  0.00740000  1
  C  C13  1  0.82780000  0.00740000  0.94360000  1
  C  C14  1  0.58040000  0.59850000  0.32610000  1
  C  C15  1  0.08040000  0.32610000  0.59850000  1
  C  C16  1  0.52060000  0.66230000  0.23210000  1
  C  C17  1  0.02060000  0.23210000  0.66230000  1
  C  C18  1  0.43650000  0.68650000  0.13570000  1
  C  C19  1  0.93650000  0.13570000  0.68650000  1
  C  C20  1  0.51270000  0.52820000  0.28820000  1
  C  C21  1  0.01270000  0.28820000  0.52820000  1
  C  C22  1  0.45460000  0.59070000  0.19430000  1
  C  C23  1  0.95460000  0.19430000  0.59070000  1
  C  C24  1  0.52780000  0.80310000  0.98050000  1
  C  C25  1  0.02780000  0.98050000  0.80310000  1
  C  C26  1  0.46260000  0.84110000  0.94190000  1
  C  C27  1  0.96260000  0.94190000  0.84110000  1
  C  C28  1  0.74140000  0.66980000  0.09920000  1
  C  C29  1  0.24140000  0.09920000  0.66980000  1
  C  C30  1  0.05250000  0.67570000  0.08750000  1
  C  C31  1  0.55250000  0.08750000  0.67570000  1
  C  C32  1  0.44910000  0.52270000  0.22170000  1
  C  C33  1  0.94910000  0.22170000  0.52270000  1
  C  C34  1  0.24440000  0.60440000  0.07440000  1
  C  C35  1  0.74440000  0.07440000  0.60440000  1
  C  C36  1  0.59360000  0.74520000  0.92860000  1
  C  C37  1  0.09360000  0.92860000  0.74520000  1
  C  C38  1  0.45900000  0.81920000  0.85220000  1
  C  C39  1  0.95900000  0.85220000  0.81920000  1
  C  C40  1  0.96870000  0.67240000  0.97640000  1
  C  C41  1  0.46870000  0.97640000  0.67240000  1
  C  C42  1  0.32360000  0.55880000  0.07580000  1
  C  C43  1  0.82360000  0.07580000  0.55880000  1
  C  C44  1  0.02100000  0.42860000  0.20340000  1
  C  C45  1  0.52100000  0.20340000  0.42860000  1
  C  C46  1  0.74610000  0.57380000  0.03620000  1
  C  C47  1  0.24610000  0.03620000  0.57380000  1
  C  C48  1  0.90510000  0.68750000  0.91970000  1
  C  C49  1  0.40510000  0.91970000  0.68750000  1
  C  C50  1  0.96000000  0.44610000  0.14790000  1
  C  C51  1  0.46000000  0.14790000  0.44610000  1
  C  C52  1  0.16840000  0.56020000  0.01740000  1
  C  C53  1  0.66840000  0.01740000  0.56020000  1
  C  C54  1  0.82720000  0.52840000  0.03800000  1
  C  C55  1  0.32720000  0.03800000  0.52840000  1
  C  C56  1  0.59100000  0.72580000  0.83900000  1
  C  C57  1  0.09100000  0.83900000  0.72580000  1
  C  C58  1  0.52390000  0.76180000  0.80140000  1
  C  C59  1  0.02390000  0.80140000  0.76180000  1
  C  C60  1  0.03380000  0.60460000  0.94260000  1
  C  C61  1  0.53380000  0.94260000  0.60460000  1
  C  C62  1  0.08840000  0.36350000  0.17050000  1
  C  C63  1  0.58840000  0.17050000  0.36350000  1
  C  C64  1  0.66980000  0.52970000  0.97950000  1
  C  C65  1  0.16980000  0.97950000  0.52970000  1
  C  C66  1  0.33020000  0.47030000  0.02050000  1
  C  C67  1  0.83020000  0.02050000  0.47030000  1
  C  C68  1  0.91160000  0.63650000  0.82950000  1
  C  C69  1  0.41160000  0.82950000  0.63650000  1
  C  C70  1  0.96620000  0.39540000  0.05740000  1
  C  C71  1  0.46620000  0.05740000  0.39540000  1
  C  C72  1  0.47610000  0.23820000  0.19860000  1
  C  C73  1  0.97610000  0.19860000  0.23820000  1
  C  C74  1  0.40900000  0.27420000  0.16100000  1
  C  C75  1  0.90900000  0.16100000  0.27420000  1
  C  C76  1  0.17280000  0.47160000  0.96200000  1
  C  C77  1  0.67280000  0.96200000  0.47160000  1
  C  C78  1  0.83160000  0.43980000  0.98260000  1
  C  C79  1  0.33160000  0.98260000  0.43980000  1
  C  C80  1  0.04000000  0.55390000  0.85210000  1
  C  C81  1  0.54000000  0.85210000  0.55390000  1
  C  C82  1  0.09490000  0.31250000  0.08030000  1
  C  C83  1  0.59490000  0.08030000  0.31250000  1
  C  C84  1  0.25390000  0.42620000  0.96380000  1
  C  C85  1  0.75390000  0.96380000  0.42620000  1
  C  C86  1  0.97900000  0.57140000  0.79660000  1
  C  C87  1  0.47900000  0.79660000  0.57140000  1
  C  C88  1  0.67640000  0.44120000  0.92420000  1
  C  C89  1  0.17640000  0.92420000  0.44120000  1
  C  C90  1  0.03130000  0.32760000  0.02360000  1
  C  C91  1  0.53130000  0.02360000  0.32760000  1
  C  C92  1  0.54100000  0.18080000  0.14780000  1
  C  C93  1  0.04100000  0.14780000  0.18080000  1
  C  C94  1  0.40640000  0.25480000  0.07140000  1
  C  C95  1  0.90640000  0.07140000  0.25480000  1
  C  C96  1  0.75560000  0.39560000  0.92560000  1
  C  C97  1  0.25560000  0.92560000  0.39560000  1
  C  C98  1  0.55090000  0.47730000  0.77830000  1
  C  C99  1  0.05090000  0.77830000  0.47730000  1
  C  C100  1  0.94750000  0.32430000  0.91250000  1
  C  C101  1  0.44750000  0.91250000  0.32430000  1
  C  C102  1  0.25860000  0.33020000  0.90080000  1
  C  C103  1  0.75860000  0.90080000  0.33020000  1
  C  C104  1  0.53740000  0.15890000  0.05810000  1
  C  C105  1  0.03740000  0.05810000  0.15890000  1
  C  C106  1  0.47220000  0.19690000  0.01950000  1
  C  C107  1  0.97220000  0.01950000  0.19690000  1
  C  C108  1  0.54540000  0.40930000  0.80570000  1
  C  C109  1  0.04540000  0.80570000  0.40930000  1
  C  C110  1  0.48730000  0.47180000  0.71180000  1
  C  C111  1  0.98730000  0.71180000  0.47180000  1
  C  C112  1  0.56350000  0.31350000  0.86430000  1
  C  C113  1  0.06350000  0.86430000  0.31350000  1
  C  C114  1  0.47940000  0.33770000  0.76790000  1
  C  C115  1  0.97940000  0.76790000  0.33770000  1
  C  C116  1  0.41960000  0.40150000  0.67390000  1
  C  C117  1  0.91960000  0.67390000  0.40150000  1
  C  C118  1  0.67220000  0.05640000  0.99260000  1
  C  C119  1  0.17220000  0.99260000  0.05640000  1
  C  C120  1  0.17130000  0.04170000  0.00690000  1
  C  C121  1  0.67130000  0.00690000  0.04170000  1
  C  C122  1  0.41440000  0.33440000  0.70240000  1
  C  C123  1  0.91440000  0.70240000  0.33440000  1
  C  C124  1  0.56020000  0.11430000  0.91490000  1
  C  C125  1  0.06020000  0.91490000  0.11430000  1
  H  H126  1  0.25000000  0.90960000  0.09040000  1
  H  H127  1  0.75000000  0.09040000  0.90960000  1
  H  H128  1  0.62200000  0.59980000  0.37080000  1
  H  H129  1  0.12200000  0.37080000  0.59980000  1
  H  H130  1  0.86890000  0.67870000  0.28870000  1
  H  H131  1  0.36890000  0.28870000  0.67870000  1
  H  H132  1  0.08610000  0.85970000  0.08530000  1
  H  H133  1  0.58610000  0.08530000  0.85970000  1
  H  H134  1  0.88110000  0.92580000  0.99380000  1
  H  H135  1  0.38110000  0.99380000  0.92580000  1
  H  H136  1  0.07660000  0.69200000  0.14480000  1
  H  H137  1  0.57660000  0.14480000  0.69200000  1
  H  H138  1  0.41230000  0.71300000  0.10060000  1
  H  H139  1  0.91230000  0.10060000  0.71300000  1
  H  H140  1  0.51080000  0.48390000  0.30870000  1
  H  H141  1  0.01080000  0.30870000  0.48390000  1
  H  H142  1  0.24150000  0.66440000  0.11120000  1
  H  H143  1  0.74150000  0.11120000  0.66440000  1
  H  H144  1  0.01750000  0.46070000  0.26430000  1
  H  H145  1  0.51750000  0.26430000  0.46070000  1
  H  H146  1  0.63790000  0.72050000  0.95290000  1
  H  H147  1  0.13790000  0.95290000  0.72050000  1
  H  H148  1  0.40500000  0.47600000  0.19660000  1
  H  H149  1  0.90500000  0.19660000  0.47600000  1
  H  H150  1  0.85980000  0.73040000  0.94140000  1
  H  H151  1  0.35980000  0.94140000  0.73040000  1
  H  H152  1  0.91420000  0.82720000  0.84280000  1
  H  H153  1  0.41420000  0.84280000  0.82720000  1
  H  H154  1  0.91610000  0.49020000  0.17000000  1
  H  H155  1  0.41610000  0.17000000  0.49020000  1
  H  H156  1  0.87810000  0.55770000  0.07630000  1
  H  H157  1  0.37810000  0.07630000  0.55770000  1
  H  H158  1  0.12970000  0.35420000  0.20980000  1
  H  H159  1  0.62970000  0.20980000  0.35420000  1
  H  H160  1  0.61500000  0.55940000  0.97900000  1
  H  H161  1  0.11500000  0.97900000  0.55940000  1
  H  H162  1  0.97660000  0.25910000  0.25370000  1
  H  H163  1  0.47660000  0.25370000  0.25910000  1
  H  H164  1  0.36510000  0.31220000  0.19700000  1
  H  H165  1  0.86510000  0.19700000  0.31220000  1
  H  H166  1  0.63490000  0.68780000  0.80300000  1
  H  H167  1  0.13490000  0.80300000  0.68780000  1
  H  H168  1  0.02340000  0.74090000  0.74630000  1
  H  H169  1  0.52340000  0.74630000  0.74090000  1
  H  H170  1  0.38500000  0.44060000  0.02100000  1
  H  H171  1  0.88500000  0.02100000  0.44060000  1
  H  H172  1  0.87030000  0.64580000  0.79020000  1
  H  H173  1  0.37030000  0.79020000  0.64580000  1
  H  H174  1  0.12190000  0.44230000  0.92370000  1
  H  H175  1  0.62190000  0.92370000  0.44230000  1
  H  H176  1  0.08390000  0.50980000  0.83000000  1
  H  H177  1  0.58390000  0.83000000  0.50980000  1
  H  H178  1  0.08580000  0.17280000  0.15720000  1
  H  H179  1  0.58580000  0.15720000  0.17280000  1
  H  H180  1  0.14020000  0.26960000  0.05860000  1
  H  H181  1  0.64020000  0.05860000  0.26960000  1
  H  H182  1  0.59500000  0.52400000  0.80340000  1
  H  H183  1  0.09500000  0.80340000  0.52400000  1
  H  H184  1  0.36210000  0.27950000  0.04710000  1
  H  H185  1  0.86210000  0.04710000  0.27950000  1
  H  H186  1  0.98250000  0.53930000  0.73570000  1
  H  H187  1  0.48250000  0.73570000  0.53930000  1
  H  H188  1  0.75850000  0.33560000  0.88880000  1
  H  H189  1  0.25850000  0.88880000  0.33560000  1
  H  H190  1  0.48920000  0.51610000  0.69130000  1
  H  H191  1  0.98920000  0.69130000  0.51610000  1
  H  H192  1  0.58770000  0.28700000  0.89940000  1
  H  H193  1  0.08770000  0.89940000  0.28700000  1
  H  H194  1  0.92340000  0.30800000  0.85520000  1
  H  H195  1  0.42340000  0.85520000  0.30800000  1
  H  H196  1  0.11890000  0.07420000  0.00620000  1
  H  H197  1  0.61890000  0.00620000  0.07420000  1
  H  H198  1  0.91390000  0.14030000  0.91470000  1
  H  H199  1  0.41390000  0.91470000  0.14030000  1
  H  H200  1  0.13110000  0.32130000  0.71130000  1
  H  H201  1  0.63110000  0.71130000  0.32130000  1
  H  H202  1  0.37800000  0.40020000  0.62920000  1
  H  H203  1  0.87800000  0.62920000  0.40020000  1
  Mn  Mn204  1  0.89319000  0.81761000  0.17411000  1
  Mn  Mn205  1  0.39319000  0.17411000  0.81761000  1
  Mn  Mn206  1  0.10681000  0.18239000  0.82589000  1
  Mn  Mn207  1  0.60681000  0.82589000  0.18239000  1
  N  N208  1  0.50700000  0.72220000  0.19400000  1
  N  N209  1  0.00700000  0.19400000  0.72220000  1
  N  N210  1  0.40720000  0.89480000  0.01160000  1
  N  N211  1  0.90720000  0.01160000  0.89480000  1
  N  N212  1  0.51110000  0.83250000  0.07110000  1
  N  N213  1  0.01110000  0.07110000  0.83250000  1
  N  N214  1  0.98190000  0.71630000  0.06790000  1
  N  N215  1  0.48190000  0.06790000  0.71630000  1
  N  N216  1  0.40220000  0.60750000  0.13150000  1
  N  N217  1  0.90220000  0.13150000  0.60750000  1
  N  N218  1  0.08620000  0.60810000  0.01590000  1
  N  N219  1  0.58620000  0.01590000  0.60810000  1
  N  N220  1  0.91380000  0.39190000  0.98410000  1
  N  N221  1  0.41380000  0.98410000  0.39190000  1
  N  N222  1  0.59780000  0.39250000  0.86850000  1
  N  N223  1  0.09780000  0.86850000  0.39250000  1
  N  N224  1  0.01810000  0.28370000  0.93210000  1
  N  N225  1  0.51810000  0.93210000  0.28370000  1
  N  N226  1  0.48890000  0.16750000  0.92890000  1
  N  N227  1  0.98890000  0.92890000  0.16750000  1
  N  N228  1  0.59280000  0.10520000  0.98840000  1
  N  N229  1  0.09280000  0.98840000  0.10520000  1
  N  N230  1  0.49300000  0.27780000  0.80600000  1
  N  N231  1  0.99300000  0.80600000  0.27780000  1
  O  O232  1  0.81280000  0.84700000  0.08000000  1
  O  O233  1  0.31280000  0.08000000  0.84700000  1
  O  O234  1  0.80820000  0.70330000  0.15510000  1
  O  O235  1  0.30820000  0.15510000  0.70330000  1
  O  O236  1  0.66860000  0.70910000  0.08990000  1
  O  O237  1  0.16860000  0.08990000  0.70910000  1
  O  O238  1  0.33140000  0.29090000  0.91010000  1
  O  O239  1  0.83140000  0.91010000  0.29090000  1
  O  O240  1  0.19180000  0.29670000  0.84490000  1
  O  O241  1  0.69180000  0.84490000  0.29670000  1
  O  O242  1  0.18720000  0.15300000  0.92000000  1
  O  O243  1  0.68720000  0.92000000  0.15300000  1
