# generated using pymatgen
data_AgH36C30(SN)4
_symmetry_space_group_name_H-M   'P 1'
_cell_length_a   13.74570000
_cell_length_b   18.58275553
_cell_length_c   18.58275553
_cell_angle_alpha   82.13787573
_cell_angle_beta   68.29357402
_cell_angle_gamma   68.29357402
_symmetry_Int_Tables_number   1
_chemical_formula_structural   AgH36C30(SN)4
_chemical_formula_sum   'Ag4 H144 C120 S16 N16'
_cell_volume   4097.35586595
_cell_formula_units_Z   4
loop_
 _symmetry_equiv_pos_site_id
 _symmetry_equiv_pos_as_xyz
  1  'x, y, z'
loop_
 _atom_site_type_symbol
 _atom_site_label
 _atom_site_symmetry_multiplicity
 _atom_site_fract_x
 _atom_site_fract_y
 _atom_site_fract_z
 _atom_site_occupancy
  Ag  Ag0  1  0.45313000  0.17187000  0.67187000  1
  Ag  Ag1  1  0.87500000  0.67187000  0.82813000  1
  Ag  Ag2  1  0.37500000  0.32813000  0.17187000  1
  Ag  Ag3  1  0.29687000  0.82813000  0.32813000  1
  C  C4  1  0.48270000  0.83870000  0.09190000  1
  C  C5  1  0.33670000  0.59190000  0.33870000  1
  C  C6  1  0.40580000  0.80420000  0.09600000  1
  C  C7  1  0.44400000  0.59600000  0.30420000  1
  C  C8  1  0.65390000  0.22560000  0.65140000  1
  C  C9  1  0.21910000  0.15140000  0.72560000  1
  C  C10  1  0.56420000  0.84400000  0.02160000  1
  C  C11  1  0.32020000  0.52160000  0.34400000  1
  C  C12  1  0.26670000  0.31920000  0.54460000  1
  C  C13  1  0.61950000  0.04460000  0.81920000  1
  C  C14  1  0.74670000  0.79600000  0.06360000  1
  C  C15  1  0.14370000  0.56360000  0.29600000  1
  C  C16  1  0.73480000  0.25240000  0.59780000  1
  C  C17  1  0.16500000  0.09780000  0.75240000  1
  C  C18  1  0.21320000  0.79520000  0.04600000  1
  C  C19  1  0.69560000  0.54600000  0.29520000  1
  C  C20  1  0.19450000  0.28430000  0.54070000  1
  C  C21  1  0.73050000  0.04070000  0.78430000  1
  C  C22  1  0.33580000  0.34400000  0.47840000  1
  C  C23  1  0.59180000  0.97840000  0.84400000  1
  C  C24  1  0.40830000  0.77290000  0.03090000  1
  C  C25  1  0.53790000  0.53090000  0.27290000  1
  C  C26  1  0.31700000  0.68030000  0.10930000  1
  C  C27  1  0.64340000  0.60930000  0.18030000  1
  C  C28  1  0.71410000  0.25870000  0.53030000  1
  C  C29  1  0.24690000  0.03030000  0.75870000  1
  C  C30  1  0.56130000  0.81920000  0.95540000  1
  C  C31  1  0.41410000  0.45540000  0.31920000  1
  C  C32  1  0.32770000  0.73230000  0.03770000  1
  C  C33  1  0.65230000  0.53770000  0.23230000  1
  C  C34  1  0.00920000  0.29520000  0.45400000  1
  C  C35  1  0.99160000  0.95400000  0.79520000  1
  C  C36  1  0.32460000  0.33870000  0.40810000  1
  C  C37  1  0.67860000  0.90810000  0.83870000  1
  C  C38  1  0.48520000  0.78430000  0.95930000  1
  C  C39  1  0.52120000  0.45930000  0.28430000  1
  C  C40  1  0.18920000  0.27290000  0.46910000  1
  C  C41  1  0.81880000  0.96910000  0.77290000  1
  C  C42  1  0.81780000  0.72650000  0.01350000  1
  C  C43  1  0.19220000  0.51350000  0.22650000  1
  C  C44  1  0.56030000  0.29600000  0.43640000  1
  C  C45  1  0.45730000  0.93640000  0.79600000  1
  C  C46  1  0.99440000  0.75870000  0.96970000  1
  C  C47  1  0.02720000  0.46970000  0.25870000  1
  C  C48  1  0.07950000  0.18350000  0.53250000  1
  C  C49  1  0.95450000  0.03250000  0.68350000  1
  C  C50  1  0.58130000  0.22650000  0.48650000  1
  C  C51  1  0.45570000  0.98650000  0.72650000  1
  C  C52  1  0.25180000  0.30420000  0.40400000  1
  C  C53  1  0.79000000  0.90400000  0.80420000  1
  C  C54  1  0.11540000  0.23230000  0.46230000  1
  C  C55  1  0.94000000  0.96230000  0.73230000  1
  C  C56  1  0.08260000  0.75240000  0.90220000  1
  C  C57  1  0.01280000  0.40220000  0.25240000  1
  C  C58  1  0.36200000  0.68350000  0.96750000  1
  C  C59  1  0.73700000  0.46750000  0.18350000  1
  C  C60  1  0.05530000  0.72560000  0.84860000  1
  C  C61  1  0.12050000  0.34860000  0.22560000  1
  C  C62  1  0.17630000  0.18030000  0.39070000  1
  C  C63  1  0.00270000  0.89070000  0.68030000  1
  C  C64  1  0.57370000  0.10930000  0.31970000  1
  C  C65  1  0.74730000  0.81970000  0.60930000  1
  C  C66  1  0.69470000  0.65140000  0.77440000  1
  C  C67  1  0.62950000  0.27440000  0.15140000  1
  C  C68  1  0.38800000  0.53250000  0.81650000  1
  C  C69  1  0.01300000  0.31650000  0.03250000  1
  C  C70  1  0.66740000  0.59780000  0.74760000  1
  C  C71  1  0.73720000  0.24760000  0.09780000  1
  C  C72  1  0.63460000  0.03770000  0.26770000  1
  C  C73  1  0.81000000  0.76770000  0.53770000  1
  C  C74  1  0.49820000  0.09600000  0.19580000  1
  C  C75  1  0.96000000  0.69580000  0.59600000  1
  C  C76  1  0.16870000  0.01350000  0.27350000  1
  C  C77  1  0.29430000  0.77350000  0.51350000  1
  C  C78  1  0.67050000  0.96750000  0.31650000  1
  C  C79  1  0.79550000  0.81650000  0.46750000  1
  C  C80  1  0.75560000  0.53030000  0.74130000  1
  C  C81  1  0.72280000  0.24130000  0.03030000  1
  C  C82  1  0.18970000  0.06360000  0.20400000  1
  C  C83  1  0.29270000  0.70400000  0.56360000  1
  C  C84  1  0.93220000  0.48650000  0.77350000  1
  C  C85  1  0.55780000  0.27350000  0.98650000  1
  C  C86  1  0.56080000  0.03090000  0.22710000  1
  C  C87  1  0.93120000  0.72710000  0.53090000  1
  C  C88  1  0.26480000  0.54070000  0.71570000  1
  C  C89  1  0.22880000  0.21570000  0.04070000  1
  C  C90  1  0.42540000  0.09190000  0.16130000  1
  C  C91  1  0.07140000  0.66130000  0.59190000  1
  C  C92  1  0.74080000  0.04600000  0.20480000  1
  C  C93  1  0.75840000  0.70480000  0.54600000  1
  C  C94  1  0.42230000  0.46230000  0.76770000  1
  C  C95  1  0.09770000  0.26770000  0.96230000  1
  C  C96  1  0.18870000  0.54460000  0.68080000  1
  C  C97  1  0.33590000  0.18080000  0.04460000  1
  C  C98  1  0.03590000  0.96970000  0.24130000  1
  C  C99  1  0.50310000  0.74130000  0.46970000  1
  C  C100  1  0.43300000  0.39070000  0.81970000  1
  C  C101  1  0.10660000  0.31970000  0.89070000  1
  C  C102  1  0.34170000  0.46910000  0.72710000  1
  C  C103  1  0.21210000  0.22710000  0.96910000  1
  C  C104  1  0.41420000  0.02160000  0.15600000  1
  C  C105  1  0.15820000  0.65600000  0.52160000  1
  C  C106  1  0.55550000  0.95930000  0.21570000  1
  C  C107  1  0.01950000  0.71570000  0.45930000  1
  C  C108  1  0.53680000  0.45400000  0.70480000  1
  C  C109  1  0.05440000  0.20480000  0.95400000  1
  C  C110  1  0.01520000  0.90220000  0.24760000  1
  C  C111  1  0.58500000  0.74760000  0.40220000  1
  C  C112  1  0.00330000  0.43640000  0.70400000  1
  C  C113  1  0.60630000  0.20400000  0.93640000  1
  C  C114  1  0.48330000  0.95540000  0.18080000  1
  C  C115  1  0.13050000  0.68080000  0.45540000  1
  C  C116  1  0.18580000  0.47840000  0.65600000  1
  C  C117  1  0.42980000  0.15600000  0.97840000  1
  C  C118  1  0.09610000  0.84860000  0.27440000  1
  C  C119  1  0.53090000  0.77440000  0.34860000  1
  C  C120  1  0.34420000  0.40400000  0.69580000  1
  C  C121  1  0.30600000  0.19580000  0.90400000  1
  C  C122  1  0.26730000  0.40810000  0.66130000  1
  C  C123  1  0.41330000  0.16130000  0.90810000  1
  H  H124  1  0.35020000  0.80200000  0.14460000  1
  H  H125  1  0.45320000  0.64460000  0.30200000  1
  H  H126  1  0.64630000  0.21580000  0.70440000  1
  H  H127  1  0.18350000  0.20440000  0.71580000  1
  H  H128  1  0.18740000  0.82620000  0.09240000  1
  H  H129  1  0.64400000  0.59240000  0.32620000  1
  H  H130  1  0.79450000  0.81220000  0.08200000  1
  H  H131  1  0.06130000  0.58200000  0.31220000  1
  H  H132  1  0.69200000  0.78160000  0.10960000  1
  H  H133  1  0.16680000  0.60960000  0.28160000  1
  H  H134  1  0.79160000  0.26390000  0.60610000  1
  H  H135  1  0.08840000  0.10610000  0.76390000  1
  H  H136  1  0.28480000  0.71210000  0.15590000  1
  H  H137  1  0.59720000  0.65590000  0.21210000  1
  H  H138  1  0.14840000  0.26790000  0.58710000  1
  H  H139  1  0.74660000  0.08710000  0.76790000  1
  H  H140  1  0.22000000  0.82870000  0.00030000  1
  H  H141  1  0.70100000  0.50030000  0.32870000  1
  H  H142  1  0.97030000  0.32870000  0.49970000  1
  H  H143  1  0.95130000  0.99970000  0.82870000  1
  H  H144  1  0.15920000  0.77050000  0.05070000  1
  H  H145  1  0.76960000  0.55070000  0.27050000  1
  H  H146  1  0.98630000  0.77660000  0.01780000  1
  H  H147  1  0.96930000  0.51780000  0.27660000  1
  H  H148  1  0.04670000  0.21490000  0.57950000  1
  H  H149  1  0.90890000  0.07950000  0.71490000  1
  H  H150  1  0.26850000  0.65190000  0.11150000  1
  H  H151  1  0.71810000  0.61150000  0.15190000  1
  H  H152  1  0.75410000  0.27660000  0.48220000  1
  H  H153  1  0.23710000  0.98220000  0.77660000  1
  H  H154  1  0.39100000  0.64350000  0.10630000  1
  H  H155  1  0.60920000  0.60630000  0.14350000  1
  H  H156  1  0.02980000  0.32620000  0.40760000  1
  H  H157  1  0.98640000  0.90760000  0.82620000  1
  H  H158  1  0.51030000  0.21680000  0.51400000  1
  H  H159  1  0.50890000  0.01400000  0.71680000  1
  H  H160  1  0.62650000  0.31220000  0.41800000  1
  H  H161  1  0.39330000  0.91800000  0.81220000  1
  H  H162  1  0.83770000  0.68090000  0.04650000  1
  H  H163  1  0.18490000  0.54650000  0.18090000  1
  H  H164  1  0.95990000  0.27050000  0.44930000  1
  H  H165  1  0.07030000  0.94930000  0.77050000  1
  H  H166  1  0.77430000  0.71680000  0.98600000  1
  H  H167  1  0.27290000  0.48600000  0.21680000  1
  H  H168  1  0.02400000  0.16490000  0.52790000  1
  H  H169  1  0.03320000  0.02790000  0.66490000  1
  H  H170  1  0.48550000  0.76790000  0.91290000  1
  H  H171  1  0.58370000  0.41290000  0.26790000  1
  H  H172  1  0.14450000  0.13910000  0.53550000  1
  H  H173  1  0.93090000  0.03550000  0.63910000  1
  H  H174  1  0.55160000  0.28160000  0.39040000  1
  H  H175  1  0.52640000  0.89040000  0.78160000  1
  H  H176  1  0.14770000  0.76390000  0.89390000  1
  H  H177  1  0.94450000  0.39390000  0.26390000  1
  H  H178  1  0.24480000  0.30200000  0.35540000  1
  H  H179  1  0.84780000  0.85540000  0.80200000  1
  H  H180  1  0.30190000  0.66490000  0.97210000  1
  H  H181  1  0.81110000  0.47210000  0.16490000  1
  H  H182  1  0.37620000  0.71490000  0.92050000  1
  H  H183  1  0.73840000  0.42050000  0.21490000  1
  H  H184  1  0.63420000  0.18090000  0.45350000  1
  H  H185  1  0.48140000  0.95350000  0.68090000  1
  H  H186  1  0.43000000  0.63910000  0.96450000  1
  H  H187  1  0.71640000  0.46450000  0.13910000  1
  H  H188  1  0.19070000  0.21210000  0.34410000  1
  H  H189  1  0.00310000  0.84410000  0.71210000  1
  H  H190  1  0.13000000  0.15190000  0.38850000  1
  H  H191  1  0.07960000  0.88850000  0.65190000  1
  H  H192  1  0.24730000  0.14350000  0.39370000  1
  H  H193  1  0.96550000  0.89370000  0.64350000  1
  H  H194  1  0.10070000  0.71580000  0.79560000  1
  H  H195  1  0.13790000  0.29560000  0.21580000  1
  H  H196  1  0.64930000  0.70440000  0.78420000  1
  H  H197  1  0.61210000  0.28420000  0.20440000  1
  H  H198  1  0.50270000  0.10630000  0.35650000  1
  H  H199  1  0.78450000  0.85650000  0.60630000  1
  H  H200  1  0.62000000  0.11150000  0.34810000  1
  H  H201  1  0.67040000  0.84810000  0.61150000  1
  H  H202  1  0.55930000  0.15590000  0.28790000  1
  H  H203  1  0.74690000  0.78790000  0.65590000  1
  H  H204  1  0.32000000  0.53550000  0.86090000  1
  H  H205  1  0.03360000  0.36090000  0.03550000  1
  H  H206  1  0.11580000  0.04650000  0.31910000  1
  H  H207  1  0.26860000  0.81910000  0.54650000  1
  H  H208  1  0.37380000  0.57950000  0.78510000  1
  H  H209  1  0.01160000  0.28510000  0.07950000  1
  H  H210  1  0.44810000  0.52790000  0.83510000  1
  H  H211  1  0.93890000  0.33510000  0.02790000  1
  H  H212  1  0.50520000  0.14460000  0.19800000  1
  H  H213  1  0.90220000  0.69800000  0.64460000  1
  H  H214  1  0.60230000  0.60610000  0.73610000  1
  H  H215  1  0.80550000  0.23610000  0.10610000  1
  H  H216  1  0.19840000  0.10960000  0.21840000  1
  H  H217  1  0.22360000  0.71840000  0.60960000  1
  H  H218  1  0.60550000  0.96450000  0.36090000  1
  H  H219  1  0.81910000  0.86090000  0.46450000  1
  H  H220  1  0.26450000  0.58710000  0.73210000  1
  H  H221  1  0.16630000  0.23210000  0.08710000  1
  H  H222  1  0.72600000  0.97210000  0.33510000  1
  H  H223  1  0.71680000  0.83510000  0.47210000  1
  H  H224  1  0.97570000  0.51400000  0.78320000  1
  H  H225  1  0.47710000  0.28320000  0.01400000  1
  H  H226  1  0.79010000  0.05070000  0.22950000  1
  H  H227  1  0.67970000  0.72950000  0.55070000  1
  H  H228  1  0.91230000  0.45350000  0.81910000  1
  H  H229  1  0.56510000  0.31910000  0.95350000  1
  H  H230  1  0.12350000  0.08200000  0.18780000  1
  H  H231  1  0.35670000  0.68780000  0.58200000  1
  H  H232  1  0.23970000  0.98600000  0.28320000  1
  H  H233  1  0.24110000  0.78320000  0.48600000  1
  H  H234  1  0.72020000  0.09240000  0.17380000  1
  H  H235  1  0.76360000  0.67380000  0.59240000  1
  H  H236  1  0.35900000  0.39370000  0.85650000  1
  H  H237  1  0.14080000  0.35650000  0.89370000  1
  H  H238  1  0.99590000  0.01780000  0.22340000  1
  H  H239  1  0.51290000  0.72340000  0.51780000  1
  H  H240  1  0.48150000  0.38850000  0.84810000  1
  H  H241  1  0.03190000  0.34810000  0.88850000  1
  H  H242  1  0.76370000  0.48220000  0.72340000  1
  H  H243  1  0.78070000  0.22340000  0.98220000  1
  H  H244  1  0.70330000  0.92050000  0.28510000  1
  H  H245  1  0.84110000  0.78510000  0.42050000  1
  H  H246  1  0.59080000  0.44930000  0.72950000  1
  H  H247  1  0.98040000  0.22950000  0.94930000  1
  H  H248  1  0.77970000  0.00030000  0.17130000  1
  H  H249  1  0.79870000  0.67130000  0.50030000  1
  H  H250  1  0.53000000  0.49970000  0.67130000  1
  H  H251  1  0.04900000  0.17130000  0.99970000  1
  H  H252  1  0.60160000  0.91290000  0.23210000  1
  H  H253  1  0.00340000  0.73210000  0.41290000  1
  H  H254  1  0.46520000  0.34410000  0.78790000  1
  H  H255  1  0.15280000  0.28790000  0.84410000  1
  H  H256  1  0.95840000  0.89390000  0.23610000  1
  H  H257  1  0.66160000  0.73610000  0.39390000  1
  H  H258  1  0.05800000  0.39040000  0.71840000  1
  H  H259  1  0.58320000  0.21840000  0.89040000  1
  H  H260  1  0.95550000  0.41800000  0.68780000  1
  H  H261  1  0.68870000  0.18780000  0.91800000  1
  H  H262  1  0.56260000  0.40760000  0.67380000  1
  H  H263  1  0.10600000  0.17380000  0.90760000  1
  H  H264  1  0.10370000  0.79560000  0.28420000  1
  H  H265  1  0.56650000  0.78420000  0.29560000  1
  H  H266  1  0.39980000  0.35540000  0.69800000  1
  H  H267  1  0.29680000  0.19800000  0.85540000  1
  N  N268  1  0.58780000  0.21560000  0.61880000  1
  N  N269  1  0.32780000  0.11880000  0.71560000  1
  N  N270  1  0.62690000  0.23480000  0.54360000  1
  N  N271  1  0.34470000  0.04360000  0.73480000  1
  N  N272  1  0.92050000  0.73480000  0.95640000  1
  N  N273  1  0.13830000  0.45640000  0.23480000  1
  N  N274  1  0.95660000  0.71560000  0.88120000  1
  N  N275  1  0.19660000  0.38120000  0.21560000  1
  N  N276  1  0.79340000  0.61880000  0.78440000  1
  N  N277  1  0.55340000  0.28440000  0.11880000  1
  N  N278  1  0.82950000  0.54360000  0.76520000  1
  N  N279  1  0.61170000  0.26520000  0.04360000  1
  N  N280  1  0.12310000  0.95640000  0.26520000  1
  N  N281  1  0.40530000  0.76520000  0.45640000  1
  N  N282  1  0.16220000  0.88120000  0.28440000  1
  N  N283  1  0.42220000  0.78440000  0.38120000  1
  S  S284  1  0.27481000  0.31643000  0.63857000  1
  S  S285  1  0.52019000  0.13857000  0.81643000  1
  S  S286  1  0.67092000  0.87861000  0.01617000  1
  S  S287  1  0.18430000  0.51617000  0.37861000  1
  S  S288  1  0.43709000  0.37861000  0.48383000  1
  S  S289  1  0.45047000  0.98383000  0.87861000  1
  S  S290  1  0.66338000  0.81643000  0.86143000  1
  S  S291  1  0.40876000  0.36143000  0.31643000  1
  S  S292  1  0.08662000  0.63857000  0.68357000  1
  S  S293  1  0.34124000  0.18357000  0.13857000  1
  S  S294  1  0.31291000  0.01617000  0.12139000  1
  S  S295  1  0.29953000  0.62139000  0.51617000  1
  S  S296  1  0.07908000  0.48383000  0.62139000  1
  S  S297  1  0.56570000  0.12139000  0.98383000  1
  S  S298  1  0.47519000  0.86143000  0.18357000  1
  S  S299  1  0.22981000  0.68357000  0.36143000  1
