# generated using pymatgen
data_Mn7H48C84(S3O20)2
_symmetry_space_group_name_H-M   'P 1'
_cell_length_a   18.03520000
_cell_length_b   18.05840000
_cell_length_c   25.86760000
_cell_angle_alpha   90.00000000
_cell_angle_beta   90.00000000
_cell_angle_gamma   118.86100000
_symmetry_Int_Tables_number   1
_chemical_formula_structural   Mn7H48C84(S3O20)2
_chemical_formula_sum   'Mn14 H96 C168 S12 O80'
_cell_volume   7378.32835419
_cell_formula_units_Z   2
loop_
 _symmetry_equiv_pos_site_id
 _symmetry_equiv_pos_as_xyz
  1  'x, y, z'
loop_
 _atom_site_type_symbol
 _atom_site_label
 _atom_site_symmetry_multiplicity
 _atom_site_fract_x
 _atom_site_fract_y
 _atom_site_fract_z
 _atom_site_occupancy
  Mn  Mn0  1  0.00000000  0.00000000  0.00000000  1
  Mn  Mn1  1  0.92690000  0.80158000  0.08314000  1
  Mn  Mn2  1  0.89337000  0.10682000  0.00004000  1
  Mn  Mn3  1  0.80174000  0.92708000  0.08320000  1
  Mn  Mn4  1  0.69826000  0.57292000  0.58320000  1
  Mn  Mn5  1  0.60663000  0.39318000  0.50004000  1
  Mn  Mn6  1  0.57310000  0.69842000  0.58314000  1
  Mn  Mn7  1  0.50000000  0.50000000  0.50000000  1
  Mn  Mn8  1  0.42690000  0.30158000  0.41686000  1
  Mn  Mn9  1  0.39337000  0.60682000  0.49996000  1
  Mn  Mn10  1  0.30174000  0.42708000  0.41680000  1
  Mn  Mn11  1  0.19826000  0.07292000  0.91680000  1
  Mn  Mn12  1  0.10663000  0.89318000  0.99996000  1
  Mn  Mn13  1  0.07310000  0.19842000  0.91686000  1
  H  H14  1  0.99740000  0.86870000  0.24080000  1
  H  H15  1  0.99470000  0.70060000  0.88490000  1
  H  H16  1  0.98430000  0.11290000  0.67180000  1
  H  H17  1  0.98340000  0.21790000  0.58330000  1
  H  H18  1  0.96700000  0.33310000  0.82810000  1
  H  H19  1  0.92180000  0.58290000  0.82730000  1
  H  H20  1  0.91730000  0.41050000  0.70370000  1
  H  H21  1  0.91630000  0.57870000  0.32700000  1
  H  H22  1  0.91110000  0.42040000  0.79740000  1
  H  H23  1  0.91040000  0.91030000  0.50380000  1
  H  H24  1  0.90710000  0.71400000  0.47560000  1
  H  H25  1  0.88780000  0.01670000  0.32850000  1
  H  H26  1  0.86730000  0.99610000  0.24050000  1
  H  H27  1  0.83380000  0.46670000  0.67100000  1
  H  H28  1  0.81870000  0.81960000  0.36190000  1
  H  H29  1  0.81500000  0.22330000  0.60260000  1
  H  H30  1  0.79900000  0.50710000  0.38410000  1
  H  H31  1  0.79470000  0.79490000  0.53850000  1
  H  H32  1  0.79330000  0.79300000  0.89860000  1
  H  H33  1  0.78790000  0.59510000  0.97510000  1
  H  H34  1  0.78570000  0.23820000  0.93280000  1
  H  H35  1  0.78100000  0.01550000  0.41690000  1
  H  H36  1  0.77790000  0.18740000  0.39710000  1
  H  H37  1  0.76140000  0.21700000  0.06600000  1
  H  H38  1  0.73860000  0.28300000  0.56600000  1
  H  H39  1  0.72210000  0.31260000  0.89710000  1
  H  H40  1  0.71900000  0.48450000  0.91690000  1
  H  H41  1  0.71430000  0.26180000  0.43280000  1
  H  H42  1  0.71210000  0.90490000  0.47510000  1
  H  H43  1  0.70670000  0.70700000  0.39860000  1
  H  H44  1  0.70530000  0.70510000  0.03850000  1
  H  H45  1  0.70100000  0.99290000  0.88410000  1
  H  H46  1  0.68500000  0.27670000  0.10260000  1
  H  H47  1  0.68130000  0.68040000  0.86190000  1
  H  H48  1  0.66620000  0.03330000  0.17100000  1
  H  H49  1  0.63270000  0.50390000  0.74050000  1
  H  H50  1  0.61220000  0.48330000  0.82850000  1
  H  H51  1  0.59290000  0.78600000  0.97560000  1
  H  H52  1  0.58960000  0.58970000  0.00380000  1
  H  H53  1  0.58890000  0.07960000  0.29740000  1
  H  H54  1  0.58370000  0.92130000  0.82700000  1
  H  H55  1  0.58270000  0.08950000  0.20370000  1
  H  H56  1  0.57820000  0.91710000  0.32730000  1
  H  H57  1  0.53300000  0.16690000  0.32810000  1
  H  H58  1  0.51660000  0.28210000  0.08330000  1
  H  H59  1  0.51570000  0.38710000  0.17180000  1
  H  H60  1  0.50530000  0.79940000  0.38490000  1
  H  H61  1  0.50260000  0.63130000  0.74080000  1
  H  H62  1  0.49740000  0.36870000  0.25920000  1
  H  H63  1  0.49470000  0.20060000  0.61510000  1
  H  H64  1  0.48430000  0.61290000  0.82820000  1
  H  H65  1  0.48340000  0.71790000  0.91670000  1
  H  H66  1  0.46700000  0.83310000  0.67190000  1
  H  H67  1  0.42180000  0.08290000  0.67270000  1
  H  H68  1  0.41730000  0.91050000  0.79630000  1
  H  H69  1  0.41630000  0.07870000  0.17300000  1
  H  H70  1  0.41110000  0.92040000  0.70260000  1
  H  H71  1  0.41040000  0.41030000  0.99620000  1
  H  H72  1  0.40710000  0.21400000  0.02440000  1
  H  H73  1  0.38780000  0.51670000  0.17150000  1
  H  H74  1  0.36730000  0.49610000  0.25950000  1
  H  H75  1  0.33380000  0.96670000  0.82900000  1
  H  H76  1  0.31870000  0.31960000  0.13810000  1
  H  H77  1  0.31500000  0.72330000  0.89740000  1
  H  H78  1  0.29900000  0.00710000  0.11590000  1
  H  H79  1  0.29470000  0.29490000  0.96150000  1
  H  H80  1  0.29330000  0.29300000  0.60140000  1
  H  H81  1  0.28790000  0.09510000  0.52490000  1
  H  H82  1  0.28570000  0.73820000  0.56720000  1
  H  H83  1  0.28100000  0.51550000  0.08310000  1
  H  H84  1  0.27790000  0.68740000  0.10290000  1
  H  H85  1  0.26140000  0.71700000  0.43400000  1
  H  H86  1  0.23860000  0.78300000  0.93400000  1
  H  H87  1  0.22210000  0.81260000  0.60290000  1
  H  H88  1  0.21900000  0.98450000  0.58310000  1
  H  H89  1  0.21430000  0.76180000  0.06720000  1
  H  H90  1  0.21210000  0.40490000  0.02490000  1
  H  H91  1  0.20670000  0.20700000  0.10140000  1
  H  H92  1  0.20530000  0.20510000  0.46150000  1
  H  H93  1  0.20100000  0.49290000  0.61590000  1
  H  H94  1  0.18500000  0.77670000  0.39740000  1
  H  H95  1  0.18130000  0.18040000  0.63810000  1
  H  H96  1  0.16620000  0.53330000  0.32900000  1
  H  H97  1  0.13270000  0.00390000  0.75950000  1
  H  H98  1  0.11220000  0.98330000  0.67150000  1
  H  H99  1  0.09290000  0.28600000  0.52440000  1
  H  H100  1  0.08960000  0.08970000  0.49620000  1
  H  H101  1  0.08890000  0.57960000  0.20260000  1
  H  H102  1  0.08370000  0.42130000  0.67300000  1
  H  H103  1  0.08270000  0.58950000  0.29630000  1
  H  H104  1  0.07820000  0.41710000  0.17270000  1
  H  H105  1  0.03300000  0.66690000  0.17190000  1
  H  H106  1  0.01660000  0.78210000  0.41670000  1
  H  H107  1  0.01570000  0.88710000  0.32820000  1
  H  H108  1  0.00530000  0.29940000  0.11510000  1
  H  H109  1  0.00260000  0.13130000  0.75920000  1
  C  C110  1  0.98630000  0.90960000  0.31048000  1
  C  C111  1  0.97700000  0.68610000  0.36700000  1
  C  C112  1  0.97430000  0.72700000  0.41030000  1
  C  C113  1  0.97430000  0.89760000  0.25839000  1
  C  C114  1  0.95480000  0.95480000  0.33693000  1
  C  C115  1  0.94010000  0.73210000  0.97430000  1
  C  C116  1  0.94010000  0.65780000  0.89200000  1
  C  C117  1  0.92810000  0.92800000  0.23137000  1
  C  C118  1  0.91960000  0.22880000  0.90780000  1
  C  C119  1  0.91930000  0.33080000  0.84340000  1
  C  C120  1  0.91350000  0.60560000  0.35700000  1
  C  C121  1  0.91220000  0.91250000  0.17495000  1
  C  C122  1  0.90970000  0.98670000  0.31079000  1
  C  C123  1  0.90760000  0.68590000  0.44560000  1
  C  C124  1  0.89700000  0.97380000  0.25818000  1
  C  C125  1  0.89650000  0.65870000  0.93670000  1
  C  C126  1  0.89500000  0.58600000  0.85730000  1
  C  C127  1  0.88450000  0.38230000  0.82420000  1
  C  C128  1  0.88190000  0.27970000  0.88350000  1
  C  C129  1  0.88100000  0.38460000  0.67600000  1
  C  C130  1  0.87620000  0.87610000  0.42861000  1
  C  C131  1  0.87580000  0.31370000  0.65430000  1
  C  C132  1  0.86960000  0.86950000  0.48249000  1
  C  C133  1  0.84240000  0.60430000  0.43700000  1
  C  C134  1  0.84240000  0.56120000  0.39150000  1
  C  C135  1  0.83570000  0.83550000  0.99622000  1
  C  C136  1  0.83090000  0.41840000  0.65620000  1
  C  C137  1  0.82100000  0.27410000  0.61540000  1
  C  C138  1  0.81600000  0.59410000  0.94510000  1
  C  C139  1  0.81440000  0.81480000  0.39773000  1
  C  C140  1  0.81410000  0.52300000  0.86730000  1
  C  C141  1  0.81270000  0.37470000  0.84570000  1
  C  C142  1  0.81040000  0.27350000  0.90450000  1
  C  C143  1  0.80010000  0.80010000  0.50270000  1
  C  C144  1  0.77940000  0.38130000  0.61630000  1
  C  C145  1  0.77410000  0.52650000  0.91030000  1
  C  C146  1  0.77360000  0.30830000  0.59430000  1
  C  C147  1  0.77330000  0.31990000  0.88410000  1
  C  C148  1  0.77040000  0.07980000  0.09210000  1
  C  C149  1  0.76830000  0.56110000  0.47360000  1
  C  C150  1  0.76110000  0.76130000  0.97305000  1
  C  C151  1  0.75230000  0.75210000  0.91975000  1
  C  C152  1  0.74770000  0.74790000  0.41975000  1
  C  C153  1  0.73890000  0.73870000  0.47305000  1
  C  C154  1  0.73170000  0.93890000  0.97360000  1
  C  C155  1  0.72960000  0.42020000  0.59210000  1
  C  C156  1  0.72670000  0.18010000  0.38410000  1
  C  C157  1  0.72640000  0.19170000  0.09430000  1
  C  C158  1  0.72590000  0.97350000  0.41030000  1
  C  C159  1  0.72060000  0.11870000  0.11630000  1
  C  C160  1  0.69990000  0.69990000  0.00270000  1
  C  C161  1  0.68960000  0.22650000  0.40450000  1
  C  C162  1  0.68730000  0.12530000  0.34570000  1
  C  C163  1  0.68590000  0.97700000  0.36730000  1
  C  C164  1  0.68560000  0.68520000  0.89773000  1
  C  C165  1  0.68400000  0.90590000  0.44510000  1
  C  C166  1  0.67900000  0.22590000  0.11540000  1
  C  C167  1  0.66910000  0.08160000  0.15620000  1
  C  C168  1  0.66430000  0.66450000  0.49622000  1
  C  C169  1  0.65760000  0.89570000  0.93700000  1
  C  C170  1  0.65760000  0.93880000  0.89150000  1
  C  C171  1  0.63040000  0.63050000  0.98249000  1
  C  C172  1  0.62420000  0.18630000  0.15430000  1
  C  C173  1  0.62380000  0.62390000  0.92861000  1
  C  C174  1  0.61900000  0.11540000  0.17600000  1
  C  C175  1  0.61810000  0.22030000  0.38350000  1
  C  C176  1  0.61550000  0.11770000  0.32420000  1
  C  C177  1  0.60500000  0.91400000  0.35730000  1
  C  C178  1  0.60350000  0.84130000  0.43670000  1
  C  C179  1  0.60300000  0.52620000  0.75818000  1
  C  C180  1  0.59240000  0.81410000  0.94560000  1
  C  C181  1  0.59030000  0.51330000  0.81079000  1
  C  C182  1  0.58780000  0.58750000  0.67495000  1
  C  C183  1  0.58650000  0.89440000  0.85700000  1
  C  C184  1  0.58070000  0.16920000  0.34340000  1
  C  C185  1  0.58040000  0.27120000  0.40780000  1
  C  C186  1  0.57190000  0.57200000  0.73137000  1
  C  C187  1  0.55990000  0.76790000  0.47430000  1
  C  C188  1  0.55990000  0.84220000  0.39200000  1
  C  C189  1  0.54520000  0.54520000  0.83693000  1
  C  C190  1  0.52570000  0.77300000  0.91030000  1
  C  C191  1  0.52570000  0.60240000  0.75839000  1
  C  C192  1  0.52300000  0.81390000  0.86700000  1
  C  C193  1  0.51370000  0.59040000  0.81048000  1
  C  C194  1  0.48630000  0.40960000  0.18952000  1
  C  C195  1  0.47700000  0.18610000  0.13300000  1
  C  C196  1  0.47430000  0.39760000  0.24161000  1
  C  C197  1  0.47430000  0.22700000  0.08970000  1
  C  C198  1  0.45480000  0.45480000  0.16307000  1
  C  C199  1  0.44010000  0.15780000  0.60800000  1
  C  C200  1  0.44010000  0.23210000  0.52570000  1
  C  C201  1  0.42810000  0.42800000  0.26863000  1
  C  C202  1  0.41960000  0.72880000  0.59220000  1
  C  C203  1  0.41930000  0.83080000  0.65660000  1
  C  C204  1  0.41350000  0.10560000  0.14300000  1
  C  C205  1  0.41220000  0.41250000  0.32505000  1
  C  C206  1  0.40970000  0.48670000  0.18921000  1
  C  C207  1  0.40760000  0.18590000  0.05440000  1
  C  C208  1  0.39700000  0.47380000  0.24182000  1
  C  C209  1  0.39650000  0.15870000  0.56330000  1
  C  C210  1  0.39500000  0.08600000  0.64270000  1
  C  C211  1  0.38450000  0.88230000  0.67580000  1
  C  C212  1  0.38190000  0.77970000  0.61650000  1
  C  C213  1  0.38100000  0.88460000  0.82400000  1
  C  C214  1  0.37620000  0.37610000  0.07139000  1
  C  C215  1  0.37580000  0.81370000  0.84570000  1
  C  C216  1  0.36960000  0.36950000  0.01751000  1
  C  C217  1  0.34240000  0.06120000  0.10850000  1
  C  C218  1  0.34240000  0.10430000  0.06300000  1
  C  C219  1  0.33570000  0.33550000  0.50378000  1
  C  C220  1  0.33090000  0.91840000  0.84380000  1
  C  C221  1  0.32100000  0.77410000  0.88460000  1
  C  C222  1  0.31600000  0.09410000  0.55490000  1
  C  C223  1  0.31440000  0.31480000  0.10227000  1
  C  C224  1  0.31410000  0.02300000  0.63270000  1
  C  C225  1  0.31270000  0.87470000  0.65430000  1
  C  C226  1  0.31040000  0.77350000  0.59550000  1
  C  C227  1  0.30010000  0.30010000  0.99730000  1
  C  C228  1  0.27940000  0.88130000  0.88370000  1
  C  C229  1  0.27410000  0.02650000  0.58970000  1
  C  C230  1  0.27360000  0.80830000  0.90570000  1
  C  C231  1  0.27330000  0.81990000  0.61590000  1
  C  C232  1  0.27040000  0.57980000  0.40790000  1
  C  C233  1  0.26830000  0.06110000  0.02640000  1
  C  C234  1  0.26110000  0.26130000  0.52695000  1
  C  C235  1  0.25230000  0.25210000  0.58025000  1
  C  C236  1  0.24770000  0.24790000  0.08025000  1
  C  C237  1  0.23890000  0.23870000  0.02695000  1
  C  C238  1  0.23170000  0.43890000  0.52640000  1
  C  C239  1  0.22960000  0.92020000  0.90790000  1
  C  C240  1  0.22670000  0.68010000  0.11590000  1
  C  C241  1  0.22640000  0.69170000  0.40570000  1
  C  C242  1  0.22590000  0.47350000  0.08970000  1
  C  C243  1  0.22060000  0.61870000  0.38370000  1
  C  C244  1  0.19990000  0.19990000  0.49730000  1
  C  C245  1  0.18960000  0.72650000  0.09550000  1
  C  C246  1  0.18730000  0.62530000  0.15430000  1
  C  C247  1  0.18590000  0.47700000  0.13270000  1
  C  C248  1  0.18560000  0.18520000  0.60227000  1
  C  C249  1  0.18400000  0.40590000  0.05490000  1
  C  C250  1  0.17900000  0.72590000  0.38460000  1
  C  C251  1  0.16910000  0.58160000  0.34380000  1
  C  C252  1  0.16430000  0.16450000  0.00378000  1
  C  C253  1  0.15760000  0.43880000  0.60850000  1
  C  C254  1  0.15760000  0.39570000  0.56300000  1
  C  C255  1  0.13040000  0.13050000  0.51751000  1
  C  C256  1  0.12420000  0.68630000  0.34570000  1
  C  C257  1  0.12380000  0.12390000  0.57139000  1
  C  C258  1  0.11900000  0.61540000  0.32400000  1
  C  C259  1  0.11810000  0.72030000  0.11650000  1
  C  C260  1  0.11550000  0.61770000  0.17580000  1
  C  C261  1  0.10500000  0.41400000  0.14270000  1
  C  C262  1  0.10350000  0.34130000  0.06330000  1
  C  C263  1  0.10300000  0.02620000  0.74182000  1
  C  C264  1  0.09240000  0.31410000  0.55440000  1
  C  C265  1  0.09030000  0.01330000  0.68921000  1
  C  C266  1  0.08780000  0.08750000  0.82505000  1
  C  C267  1  0.08650000  0.39440000  0.64300000  1
  C  C268  1  0.08070000  0.66920000  0.15660000  1
  C  C269  1  0.08040000  0.77120000  0.09220000  1
  C  C270  1  0.07190000  0.07200000  0.76863000  1
  C  C271  1  0.05990000  0.34220000  0.10800000  1
  C  C272  1  0.05990000  0.26790000  0.02570000  1
  C  C273  1  0.04520000  0.04520000  0.66307000  1
  C  C274  1  0.02570000  0.10240000  0.74161000  1
  C  C275  1  0.02570000  0.27300000  0.58970000  1
  C  C276  1  0.02300000  0.31390000  0.63300000  1
  C  C277  1  0.01370000  0.09040000  0.68952000  1
  S  S278  1  0.96579000  0.96593000  0.40386000  1
  S  S279  1  0.93971000  0.27180000  0.67623000  1
  S  S280  1  0.77240000  0.44001000  0.82386000  1
  S  S281  1  0.72760000  0.05999000  0.32386000  1
  S  S282  1  0.56029000  0.22820000  0.17623000  1
  S  S283  1  0.53421000  0.53407000  0.90386000  1
  S  S284  1  0.46579000  0.46593000  0.09614000  1
  S  S285  1  0.43971000  0.77180000  0.82377000  1
  S  S286  1  0.27240000  0.94001000  0.67614000  1
  S  S287  1  0.22760000  0.55999000  0.17614000  1
  S  S288  1  0.06029000  0.72820000  0.32377000  1
  S  S289  1  0.03421000  0.03407000  0.59614000  1
  O  O290  1  0.99650000  0.20750000  0.04181000  1
  O  O291  1  0.98190000  0.23110000  0.88561000  1
  O  O292  1  0.97927000  0.08492000  0.95189000  1
  O  O293  1  0.97020000  0.30500000  0.72679000  1
  O  O294  1  0.96100000  0.04000000  0.58082000  1
  O  O295  1  0.95960000  0.03940000  0.41909000  1
  O  O296  1  0.94090000  0.87100000  0.15322000  1
  O  O297  1  0.91579000  0.02127000  0.04786000  1
  O  O298  1  0.90500000  0.72110000  0.01695000  1
  O  O299  1  0.89610000  0.18120000  0.66870000  1
  O  O300  1  0.89050000  0.89010000  0.96758000  1
  O  O301  1  0.88720000  0.19180000  0.94830000  1
  O  O302  1  0.87070000  0.94080000  0.15311000  1
  O  O303  1  0.83730000  0.83710000  0.04624000  1
  O  O304  1  0.81580000  0.10230000  0.32970000  1
  O  O305  1  0.80800000  0.11230000  0.05180000  1
  O  O306  1  0.80510000  0.46980000  0.77263000  1
  O  O307  1  0.79310000  0.00420000  0.95812000  1
  O  O308  1  0.77960000  0.59540000  0.51703000  1
  O  O309  1  0.76970000  0.01870000  0.11371000  1
  O  O310  1  0.73030000  0.48130000  0.61371000  1
  O  O311  1  0.72040000  0.90460000  0.01703000  1
  O  O312  1  0.70690000  0.49580000  0.45812000  1
  O  O313  1  0.69490000  0.03020000  0.27263000  1
  O  O314  1  0.69200000  0.38770000  0.55180000  1
  O  O315  1  0.68420000  0.39770000  0.82970000  1
  O  O316  1  0.66270000  0.66290000  0.54624000  1
  O  O317  1  0.62930000  0.55920000  0.65311000  1
  O  O318  1  0.61280000  0.30820000  0.44830000  1
  O  O319  1  0.60950000  0.60990000  0.46758000  1
  O  O320  1  0.60390000  0.31880000  0.16870000  1
  O  O321  1  0.59500000  0.77890000  0.51695000  1
  O  O322  1  0.58421000  0.47873000  0.54786000  1
  O  O323  1  0.55910000  0.62900000  0.65322000  1
  O  O324  1  0.54040000  0.46060000  0.91909000  1
  O  O325  1  0.53900000  0.46000000  0.08082000  1
  O  O326  1  0.52980000  0.19500000  0.22679000  1
  O  O327  1  0.52073000  0.41508000  0.45189000  1
  O  O328  1  0.51810000  0.26890000  0.38561000  1
  O  O329  1  0.50350000  0.29250000  0.54181000  1
  O  O330  1  0.49650000  0.70750000  0.45819000  1
  O  O331  1  0.48190000  0.73110000  0.61439000  1
  O  O332  1  0.47927000  0.58492000  0.54811000  1
  O  O333  1  0.47020000  0.80500000  0.77321000  1
  O  O334  1  0.46100000  0.54000000  0.91918000  1
  O  O335  1  0.45960000  0.53940000  0.08091000  1
  O  O336  1  0.44090000  0.37100000  0.34678000  1
  O  O337  1  0.41579000  0.52127000  0.45214000  1
  O  O338  1  0.40500000  0.22110000  0.48305000  1
  O  O339  1  0.39610000  0.68120000  0.83130000  1
  O  O340  1  0.39050000  0.39010000  0.53242000  1
  O  O341  1  0.38720000  0.69180000  0.55170000  1
  O  O342  1  0.37070000  0.44080000  0.34689000  1
  O  O343  1  0.33730000  0.33710000  0.45376000  1
  O  O344  1  0.31580000  0.60230000  0.17030000  1
  O  O345  1  0.30800000  0.61230000  0.44820000  1
  O  O346  1  0.30510000  0.96980000  0.72737000  1
  O  O347  1  0.29310000  0.50420000  0.54188000  1
  O  O348  1  0.27960000  0.09540000  0.98297000  1
  O  O349  1  0.26970000  0.51870000  0.38629000  1
  O  O350  1  0.23030000  0.98130000  0.88629000  1
  O  O351  1  0.22040000  0.40460000  0.48297000  1
  O  O352  1  0.20690000  0.99580000  0.04188000  1
  O  O353  1  0.19490000  0.53020000  0.22737000  1
  O  O354  1  0.19200000  0.88770000  0.94820000  1
  O  O355  1  0.18420000  0.89770000  0.67030000  1
  O  O356  1  0.16270000  0.16290000  0.95376000  1
  O  O357  1  0.12930000  0.05920000  0.84689000  1
  O  O358  1  0.11280000  0.80820000  0.05170000  1
  O  O359  1  0.10950000  0.10990000  0.03242000  1
  O  O360  1  0.10390000  0.81880000  0.33130000  1
  O  O361  1  0.09500000  0.27890000  0.98305000  1
  O  O362  1  0.08421000  0.97873000  0.95214000  1
  O  O363  1  0.05910000  0.12900000  0.84678000  1
  O  O364  1  0.04040000  0.96060000  0.58091000  1
  O  O365  1  0.03900000  0.96000000  0.41918000  1
  O  O366  1  0.02980000  0.69500000  0.27321000  1
  O  O367  1  0.02073000  0.91508000  0.04811000  1
  O  O368  1  0.01810000  0.76890000  0.11439000  1
  O  O369  1  0.00350000  0.79250000  0.95819000  1
