# generated using pymatgen
data_PrH2C8NO6
_symmetry_space_group_name_H-M   'P 1'
_cell_length_a   6.79810000
_cell_length_b   11.97800000
_cell_length_c   13.51500000
_cell_angle_alpha   90.00000000
_cell_angle_beta   100.17400000
_cell_angle_gamma   90.00000000
_symmetry_Int_Tables_number   1
_chemical_formula_structural   PrH2C8NO6
_chemical_formula_sum   'Pr4 H8 C32 N4 O24'
_cell_volume   1083.19025375
_cell_formula_units_Z   4
loop_
 _symmetry_equiv_pos_site_id
 _symmetry_equiv_pos_as_xyz
  1  'x, y, z'
loop_
 _atom_site_type_symbol
 _atom_site_label
 _atom_site_symmetry_multiplicity
 _atom_site_fract_x
 _atom_site_fract_y
 _atom_site_fract_z
 _atom_site_occupancy
  Pr  Pr0  1  0.44372000  0.17014000  0.74349000  1
  Pr  Pr1  1  0.44372000  0.32986000  0.24349000  1
  Pr  Pr2  1  0.55628000  0.67014000  0.75651000  1
  Pr  Pr3  1  0.55628000  0.82986000  0.25651000  1
  H  H4  1  0.03800000  0.19740000  0.35480000  1
  H  H5  1  0.03800000  0.30260000  0.85480000  1
  H  H6  1  0.30100000  0.56410000  0.96060000  1
  H  H7  1  0.30100000  0.93590000  0.46060000  1
  H  H8  1  0.69900000  0.06410000  0.53940000  1
  H  H9  1  0.69900000  0.43590000  0.03940000  1
  H  H10  1  0.96200000  0.69740000  0.14520000  1
  H  H11  1  0.96200000  0.80260000  0.64520000  1
  C  C12  1  0.02100000  0.17420000  0.41840000  1
  C  C13  1  0.02100000  0.32580000  0.91840000  1
  C  C14  1  0.03100000  0.62150000  0.89210000  1
  C  C15  1  0.03100000  0.87850000  0.39210000  1
  C  C16  1  0.04600000  0.60430000  0.78360000  1
  C  C17  1  0.04600000  0.89570000  0.28360000  1
  C  C18  1  0.15600000  0.62380000  0.06730000  1
  C  C19  1  0.15600000  0.87620000  0.56730000  1
  C  C20  1  0.17100000  0.18940000  0.50070000  1
  C  C21  1  0.17100000  0.31060000  0.00070000  1
  C  C22  1  0.18300000  0.59740000  0.97160000  1
  C  C23  1  0.18300000  0.90260000  0.47160000  1
  C  C24  1  0.31700000  0.59960000  0.15700000  1
  C  C25  1  0.31700000  0.90040000  0.65700000  1
  C  C26  1  0.37600000  0.23390000  0.49470000  1
  C  C27  1  0.37600000  0.26610000  0.99470000  1
  C  C28  1  0.62400000  0.73390000  0.00530000  1
  C  C29  1  0.62400000  0.76610000  0.50530000  1
  C  C30  1  0.68300000  0.09960000  0.34300000  1
  C  C31  1  0.68300000  0.40040000  0.84300000  1
  C  C32  1  0.81700000  0.09740000  0.52840000  1
  C  C33  1  0.81700000  0.40260000  0.02840000  1
  C  C34  1  0.82900000  0.68940000  0.99930000  1
  C  C35  1  0.82900000  0.81060000  0.49930000  1
  C  C36  1  0.84400000  0.12380000  0.43270000  1
  C  C37  1  0.84400000  0.37620000  0.93270000  1
  C  C38  1  0.95400000  0.10430000  0.71640000  1
  C  C39  1  0.95400000  0.39570000  0.21640000  1
  C  C40  1  0.96900000  0.12150000  0.60790000  1
  C  C41  1  0.96900000  0.37850000  0.10790000  1
  C  C42  1  0.97900000  0.67420000  0.08160000  1
  C  C43  1  0.97900000  0.82580000  0.58160000  1
  N  N44  1  0.14500000  0.16360000  0.59410000  1
  N  N45  1  0.14500000  0.33640000  0.09410000  1
  N  N46  1  0.85500000  0.66360000  0.90590000  1
  N  N47  1  0.85500000  0.83640000  0.40590000  1
  O  O48  1  0.11630000  0.10050000  0.77830000  1
  O  O49  1  0.11630000  0.39950000  0.27830000  1
  O  O50  1  0.21690000  0.59400000  0.76120000  1
  O  O51  1  0.21690000  0.90600000  0.26120000  1
  O  O52  1  0.33500000  0.66790000  0.22840000  1
  O  O53  1  0.33500000  0.83210000  0.72840000  1
  O  O54  1  0.41720000  0.24290000  0.91050000  1
  O  O55  1  0.41720000  0.25710000  0.41050000  1
  O  O56  1  0.42110000  0.51330000  0.15470000  1
  O  O57  1  0.42110000  0.98670000  0.65470000  1
  O  O58  1  0.49520000  0.24410000  0.57710000  1
  O  O59  1  0.49520000  0.25590000  0.07710000  1
  O  O60  1  0.50480000  0.74410000  0.92290000  1
  O  O61  1  0.50480000  0.75590000  0.42290000  1
  O  O62  1  0.57890000  0.01330000  0.34530000  1
  O  O63  1  0.57890000  0.48670000  0.84530000  1
  O  O64  1  0.58280000  0.74290000  0.58950000  1
  O  O65  1  0.58280000  0.75710000  0.08950000  1
  O  O66  1  0.66500000  0.16790000  0.27160000  1
  O  O67  1  0.66500000  0.33210000  0.77160000  1
  O  O68  1  0.78310000  0.09400000  0.73880000  1
  O  O69  1  0.78310000  0.40600000  0.23880000  1
  O  O70  1  0.88370000  0.60050000  0.72170000  1
  O  O71  1  0.88370000  0.89950000  0.22170000  1
