# generated using pymatgen
data_DyH3(C3O2)3
_symmetry_space_group_name_H-M   'P 1'
_cell_length_a   10.90970000
_cell_length_b   10.90970000
_cell_length_c   19.51000000
_cell_angle_alpha   75.46870000
_cell_angle_beta   75.46870000
_cell_angle_gamma   64.10820000
_symmetry_Int_Tables_number   1
_chemical_formula_structural   DyH3(C3O2)3
_chemical_formula_sum   'Dy4 H12 C36 O24'
_cell_volume   1995.37792578
_cell_formula_units_Z   4
loop_
 _symmetry_equiv_pos_site_id
 _symmetry_equiv_pos_as_xyz
  1  'x, y, z'
loop_
 _atom_site_type_symbol
 _atom_site_label
 _atom_site_symmetry_multiplicity
 _atom_site_fract_x
 _atom_site_fract_y
 _atom_site_fract_z
 _atom_site_occupancy
  Dy  Dy0  1  0.24618000  0.90354000  0.41695000  1
  Dy  Dy1  1  0.09646000  0.75382000  0.08305000  1
  Dy  Dy2  1  0.90354000  0.24618000  0.91695000  1
  Dy  Dy3  1  0.75382000  0.09646000  0.58305000  1
  H  H4  1  0.15720000  0.98080000  0.17230000  1
  H  H5  1  0.66880000  0.90020000  0.46830000  1
  H  H6  1  0.01920000  0.84280000  0.32770000  1
  H  H7  1  0.70230000  0.81190000  0.27620000  1
  H  H8  1  0.81190000  0.70230000  0.77620000  1
  H  H9  1  0.90020000  0.66880000  0.96830000  1
  H  H10  1  0.09980000  0.33120000  0.03170000  1
  H  H11  1  0.18810000  0.29770000  0.22380000  1
  H  H12  1  0.29770000  0.18810000  0.72380000  1
  H  H13  1  0.98080000  0.15720000  0.67230000  1
  H  H14  1  0.33120000  0.09980000  0.53170000  1
  H  H15  1  0.84280000  0.01920000  0.82770000  1
  C  C16  1  0.79800000  0.95400000  0.71710000  1
  C  C17  1  0.84780000  0.92920000  0.83910000  1
  C  C18  1  0.90680000  0.91380000  0.95620000  1
  C  C19  1  0.91380000  0.90680000  0.45620000  1
  C  C20  1  0.71920000  0.88180000  0.42330000  1
  C  C21  1  0.85040000  0.87820000  0.40490000  1
  C  C22  1  0.82460000  0.87120000  0.79030000  1
  C  C23  1  0.51560000  0.86960000  0.39380000  1
  C  C24  1  0.66240000  0.85840000  0.37520000  1
  C  C25  1  0.87820000  0.85040000  0.90490000  1
  C  C26  1  0.92920000  0.84780000  0.33910000  1
  C  C27  1  0.74010000  0.82890000  0.30870000  1
  C  C28  1  0.87120000  0.82460000  0.29030000  1
  C  C29  1  0.95400000  0.79800000  0.21710000  1
  C  C30  1  0.82890000  0.74010000  0.80870000  1
  C  C31  1  0.88180000  0.71920000  0.92330000  1
  C  C32  1  0.85840000  0.66240000  0.87520000  1
  C  C33  1  0.86960000  0.51560000  0.89380000  1
  C  C34  1  0.13040000  0.48440000  0.10620000  1
  C  C35  1  0.14160000  0.33760000  0.12480000  1
  C  C36  1  0.11820000  0.28080000  0.07670000  1
  C  C37  1  0.17110000  0.25990000  0.19130000  1
  C  C38  1  0.04600000  0.20200000  0.78290000  1
  C  C39  1  0.12880000  0.17540000  0.70970000  1
  C  C40  1  0.25990000  0.17110000  0.69130000  1
  C  C41  1  0.07080000  0.15220000  0.66090000  1
  C  C42  1  0.12180000  0.14960000  0.09510000  1
  C  C43  1  0.33760000  0.14160000  0.62480000  1
  C  C44  1  0.48440000  0.13040000  0.60620000  1
  C  C45  1  0.17540000  0.12880000  0.20970000  1
  C  C46  1  0.14960000  0.12180000  0.59510000  1
  C  C47  1  0.28080000  0.11820000  0.57670000  1
  C  C48  1  0.08620000  0.09320000  0.54380000  1
  C  C49  1  0.09320000  0.08620000  0.04380000  1
  C  C50  1  0.15220000  0.07080000  0.16090000  1
  C  C51  1  0.20200000  0.04600000  0.28290000  1
  O  O52  1  0.08190000  0.97270000  0.06540000  1
  O  O53  1  0.21680000  0.92520000  0.29520000  1
  O  O54  1  0.84910000  0.91850000  0.51840000  1
  O  O55  1  0.02730000  0.91810000  0.43460000  1
  O  O56  1  0.44590000  0.90030000  0.44910000  1
  O  O57  1  0.79500000  0.89500000  0.67090000  1
  O  O58  1  0.91850000  0.84910000  0.01840000  1
  O  O59  1  0.47150000  0.84090000  0.34900000  1
  O  O60  1  0.89500000  0.79500000  0.17090000  1
  O  O61  1  0.07480000  0.78320000  0.20480000  1
  O  O62  1  0.09970000  0.55410000  0.05090000  1
  O  O63  1  0.15910000  0.52850000  0.15100000  1
  O  O64  1  0.84090000  0.47150000  0.84900000  1
  O  O65  1  0.90030000  0.44590000  0.94910000  1
  O  O66  1  0.92520000  0.21680000  0.79520000  1
  O  O67  1  0.10500000  0.20500000  0.82910000  1
  O  O68  1  0.52850000  0.15910000  0.65100000  1
  O  O69  1  0.08150000  0.15090000  0.98160000  1
  O  O70  1  0.20500000  0.10500000  0.32910000  1
  O  O71  1  0.55410000  0.09970000  0.55090000  1
  O  O72  1  0.97270000  0.08190000  0.56540000  1
  O  O73  1  0.15090000  0.08150000  0.48160000  1
  O  O74  1  0.78320000  0.07480000  0.70480000  1
  O  O75  1  0.91810000  0.02730000  0.93460000  1
