# generated using pymatgen
data_LaH24C48(NO2)4
_symmetry_space_group_name_H-M   'P 1'
_cell_length_a   9.85480000
_cell_length_b   13.81380000
_cell_length_c   33.79250000
_cell_angle_alpha   90.00000000
_cell_angle_beta   90.00000000
_cell_angle_gamma   92.86270000
_symmetry_Int_Tables_number   1
_chemical_formula_structural   LaH24C48(NO2)4
_chemical_formula_sum   'La4 H96 C192 N16 O32'
_cell_volume   4594.50785987
_cell_formula_units_Z   4
loop_
 _symmetry_equiv_pos_site_id
 _symmetry_equiv_pos_as_xyz
  1  'x, y, z'
loop_
 _atom_site_type_symbol
 _atom_site_label
 _atom_site_symmetry_multiplicity
 _atom_site_fract_x
 _atom_site_fract_y
 _atom_site_fract_z
 _atom_site_occupancy
  La  La0  1  0.23592000  0.97981000  0.25105000  1
  La  La1  1  0.26408000  0.02019000  0.75105000  1
  La  La2  1  0.73592000  0.97981000  0.24895000  1
  La  La3  1  0.76408000  0.02019000  0.74895000  1
  H  H4  1  0.00990000  0.09650000  0.34730000  1
  H  H5  1  0.01240000  0.52340000  0.87380000  1
  H  H6  1  0.01590000  0.70130000  0.87910000  1
  H  H7  1  0.01820000  0.53550000  0.62560000  1
  H  H8  1  0.02520000  0.74250000  0.55380000  1
  H  H9  1  0.04560000  0.90190000  0.97130000  1
  H  H10  1  0.06310000  0.15940000  0.84070000  1
  H  H11  1  0.07010000  0.36340000  0.62050000  1
  H  H12  1  0.09370000  0.92980000  0.47410000  1
  H  H13  1  0.09580000  0.87680000  0.59210000  1
  H  H14  1  0.10170000  0.80390000  0.37030000  1
  H  H15  1  0.10740000  0.31450000  0.94200000  1
  H  H16  1  0.10760000  0.76170000  0.02450000  1
  H  H17  1  0.15320000  0.15570000  0.13150000  1
  H  H18  1  0.16670000  0.16510000  0.54040000  1
  H  H19  1  0.18160000  0.19550000  0.89880000  1
  H  H20  1  0.18510000  0.02260000  0.86920000  1
  H  H21  1  0.19890000  0.00600000  0.93770000  1
  H  H22  1  0.20460000  0.63850000  0.13270000  1
  H  H23  1  0.20650000  0.93230000  0.08120000  1
  H  H24  1  0.21760000  0.77200000  0.95850000  1
  H  H25  1  0.22220000  0.03080000  0.64560000  1
  H  H26  1  0.24070000  0.05250000  0.02870000  1
  H  H27  1  0.24660000  0.34160000  0.36220000  1
  H  H28  1  0.25340000  0.65840000  0.86220000  1
  H  H29  1  0.25930000  0.94750000  0.52870000  1
  H  H30  1  0.27780000  0.96920000  0.14560000  1
  H  H31  1  0.28240000  0.22800000  0.45850000  1
  H  H32  1  0.29350000  0.06770000  0.58120000  1
  H  H33  1  0.29540000  0.36150000  0.63270000  1
  H  H34  1  0.30110000  0.99400000  0.43770000  1
  H  H35  1  0.31490000  0.97740000  0.36920000  1
  H  H36  1  0.31840000  0.80450000  0.39880000  1
  H  H37  1  0.33333333  0.83490000  0.04040000  1
  H  H38  1  0.34680000  0.84430000  0.63150000  1
  H  H39  1  0.39240000  0.23830000  0.52450000  1
  H  H40  1  0.39260000  0.68550000  0.44200000  1
  H  H41  1  0.39830000  0.19610000  0.87030000  1
  H  H42  1  0.40420000  0.12320000  0.09210000  1
  H  H43  1  0.40630000  0.07020000  0.97410000  1
  H  H44  1  0.42990000  0.63660000  0.12050000  1
  H  H45  1  0.43690000  0.84060000  0.34070000  1
  H  H46  1  0.45440000  0.09810000  0.47130000  1
  H  H47  1  0.47480000  0.25750000  0.05380000  1
  H  H48  1  0.48180000  0.46450000  0.12560000  1
  H  H49  1  0.48410000  0.29870000  0.37910000  1
  H  H50  1  0.48760000  0.47660000  0.37380000  1
  H  H51  1  0.49010000  0.90350000  0.84730000  1
  H  H52  1  0.50990000  0.09650000  0.15270000  1
  H  H53  1  0.51240000  0.52340000  0.62620000  1
  H  H54  1  0.51590000  0.70130000  0.62090000  1
  H  H55  1  0.51820000  0.53550000  0.87440000  1
  H  H56  1  0.52520000  0.74250000  0.94620000  1
  H  H57  1  0.54560000  0.90190000  0.52870000  1
  H  H58  1  0.56310000  0.15940000  0.65930000  1
  H  H59  1  0.57010000  0.36340000  0.87950000  1
  H  H60  1  0.59370000  0.92980000  0.02590000  1
  H  H61  1  0.59580000  0.87680000  0.90790000  1
  H  H62  1  0.60170000  0.80390000  0.12970000  1
  H  H63  1  0.60740000  0.31450000  0.55800000  1
  H  H64  1  0.60760000  0.76170000  0.47550000  1
  H  H65  1  0.65320000  0.15570000  0.36850000  1
  H  H66  1  0.66666667  0.16510000  0.95960000  1
  H  H67  1  0.68160000  0.19550000  0.60120000  1
  H  H68  1  0.68510000  0.02260000  0.63080000  1
  H  H69  1  0.69890000  0.00600000  0.56230000  1
  H  H70  1  0.70460000  0.63850000  0.36730000  1
  H  H71  1  0.70650000  0.93230000  0.41880000  1
  H  H72  1  0.71760000  0.77200000  0.54150000  1
  H  H73  1  0.72220000  0.03080000  0.85440000  1
  H  H74  1  0.74070000  0.05250000  0.47130000  1
  H  H75  1  0.74660000  0.34160000  0.13780000  1
  H  H76  1  0.75340000  0.65840000  0.63780000  1
  H  H77  1  0.75930000  0.94750000  0.97130000  1
  H  H78  1  0.77780000  0.96920000  0.35440000  1
  H  H79  1  0.78240000  0.22800000  0.04150000  1
  H  H80  1  0.79350000  0.06770000  0.91880000  1
  H  H81  1  0.79540000  0.36150000  0.86730000  1
  H  H82  1  0.80110000  0.99400000  0.06230000  1
  H  H83  1  0.81490000  0.97740000  0.13080000  1
  H  H84  1  0.81840000  0.80450000  0.10120000  1
  H  H85  1  0.83330000  0.83490000  0.45960000  1
  H  H86  1  0.84680000  0.84430000  0.86850000  1
  H  H87  1  0.89240000  0.23830000  0.97550000  1
  H  H88  1  0.89260000  0.68550000  0.05800000  1
  H  H89  1  0.89830000  0.19610000  0.62970000  1
  H  H90  1  0.90420000  0.12320000  0.40790000  1
  H  H91  1  0.90630000  0.07020000  0.52590000  1
  H  H92  1  0.92990000  0.63660000  0.37950000  1
  H  H93  1  0.93690000  0.84060000  0.15930000  1
  H  H94  1  0.95440000  0.09810000  0.02870000  1
  H  H95  1  0.97480000  0.25750000  0.44620000  1
  H  H96  1  0.98180000  0.46450000  0.37440000  1
  H  H97  1  0.98410000  0.29870000  0.12090000  1
  H  H98  1  0.98760000  0.47660000  0.12620000  1
  H  H99  1  0.99010000  0.90350000  0.65270000  1
  C  C100  1  0.00040000  0.91490000  0.31609000  1
  C  C101  1  0.00630000  0.04080000  0.18086000  1
  C  C102  1  0.01140000  0.93910000  0.86253000  1
  C  C103  1  0.01300000  0.39720000  0.60320000  1
  C  C104  1  0.01540000  0.50880000  0.39405000  1
  C  C105  1  0.01610000  0.24760000  0.42121000  1
  C  C106  1  0.02030000  0.19220000  0.58097000  1
  C  C107  1  0.02150000  0.83020000  0.38049000  1
  C  C108  1  0.02550000  0.83290000  0.60130000  1
  C  C109  1  0.02970000  0.34350000  0.10349000  1
  C  C110  1  0.03000000  0.44090000  0.10603000  1
  C  C111  1  0.03230000  0.20800000  0.85800000  1
  C  C112  1  0.03710000  0.15180000  0.36254000  1
  C  C113  1  0.03900000  0.90870000  0.94339000  1
  C  C114  1  0.05300000  0.10950000  0.64321000  1
  C  C115  1  0.05810000  0.30000000  0.91838000  1
  C  C116  1  0.05810000  0.73990000  0.44355000  1
  C  C117  1  0.05830000  0.64340000  0.43059000  1
  C  C118  1  0.05930000  0.65020000  0.09038000  1
  C  C119  1  0.06180000  0.14470000  0.07746000  1
  C  C120  1  0.07910000  0.12510000  0.11754000  1
  C  C121  1  0.08190000  0.74360000  0.15163000  1
  C  C122  1  0.10270000  0.22920000  0.89257000  1
  C  C123  1  0.10410000  0.48120000  0.07342000  1
  C  C124  1  0.10600000  0.48690000  0.42615000  1
  C  C125  1  0.11120000  0.31910000  0.06969000  1
  C  C126  1  0.11250000  0.57890000  0.06157000  1
  C  C127  1  0.11610000  0.31330000  0.40802000  1
  C  C128  1  0.11850000  0.98350000  0.88293000  1
  C  C129  1  0.12650000  0.67250000  0.12590000  1
  C  C130  1  0.12910000  0.97120000  0.92350000  1
  C  C131  1  0.13270000  0.77850000  0.47550000  1
  C  C132  1  0.13750000  0.15220000  0.56676000  1
  C  C133  1  0.13780000  0.22590000  0.05657000  1
  C  C134  1  0.13800000  0.21530000  0.34841000  1
  C  C135  1  0.14170000  0.87940000  0.48601000  1
  C  C136  1  0.15010000  0.71090000  0.01101000  1
  C  C137  1  0.15750000  0.39740000  0.43458000  1
  C  C138  1  0.16220000  0.61280000  0.02505000  1
  C  C139  1  0.16510000  0.77080000  0.18859000  1
  C  C140  1  0.17080000  0.07130000  0.62924000  1
  C  C141  1  0.17740000  0.29710000  0.37155000  1
  C  C142  1  0.20550000  0.19630000  0.30982000  1
  C  C143  1  0.21050000  0.71690000  0.97532000  1
  C  C144  1  0.21240000  0.09330000  0.59102000  1
  C  C145  1  0.22450000  0.20570000  0.02508000  1
  C  C146  1  0.23080000  0.88870000  0.51586000  1
  C  C147  1  0.23740000  0.37750000  0.46770000  1
  C  C148  1  0.26260000  0.62250000  0.96770000  1
  C  C149  1  0.26920000  0.11130000  0.01586000  1
  C  C150  1  0.27550000  0.79430000  0.52508000  1
  C  C151  1  0.28760000  0.90670000  0.09102000  1
  C  C152  1  0.28950000  0.28310000  0.47532000  1
  C  C153  1  0.29450000  0.80370000  0.80982000  1
  C  C154  1  0.32260000  0.70290000  0.87155000  1
  C  C155  1  0.32920000  0.92870000  0.12924000  1
  C  C156  1  0.33490000  0.22920000  0.68859000  1
  C  C157  1  0.33780000  0.38720000  0.52505000  1
  C  C158  1  0.34250000  0.60260000  0.93458000  1
  C  C159  1  0.34990000  0.28910000  0.51101000  1
  C  C160  1  0.35830000  0.12060000  0.98601000  1
  C  C161  1  0.36200000  0.78470000  0.84841000  1
  C  C162  1  0.36220000  0.77410000  0.55657000  1
  C  C163  1  0.36250000  0.84780000  0.06676000  1
  C  C164  1  0.36730000  0.22150000  0.97550000  1
  C  C165  1  0.37090000  0.02880000  0.42350000  1
  C  C166  1  0.37350000  0.32750000  0.62590000  1
  C  C167  1  0.38150000  0.01650000  0.38293000  1
  C  C168  1  0.38390000  0.68670000  0.90802000  1
  C  C169  1  0.38750000  0.42110000  0.56157000  1
  C  C170  1  0.38880000  0.68090000  0.56969000  1
  C  C171  1  0.39400000  0.51310000  0.92615000  1
  C  C172  1  0.39590000  0.51880000  0.57342000  1
  C  C173  1  0.39730000  0.77080000  0.39257000  1
  C  C174  1  0.41810000  0.25640000  0.65163000  1
  C  C175  1  0.42090000  0.87490000  0.61754000  1
  C  C176  1  0.43820000  0.85530000  0.57746000  1
  C  C177  1  0.44070000  0.34980000  0.59038000  1
  C  C178  1  0.44170000  0.35660000  0.93059000  1
  C  C179  1  0.44190000  0.26010000  0.94355000  1
  C  C180  1  0.44190000  0.70000000  0.41838000  1
  C  C181  1  0.44700000  0.89050000  0.14321000  1
  C  C182  1  0.46100000  0.09130000  0.44339000  1
  C  C183  1  0.46290000  0.84820000  0.86254000  1
  C  C184  1  0.46770000  0.79200000  0.35800000  1
  C  C185  1  0.47000000  0.55910000  0.60603000  1
  C  C186  1  0.47030000  0.65650000  0.60349000  1
  C  C187  1  0.47450000  0.16710000  0.10130000  1
  C  C188  1  0.47850000  0.16980000  0.88049000  1
  C  C189  1  0.47970000  0.80780000  0.08097000  1
  C  C190  1  0.48390000  0.75240000  0.92121000  1
  C  C191  1  0.48460000  0.49120000  0.89405000  1
  C  C192  1  0.48700000  0.60280000  0.10320000  1
  C  C193  1  0.48860000  0.06090000  0.36253000  1
  C  C194  1  0.49370000  0.95920000  0.68086000  1
  C  C195  1  0.49960000  0.08510000  0.81609000  1
  C  C196  1  0.50040000  0.91490000  0.18391000  1
  C  C197  1  0.50630000  0.04080000  0.31914000  1
  C  C198  1  0.51140000  0.93910000  0.63747000  1
  C  C199  1  0.51300000  0.39720000  0.89680000  1
  C  C200  1  0.51540000  0.50880000  0.10595000  1
  C  C201  1  0.51610000  0.24760000  0.07879000  1
  C  C202  1  0.52030000  0.19220000  0.91903000  1
  C  C203  1  0.52150000  0.83020000  0.11951000  1
  C  C204  1  0.52550000  0.83290000  0.89870000  1
  C  C205  1  0.52970000  0.34350000  0.39651000  1
  C  C206  1  0.53000000  0.44090000  0.39397000  1
  C  C207  1  0.53230000  0.20800000  0.64200000  1
  C  C208  1  0.53710000  0.15180000  0.13746000  1
  C  C209  1  0.53900000  0.90870000  0.55661000  1
  C  C210  1  0.55300000  0.10950000  0.85679000  1
  C  C211  1  0.55810000  0.30000000  0.58162000  1
  C  C212  1  0.55810000  0.73990000  0.05645000  1
  C  C213  1  0.55830000  0.64340000  0.06941000  1
  C  C214  1  0.55930000  0.65020000  0.40962000  1
  C  C215  1  0.56180000  0.14470000  0.42254000  1
  C  C216  1  0.57910000  0.12510000  0.38246000  1
  C  C217  1  0.58190000  0.74360000  0.34837000  1
  C  C218  1  0.60270000  0.22920000  0.60743000  1
  C  C219  1  0.60410000  0.48120000  0.42658000  1
  C  C220  1  0.60600000  0.48690000  0.07385000  1
  C  C221  1  0.61120000  0.31910000  0.43031000  1
  C  C222  1  0.61250000  0.57890000  0.43843000  1
  C  C223  1  0.61610000  0.31330000  0.09198000  1
  C  C224  1  0.61850000  0.98350000  0.61707000  1
  C  C225  1  0.62650000  0.67250000  0.37410000  1
  C  C226  1  0.62910000  0.97120000  0.57650000  1
  C  C227  1  0.63270000  0.77850000  0.02450000  1
  C  C228  1  0.63750000  0.15220000  0.93324000  1
  C  C229  1  0.63780000  0.22590000  0.44343000  1
  C  C230  1  0.63800000  0.21530000  0.15159000  1
  C  C231  1  0.64170000  0.87940000  0.01399000  1
  C  C232  1  0.65010000  0.71090000  0.48899000  1
  C  C233  1  0.65750000  0.39740000  0.06542000  1
  C  C234  1  0.66220000  0.61280000  0.47495000  1
  C  C235  1  0.66510000  0.77080000  0.31141000  1
  C  C236  1  0.67080000  0.07130000  0.87076000  1
  C  C237  1  0.67740000  0.29710000  0.12845000  1
  C  C238  1  0.70550000  0.19630000  0.19018000  1
  C  C239  1  0.71050000  0.71690000  0.52468000  1
  C  C240  1  0.71240000  0.09330000  0.90898000  1
  C  C241  1  0.72450000  0.20570000  0.47492000  1
  C  C242  1  0.73080000  0.88870000  0.98414000  1
  C  C243  1  0.73740000  0.37750000  0.03230000  1
  C  C244  1  0.76260000  0.62250000  0.53230000  1
  C  C245  1  0.76920000  0.11130000  0.48414000  1
  C  C246  1  0.77550000  0.79430000  0.97492000  1
  C  C247  1  0.78760000  0.90670000  0.40898000  1
  C  C248  1  0.78950000  0.28310000  0.02468000  1
  C  C249  1  0.79450000  0.80370000  0.69018000  1
  C  C250  1  0.82260000  0.70290000  0.62845000  1
  C  C251  1  0.82920000  0.92870000  0.37076000  1
  C  C252  1  0.83490000  0.22920000  0.81141000  1
  C  C253  1  0.83780000  0.38720000  0.97495000  1
  C  C254  1  0.84250000  0.60260000  0.56542000  1
  C  C255  1  0.84990000  0.28910000  0.98899000  1
  C  C256  1  0.85830000  0.12060000  0.51399000  1
  C  C257  1  0.86200000  0.78470000  0.65159000  1
  C  C258  1  0.86220000  0.77410000  0.94343000  1
  C  C259  1  0.86250000  0.84780000  0.43324000  1
  C  C260  1  0.86730000  0.22150000  0.52450000  1
  C  C261  1  0.87090000  0.02880000  0.07650000  1
  C  C262  1  0.87350000  0.32750000  0.87410000  1
  C  C263  1  0.88150000  0.01650000  0.11707000  1
  C  C264  1  0.88390000  0.68670000  0.59198000  1
  C  C265  1  0.88750000  0.42110000  0.93843000  1
  C  C266  1  0.88880000  0.68090000  0.93031000  1
  C  C267  1  0.89400000  0.51310000  0.57385000  1
  C  C268  1  0.89590000  0.51880000  0.92658000  1
  C  C269  1  0.89730000  0.77080000  0.10743000  1
  C  C270  1  0.91810000  0.25640000  0.84837000  1
  C  C271  1  0.92090000  0.87490000  0.88246000  1
  C  C272  1  0.93820000  0.85530000  0.92254000  1
  C  C273  1  0.94070000  0.34980000  0.90962000  1
  C  C274  1  0.94170000  0.35660000  0.56941000  1
  C  C275  1  0.94190000  0.26010000  0.55645000  1
  C  C276  1  0.94190000  0.70000000  0.08162000  1
  C  C277  1  0.94700000  0.89050000  0.35679000  1
  C  C278  1  0.96100000  0.09130000  0.05661000  1
  C  C279  1  0.96290000  0.84820000  0.63746000  1
  C  C280  1  0.96770000  0.79200000  0.14200000  1
  C  C281  1  0.97000000  0.55910000  0.89397000  1
  C  C282  1  0.97030000  0.65650000  0.89651000  1
  C  C283  1  0.97450000  0.16710000  0.39870000  1
  C  C284  1  0.97850000  0.16980000  0.61951000  1
  C  C285  1  0.97970000  0.80780000  0.41903000  1
  C  C286  1  0.98390000  0.75240000  0.57879000  1
  C  C287  1  0.98460000  0.49120000  0.60595000  1
  C  C288  1  0.98700000  0.60280000  0.39680000  1
  C  C289  1  0.98860000  0.06090000  0.13747000  1
  C  C290  1  0.99370000  0.95920000  0.81914000  1
  C  C291  1  0.99960000  0.08510000  0.68391000  1
  N  N292  1  0.12880000  0.57000000  0.44775000  1
  N  N293  1  0.15640000  0.40510000  0.05230000  1
  N  N294  1  0.21450000  0.72710000  0.50033000  1
  N  N295  1  0.22850000  0.55960000  0.99779000  1
  N  N296  1  0.27150000  0.44040000  0.49779000  1
  N  N297  1  0.28550000  0.27290000  0.00033000  1
  N  N298  1  0.34360000  0.59490000  0.55230000  1
  N  N299  1  0.37120000  0.43000000  0.94775000  1
  N  N300  1  0.62880000  0.57000000  0.05225000  1
  N  N301  1  0.65640000  0.40510000  0.44770000  1
  N  N302  1  0.71450000  0.72710000  0.99967000  1
  N  N303  1  0.72850000  0.55960000  0.50221000  1
  N  N304  1  0.77150000  0.44040000  0.00221000  1
  N  N305  1  0.78550000  0.27290000  0.49967000  1
  N  N306  1  0.84360000  0.59490000  0.94770000  1
  N  N307  1  0.87120000  0.43000000  0.55225000  1
  O  O308  1  0.07480000  0.03870000  0.70692000  1
  O  O309  1  0.09200000  0.00150000  0.80136000  1
  O  O310  1  0.11660000  0.89030000  0.30662000  1
  O  O311  1  0.11980000  0.06540000  0.19657000  1
  O  O312  1  0.12560000  0.84210000  0.20888000  1
  O  O313  1  0.15380000  0.12350000  0.28937000  1
  O  O314  1  0.19280000  0.75360000  0.79928000  1
  O  O315  1  0.23500000  0.27740000  0.69680000  1
  O  O316  1  0.26500000  0.72260000  0.19680000  1
  O  O317  1  0.30720000  0.24640000  0.29928000  1
  O  O318  1  0.34620000  0.87650000  0.78937000  1
  O  O319  1  0.37440000  0.15790000  0.70888000  1
  O  O320  1  0.38020000  0.93460000  0.69657000  1
  O  O321  1  0.38340000  0.10970000  0.80662000  1
  O  O322  1  0.40800000  0.99850000  0.30136000  1
  O  O323  1  0.42520000  0.96130000  0.20692000  1
  O  O324  1  0.57480000  0.03870000  0.79308000  1
  O  O325  1  0.59200000  0.00150000  0.69864000  1
  O  O326  1  0.61660000  0.89030000  0.19338000  1
  O  O327  1  0.61980000  0.06540000  0.30343000  1
  O  O328  1  0.62560000  0.84210000  0.29112000  1
  O  O329  1  0.65380000  0.12350000  0.21063000  1
  O  O330  1  0.69280000  0.75360000  0.70072000  1
  O  O331  1  0.73500000  0.27740000  0.80320000  1
  O  O332  1  0.76500000  0.72260000  0.30320000  1
  O  O333  1  0.80720000  0.24640000  0.20072000  1
  O  O334  1  0.84620000  0.87650000  0.71063000  1
  O  O335  1  0.87440000  0.15790000  0.79112000  1
  O  O336  1  0.88020000  0.93460000  0.80343000  1
  O  O337  1  0.88340000  0.10970000  0.69338000  1
  O  O338  1  0.90800000  0.99850000  0.19864000  1
  O  O339  1  0.92520000  0.96130000  0.29308000  1
