# generated using pymatgen
data_Zn7(PO4)6
_symmetry_space_group_name_H-M   'P 1'
_cell_length_a   9.36298919
_cell_length_b   9.36298919
_cell_length_c   9.36298919
_cell_angle_alpha   93.22474819
_cell_angle_beta   93.22474819
_cell_angle_gamma   93.22474819
_symmetry_Int_Tables_number   1
_chemical_formula_structural   Zn7(PO4)6
_chemical_formula_sum   'Zn7 P6 O24'
_cell_volume   816.75960923
_cell_formula_units_Z   1
loop_
 _symmetry_equiv_pos_site_id
 _symmetry_equiv_pos_as_xyz
  1  'x, y, z'
loop_
 _atom_site_type_symbol
 _atom_site_label
 _atom_site_symmetry_multiplicity
 _atom_site_fract_x
 _atom_site_fract_y
 _atom_site_fract_z
 _atom_site_occupancy
  O  O0  1  0.05240000  0.73050000  0.30140000  1
  O  O1  1  0.73050000  0.30140000  0.05240000  1
  O  O2  1  0.85430000  0.05930000  0.53340000  1
  O  O3  1  0.96820000  0.02080000  0.77400000  1
  O  O4  1  0.53340000  0.85430000  0.05930000  1
  O  O5  1  0.69860000  0.94760000  0.26950000  1
  O  O6  1  0.87970000  0.25420000  0.27530000  1
  O  O7  1  0.94070000  0.46660000  0.14570000  1
  O  O8  1  0.02080000  0.77400000  0.96820000  1
  O  O9  1  0.25420000  0.27530000  0.87970000  1
  O  O10  1  0.27530000  0.87970000  0.25420000  1
  O  O11  1  0.22600000  0.03180000  0.97920000  1
  O  O12  1  0.77400000  0.96820000  0.02080000  1
  O  O13  1  0.72470000  0.12030000  0.74580000  1
  O  O14  1  0.74580000  0.72470000  0.12030000  1
  O  O15  1  0.97920000  0.22600000  0.03180000  1
  O  O16  1  0.05930000  0.53340000  0.85430000  1
  O  O17  1  0.12030000  0.74580000  0.72470000  1
  O  O18  1  0.30140000  0.05240000  0.73050000  1
  O  O19  1  0.46660000  0.14570000  0.94070000  1
  O  O20  1  0.03180000  0.97920000  0.22600000  1
  O  O21  1  0.14570000  0.94070000  0.46660000  1
  O  O22  1  0.26950000  0.69860000  0.94760000  1
  O  O23  1  0.94760000  0.26950000  0.69860000  1
  P  P24  1  0.12661000  0.87973000  0.31310000  1
  P  P25  1  0.87973000  0.31310000  0.12661000  1
  P  P26  1  0.68690000  0.87339000  0.12027000  1
  P  P27  1  0.31310000  0.12661000  0.87973000  1
  P  P28  1  0.12027000  0.68690000  0.87339000  1
  P  P29  1  0.87339000  0.12027000  0.68690000  1
  Zn  Zn30  1  0.00000000  0.00000000  0.00000000  1
  Zn  Zn31  1  0.93813000  0.66658000  0.12556000  1
  Zn  Zn32  1  0.66658000  0.12556000  0.93813000  1
  Zn  Zn33  1  0.87444000  0.06187000  0.33342000  1
  Zn  Zn34  1  0.12556000  0.93813000  0.66658000  1
  Zn  Zn35  1  0.33342000  0.87444000  0.06187000  1
  Zn  Zn36  1  0.06187000  0.33342000  0.87444000  1
