# generated using pymatgen
data_Na2Co3H18(C2O)24
_symmetry_space_group_name_H-M   'P 1'
_cell_length_a   19.19576611
_cell_length_b   19.19576611
_cell_length_c   20.50757803
_cell_angle_alpha   114.70765146
_cell_angle_beta   114.70765146
_cell_angle_gamma   96.13628288
_symmetry_Int_Tables_number   1
_chemical_formula_structural   Na2Co3H18(C2O)24
_chemical_formula_sum   'Na8 Co12 H72 C192 O96'
_cell_volume   5862.04282311
_cell_formula_units_Z   4
loop_
 _symmetry_equiv_pos_site_id
 _symmetry_equiv_pos_as_xyz
  1  'x, y, z'
loop_
 _atom_site_type_symbol
 _atom_site_label
 _atom_site_symmetry_multiplicity
 _atom_site_fract_x
 _atom_site_fract_y
 _atom_site_fract_z
 _atom_site_occupancy
  C  C0  1  0.28842000  0.35464000  0.65106000  1
  C  C1  1  0.20358000  0.63736000  0.84894000  1
  C  C2  1  0.24474000  0.40694000  0.66746000  1
  C  C3  1  0.23948000  0.57728000  0.83254000  1
  C  C4  1  0.75742000  0.45604000  0.24026000  1
  C  C5  1  0.71578000  0.51716000  0.25974000  1
  C  C6  1  0.39981000  0.96195000  0.39242000  1
  C  C7  1  0.06953000  0.00739000  0.10758000  1
  C  C8  1  0.83118000  0.33696000  0.20754000  1
  C  C9  1  0.62942000  0.62364000  0.29246000  1
  C  C10  1  0.34757000  0.00653000  0.39430000  1
  C  C11  1  0.11223000  0.95327000  0.10570000  1
  C  C12  1  0.58449000  0.68251000  0.31120000  1
  C  C13  1  0.87131000  0.27329000  0.18880000  1
  C  C14  1  0.81383000  0.02821000  0.90198000  1
  C  C15  1  0.62623000  0.91185000  0.59802000  1
  C  C16  1  0.79020000  0.42820000  0.29500000  1
  C  C17  1  0.63320000  0.49520000  0.20500000  1
  C  C18  1  0.15350000  0.37190000  0.60720000  1
  C  C19  1  0.26470000  0.54630000  0.89280000  1
  C  C20  1  0.82640000  0.37000000  0.27840000  1
  C  C21  1  0.59160000  0.54800000  0.22160000  1
  C  C22  1  0.94647000  0.04685000  0.10212000  1
  C  C23  1  0.44473000  0.84435000  0.39788000  1
  C  C24  1  0.38467000  0.88965000  0.39304000  1
  C  C25  1  0.99661000  0.99163000  0.10696000  1
  C  C26  1  0.20285000  0.84205000  0.16690000  1
  C  C27  1  0.17515000  0.03595000  0.33310000  1
  C  C28  1  0.27873000  0.97909000  0.39662000  1
  C  C29  1  0.08247000  0.88211000  0.10338000  1
  C  C30  1  0.24144000  0.78544000  0.16708000  1
  C  C31  1  0.11836000  0.07436000  0.33292000  1
  C  C32  1  0.12584000  0.82120000  0.10064000  1
  C  C33  1  0.22056000  0.02520000  0.39936000  1
  C  C34  1  0.20283000  0.70415000  0.10038000  1
  C  C35  1  0.10377000  0.10245000  0.39962000  1
  C  C36  1  0.08719000  0.74105000  0.03404000  1
  C  C37  1  0.20701000  0.05315000  0.46596000  1
  C  C38  1  0.04476000  0.14716000  0.40212000  1
  C  C39  1  0.24504000  0.64264000  0.09788000  1
  C  C40  1  0.31487000  0.86089000  0.39276000  1
  C  C41  1  0.96813000  0.92211000  0.10724000  1
  C  C42  1  0.26194000  0.90484000  0.39318000  1
  C  C43  1  0.01166000  0.86876000  0.10682000  1
  C  C44  1  0.12504000  0.68204000  0.03428000  1
  C  C45  1  0.14776000  0.09076000  0.46572000  1
  C  C46  1  0.00579000  0.71479000  0.95858000  1
  C  C47  1  0.25621000  0.04721000  0.54142000  1
  C  C48  1  0.78521000  0.49421000  0.54142000  1
  C  C49  1  0.45279000  0.24379000  0.95858000  1
  C  C50  1  0.81796000  0.37496000  0.46572000  1
  C  C51  1  0.40924000  0.35224000  0.03428000  1
  C  C52  1  0.59516000  0.23806000  0.10682000  1
  C  C53  1  0.63124000  0.48834000  0.39318000  1
  C  C54  1  0.63911000  0.18513000  0.10724000  1
  C  C55  1  0.57789000  0.53187000  0.39276000  1
  C  C56  1  0.35284000  0.45524000  0.09788000  1
  C  C57  1  0.85736000  0.25496000  0.40212000  1
  C  C58  1  0.75895000  0.41281000  0.46596000  1
  C  C59  1  0.44685000  0.29299000  0.03404000  1
  C  C60  1  0.79585000  0.29717000  0.39962000  1
  C  C61  1  0.39755000  0.39623000  0.10038000  1
  C  C62  1  0.67880000  0.37416000  0.39936000  1
  C  C63  1  0.47480000  0.27944000  0.10064000  1
  C  C64  1  0.71456000  0.25856000  0.33292000  1
  C  C65  1  0.42564000  0.38164000  0.16708000  1
  C  C66  1  0.52091000  0.22127000  0.10338000  1
  C  C67  1  0.61789000  0.41753000  0.39662000  1
  C  C68  1  0.65795000  0.29715000  0.33310000  1
  C  C69  1  0.46405000  0.32485000  0.16690000  1
  C  C70  1  0.61035000  0.11533000  0.10696000  1
  C  C71  1  0.50837000  0.50339000  0.39304000  1
  C  C72  1  0.45315000  0.55353000  0.39788000  1
  C  C73  1  0.65565000  0.05527000  0.10212000  1
  C  C74  1  0.13000000  0.67360000  0.22160000  1
  C  C75  1  0.95200000  0.90840000  0.27840000  1
  C  C76  1  0.12810000  0.34650000  0.89280000  1
  C  C77  1  0.95370000  0.23530000  0.60720000  1
  C  C78  1  0.07180000  0.70980000  0.20500000  1
  C  C79  1  0.00480000  0.86680000  0.29500000  1
  C  C80  1  0.47179000  0.68617000  0.59802000  1
  C  C81  1  0.58815000  0.87377000  0.90198000  1
  C  C82  1  0.81749000  0.91551000  0.18880000  1
  C  C83  1  0.22671000  0.62869000  0.31120000  1
  C  C84  1  0.49347000  0.15243000  0.10570000  1
  C  C85  1  0.54673000  0.38777000  0.39430000  1
  C  C86  1  0.16304000  0.66882000  0.29246000  1
  C  C87  1  0.87636000  0.87058000  0.20754000  1
  C  C88  1  0.53805000  0.10019000  0.10758000  1
  C  C89  1  0.49261000  0.43047000  0.39242000  1
  C  C90  1  0.04396000  0.74258000  0.25974000  1
  C  C91  1  0.98284000  0.78422000  0.24026000  1
  C  C92  1  0.09306000  0.25526000  0.83254000  1
  C  C93  1  0.92272000  0.26052000  0.66746000  1
  C  C94  1  0.14536000  0.21158000  0.84894000  1
  C  C95  1  0.86264000  0.29642000  0.65106000  1
  C  C96  1  0.13736000  0.70358000  0.34894000  1
  C  C97  1  0.85464000  0.78842000  0.15106000  1
  C  C98  1  0.07728000  0.73948000  0.33254000  1
  C  C99  1  0.90694000  0.74474000  0.16746000  1
  C  C100  1  0.01716000  0.21578000  0.75974000  1
  C  C101  1  0.95604000  0.25742000  0.74026000  1
  C  C102  1  0.50739000  0.56953000  0.60758000  1
  C  C103  1  0.46195000  0.89981000  0.89242000  1
  C  C104  1  0.12364000  0.12942000  0.79246000  1
  C  C105  1  0.83696000  0.33118000  0.70754000  1
  C  C106  1  0.45327000  0.61223000  0.60570000  1
  C  C107  1  0.50653000  0.84757000  0.89430000  1
  C  C108  1  0.77329000  0.37131000  0.68880000  1
  C  C109  1  0.18251000  0.08449000  0.81120000  1
  C  C110  1  0.41185000  0.12623000  0.09802000  1
  C  C111  1  0.52821000  0.31383000  0.40198000  1
  C  C112  1  0.99520000  0.13320000  0.70500000  1
  C  C113  1  0.92820000  0.29020000  0.79500000  1
  C  C114  1  0.04630000  0.76470000  0.39280000  1
  C  C115  1  0.87190000  0.65350000  0.10720000  1
  C  C116  1  0.04800000  0.09160000  0.72160000  1
  C  C117  1  0.87000000  0.32640000  0.77840000  1
  C  C118  1  0.34435000  0.94473000  0.89788000  1
  C  C119  1  0.54685000  0.44647000  0.60212000  1
  C  C120  1  0.49163000  0.49661000  0.60696000  1
  C  C121  1  0.38965000  0.88467000  0.89304000  1
  C  C122  1  0.53595000  0.67515000  0.83310000  1
  C  C123  1  0.34205000  0.70285000  0.66690000  1
  C  C124  1  0.38211000  0.58247000  0.60338000  1
  C  C125  1  0.47909000  0.77873000  0.89662000  1
  C  C126  1  0.57436000  0.61836000  0.83292000  1
  C  C127  1  0.28544000  0.74144000  0.66708000  1
  C  C128  1  0.52520000  0.72056000  0.89936000  1
  C  C129  1  0.32120000  0.62584000  0.60064000  1
  C  C130  1  0.60245000  0.60377000  0.89962000  1
  C  C131  1  0.20415000  0.70283000  0.60038000  1
  C  C132  1  0.55315000  0.70701000  0.96596000  1
  C  C133  1  0.24105000  0.58719000  0.53404000  1
  C  C134  1  0.14264000  0.74504000  0.59788000  1
  C  C135  1  0.64716000  0.54476000  0.90212000  1
  C  C136  1  0.42211000  0.46813000  0.60724000  1
  C  C137  1  0.36089000  0.81487000  0.89276000  1
  C  C138  1  0.36876000  0.51166000  0.60682000  1
  C  C139  1  0.40484000  0.76194000  0.89318000  1
  C  C140  1  0.59076000  0.64776000  0.96572000  1
  C  C141  1  0.18204000  0.62504000  0.53428000  1
  C  C142  1  0.54721000  0.75621000  0.04142000  1
  C  C143  1  0.21479000  0.50579000  0.45858000  1
  C  C144  1  0.74379000  0.95279000  0.45858000  1
  C  C145  1  0.99421000  0.28521000  0.04142000  1
  C  C146  1  0.85224000  0.90924000  0.53428000  1
  C  C147  1  0.87496000  0.31796000  0.96572000  1
  C  C148  1  0.98834000  0.13124000  0.89318000  1
  C  C149  1  0.73806000  0.09516000  0.60682000  1
  C  C150  1  0.03187000  0.07789000  0.89276000  1
  C  C151  1  0.68513000  0.13911000  0.60724000  1
  C  C152  1  0.75496000  0.35736000  0.90212000  1
  C  C153  1  0.95524000  0.85284000  0.59788000  1
  C  C154  1  0.79299000  0.94685000  0.53404000  1
  C  C155  1  0.91281000  0.25895000  0.96596000  1
  C  C156  1  0.89623000  0.89755000  0.60038000  1
  C  C157  1  0.79717000  0.29585000  0.89962000  1
  C  C158  1  0.77944000  0.97480000  0.60064000  1
  C  C159  1  0.87416000  0.17880000  0.89936000  1
  C  C160  1  0.88164000  0.92564000  0.66708000  1
  C  C161  1  0.75856000  0.21456000  0.83292000  1
  C  C162  1  0.91753000  0.11789000  0.89662000  1
  C  C163  1  0.72127000  0.02091000  0.60338000  1
  C  C164  1  0.82485000  0.96405000  0.66690000  1
  C  C165  1  0.79715000  0.15795000  0.83310000  1
  C  C166  1  0.00339000  0.00837000  0.89304000  1
  C  C167  1  0.61533000  0.11035000  0.60696000  1
  C  C168  1  0.55527000  0.15565000  0.60212000  1
  C  C169  1  0.05353000  0.95315000  0.89788000  1
  C  C170  1  0.40840000  0.45200000  0.77840000  1
  C  C171  1  0.17360000  0.63000000  0.72160000  1
  C  C172  1  0.73530000  0.45370000  0.10720000  1
  C  C173  1  0.84650000  0.62810000  0.39280000  1
  C  C174  1  0.36680000  0.50480000  0.79500000  1
  C  C175  1  0.20980000  0.57180000  0.70500000  1
  C  C176  1  0.37377000  0.08815000  0.40198000  1
  C  C177  1  0.18617000  0.97179000  0.09802000  1
  C  C178  1  0.12869000  0.72671000  0.81120000  1
  C  C179  1  0.41551000  0.31749000  0.68880000  1
  C  C180  1  0.88777000  0.04673000  0.89430000  1
  C  C181  1  0.65243000  0.99347000  0.60570000  1
  C  C182  1  0.37058000  0.37636000  0.70754000  1
  C  C183  1  0.16882000  0.66304000  0.79246000  1
  C  C184  1  0.93047000  0.99261000  0.89242000  1
  C  C185  1  0.60019000  0.03805000  0.60758000  1
  C  C186  1  0.28422000  0.48284000  0.74026000  1
  C  C187  1  0.24258000  0.54396000  0.75974000  1
  C  C188  1  0.76052000  0.42272000  0.16746000  1
  C  C189  1  0.75526000  0.59306000  0.33254000  1
  C  C190  1  0.79642000  0.36264000  0.15106000  1
  C  C191  1  0.71158000  0.64536000  0.34894000  1
  Co  Co192  1  0.08792000  0.82842000  0.93100000  1
  Co  Co193  1  0.39742000  0.15692000  0.56900000  1
  Co  Co194  1  0.24309000  0.49309000  0.98618000  1
  Co  Co195  1  0.00691000  0.25691000  0.51382000  1
  Co  Co196  1  0.67158000  0.41208000  0.56900000  1
  Co  Co197  1  0.34308000  0.10258000  0.93100000  1
  Co  Co198  1  0.65692000  0.89742000  0.06900000  1
  Co  Co199  1  0.32842000  0.58792000  0.43100000  1
  Co  Co200  1  0.99309000  0.74309000  0.48618000  1
  Co  Co201  1  0.75691000  0.50691000  0.01382000  1
  Co  Co202  1  0.60258000  0.84308000  0.43100000  1
  Co  Co203  1  0.91208000  0.17158000  0.06900000  1
  H  H204  1  0.26140000  0.30340000  0.60040000  1
  H  H205  1  0.20300000  0.66100000  0.89960000  1
  H  H206  1  0.90970000  0.94430000  0.89060000  1
  H  H207  1  0.55370000  0.01910000  0.60940000  1
  H  H208  1  0.22930000  0.89630000  0.21300000  1
  H  H209  1  0.18330000  0.01630000  0.28700000  1
  H  H210  1  0.78750000  0.44950000  0.34440000  1
  H  H211  1  0.60510000  0.44310000  0.15560000  1
  H  H212  1  0.84880000  0.35240000  0.31720000  1
  H  H213  1  0.53520000  0.53160000  0.18280000  1
  H  H214  1  0.29450000  0.80150000  0.21260000  1
  H  H215  1  0.08890000  0.08190000  0.28740000  1
  H  H216  1  0.61610000  0.28650000  0.10900000  1
  H  H217  1  0.67750000  0.50710000  0.39100000  1
  H  H218  1  0.68890000  0.19670000  0.10780000  1
  H  H219  1  0.58890000  0.58110000  0.39220000  1
  H  H220  1  0.87290000  0.40270000  0.51080000  1
  H  H221  1  0.39190000  0.36210000  0.98920000  1
  H  H222  1  0.09730000  0.62710000  0.98920000  1
  H  H223  1  0.13790000  0.10810000  0.51080000  1
  H  H224  1  0.30330000  0.81110000  0.39220000  1
  H  H225  1  0.91890000  0.91110000  0.10780000  1
  H  H226  1  0.21350000  0.88390000  0.39100000  1
  H  H227  1  0.99290000  0.82250000  0.10900000  1
  H  H228  1  0.69850000  0.20550000  0.28740000  1
  H  H229  1  0.41810000  0.41110000  0.21260000  1
  H  H230  1  0.14760000  0.65120000  0.18280000  1
  H  H231  1  0.96840000  0.96480000  0.31720000  1
  H  H232  1  0.05050000  0.71250000  0.15560000  1
  H  H233  1  0.05690000  0.89490000  0.34440000  1
  H  H234  1  0.60370000  0.27070000  0.28700000  1
  H  H235  1  0.48370000  0.31670000  0.21300000  1
  H  H236  1  0.55570000  0.59030000  0.60940000  1
  H  H237  1  0.48090000  0.94630000  0.89060000  1
  H  H238  1  0.19660000  0.23860000  0.89960000  1
  H  H239  1  0.83900000  0.29700000  0.60040000  1
  H  H240  1  0.16100000  0.70300000  0.39960000  1
  H  H241  1  0.80340000  0.76140000  0.10040000  1
  H  H242  1  0.51910000  0.05370000  0.10940000  1
  H  H243  1  0.44430000  0.40970000  0.39060000  1
  H  H244  1  0.51630000  0.68330000  0.78700000  1
  H  H245  1  0.39630000  0.72930000  0.71300000  1
  H  H246  1  0.94310000  0.10510000  0.65560000  1
  H  H247  1  0.94950000  0.28750000  0.84440000  1
  H  H248  1  0.03160000  0.03520000  0.68280000  1
  H  H249  1  0.85240000  0.34880000  0.81720000  1
  H  H250  1  0.58190000  0.58890000  0.78740000  1
  H  H251  1  0.30150000  0.79450000  0.71260000  1
  H  H252  1  0.00710000  0.17750000  0.89100000  1
  H  H253  1  0.78650000  0.11610000  0.60900000  1
  H  H254  1  0.08110000  0.08890000  0.89220000  1
  H  H255  1  0.69670000  0.18890000  0.60780000  1
  H  H256  1  0.86210000  0.89190000  0.48920000  1
  H  H257  1  0.90270000  0.37290000  0.01080000  1
  H  H258  1  0.60810000  0.63790000  0.01080000  1
  H  H259  1  0.12710000  0.59730000  0.48920000  1
  H  H260  1  0.41110000  0.41890000  0.60780000  1
  H  H261  1  0.31110000  0.80330000  0.89220000  1
  H  H262  1  0.32250000  0.49290000  0.60900000  1
  H  H263  1  0.38390000  0.71350000  0.89100000  1
  H  H264  1  0.91110000  0.91810000  0.71260000  1
  H  H265  1  0.70550000  0.19850000  0.78740000  1
  H  H266  1  0.46480000  0.46840000  0.81720000  1
  H  H267  1  0.15120000  0.64760000  0.68280000  1
  H  H268  1  0.39490000  0.55690000  0.84440000  1
  H  H269  1  0.21250000  0.55050000  0.65560000  1
  H  H270  1  0.81670000  0.98370000  0.71300000  1
  H  H271  1  0.77070000  0.10370000  0.78700000  1
  H  H272  1  0.44630000  0.98090000  0.39060000  1
  H  H273  1  0.09030000  0.05570000  0.10940000  1
  H  H274  1  0.79700000  0.33900000  0.10040000  1
  H  H275  1  0.73860000  0.69660000  0.39960000  1
  Na  Na276  1  0.74466000  0.99466000  0.98932000  1
  Na  Na277  1  0.62500000  0.87500000  0.75000000  1
  Na  Na278  1  0.50534000  0.75534000  0.51068000  1
  Na  Na279  1  0.12500000  0.37500000  0.75000000  1
  Na  Na280  1  0.87500000  0.62500000  0.25000000  1
  Na  Na281  1  0.49466000  0.24466000  0.48932000  1
  Na  Na282  1  0.37500000  0.12500000  0.25000000  1
  Na  Na283  1  0.25534000  0.00534000  0.01068000  1
  O  O284  1  0.97997000  0.11179000  0.10738000  1
  O  O285  1  0.50441000  0.87259000  0.39262000  1
  O  O286  1  0.62258000  0.74268000  0.38366000  1
  O  O287  1  0.85902000  0.23892000  0.11634000  1
  O  O288  1  0.62111000  0.84955000  0.53624000  1
  O  O289  1  0.81331000  0.08487000  0.96376000  1
  O  O290  1  0.51592000  0.66844000  0.25556000  1
  O  O291  1  0.91288000  0.26036000  0.24444000  1
  O  O292  1  0.12550000  0.32750000  0.53520000  1
  O  O293  1  0.29230000  0.59030000  0.96480000  1
  O  O294  1  0.76096000  0.96088000  0.85490000  1
  O  O295  1  0.60598000  0.90606000  0.64510000  1
  O  O296  1  0.24780000  0.47380000  0.86500000  1
  O  O297  1  0.10880000  0.38280000  0.63500000  1
  O  O298  1  0.01903000  0.17241000  0.35274000  1
  O  O299  1  0.31967000  0.66629000  0.14726000  1
  O  O300  1  0.33380000  0.08034000  0.57972000  1
  O  O301  1  0.00062000  0.75408000  0.92028000  1
  O  O302  1  0.84277000  0.55185000  0.56444000  1
  O  O303  1  0.48741000  0.27833000  0.93556000  1
  O  O304  1  0.87807000  0.02661000  0.09238000  1
  O  O305  1  0.43423000  0.78569000  0.40762000  1
  O  O306  1  0.34625000  0.47699000  0.04544000  1
  O  O307  1  0.93155000  0.30081000  0.45456000  1
  O  O308  1  0.02301000  0.15375000  0.45456000  1
  O  O309  1  0.19919000  0.56845000  0.04544000  1
  O  O310  1  0.47339000  0.62193000  0.40762000  1
  O  O311  1  0.71431000  0.06577000  0.09238000  1
  O  O312  1  0.94815000  0.65723000  0.93556000  1
  O  O313  1  0.22167000  0.01259000  0.56444000  1
  O  O314  1  0.41966000  0.16620000  0.92028000  1
  O  O315  1  0.74592000  0.49938000  0.57972000  1
  O  O316  1  0.32759000  0.48097000  0.14726000  1
  O  O317  1  0.83371000  0.18033000  0.35274000  1
  O  O318  1  0.02620000  0.25220000  0.63500000  1
  O  O319  1  0.11720000  0.39120000  0.86500000  1
  O  O320  1  0.53912000  0.73904000  0.64510000  1
  O  O321  1  0.59394000  0.89402000  0.85490000  1
  O  O322  1  0.17250000  0.37450000  0.96480000  1
  O  O323  1  0.90970000  0.20770000  0.53520000  1
  O  O324  1  0.83156000  0.98408000  0.24444000  1
  O  O325  1  0.23964000  0.58712000  0.25556000  1
  O  O326  1  0.65045000  0.87889000  0.96376000  1
  O  O327  1  0.41513000  0.68669000  0.53624000  1
  O  O328  1  0.75732000  0.87742000  0.11634000  1
  O  O329  1  0.26108000  0.64098000  0.38366000  1
  O  O330  1  0.38821000  0.52003000  0.39262000  1
  O  O331  1  0.62741000  0.99559000  0.10738000  1
  O  O332  1  0.37259000  0.00441000  0.89262000  1
  O  O333  1  0.61179000  0.47997000  0.60738000  1
  O  O334  1  0.73892000  0.35902000  0.61634000  1
  O  O335  1  0.24268000  0.12258000  0.88366000  1
  O  O336  1  0.58487000  0.31331000  0.46376000  1
  O  O337  1  0.34955000  0.12111000  0.03624000  1
  O  O338  1  0.76036000  0.41288000  0.74444000  1
  O  O339  1  0.16844000  0.01592000  0.75556000  1
  O  O340  1  0.09030000  0.79230000  0.46480000  1
  O  O341  1  0.82750000  0.62550000  0.03520000  1
  O  O342  1  0.40606000  0.10598000  0.14510000  1
  O  O343  1  0.46088000  0.26096000  0.35490000  1
  O  O344  1  0.88280000  0.60880000  0.13500000  1
  O  O345  1  0.97380000  0.74780000  0.36500000  1
  O  O346  1  0.16629000  0.81967000  0.64726000  1
  O  O347  1  0.67241000  0.51903000  0.85274000  1
  O  O348  1  0.25408000  0.50062000  0.42028000  1
  O  O349  1  0.58034000  0.83380000  0.07972000  1
  O  O350  1  0.77833000  0.98741000  0.43556000  1
  O  O351  1  0.05185000  0.34277000  0.06444000  1
  O  O352  1  0.28569000  0.93423000  0.90762000  1
  O  O353  1  0.52661000  0.37807000  0.59238000  1
  O  O354  1  0.80081000  0.43155000  0.95456000  1
  O  O355  1  0.97699000  0.84625000  0.54544000  1
  O  O356  1  0.06845000  0.69919000  0.54544000  1
  O  O357  1  0.65375000  0.52301000  0.95456000  1
  O  O358  1  0.56577000  0.21431000  0.59238000  1
  O  O359  1  0.12193000  0.97339000  0.90762000  1
  O  O360  1  0.51259000  0.72167000  0.06444000  1
  O  O361  1  0.15723000  0.44815000  0.43556000  1
  O  O362  1  0.99938000  0.24592000  0.07972000  1
  O  O363  1  0.66620000  0.91966000  0.42028000  1
  O  O364  1  0.68033000  0.33371000  0.85274000  1
  O  O365  1  0.98097000  0.82759000  0.64726000  1
  O  O366  1  0.89120000  0.61720000  0.36500000  1
  O  O367  1  0.75220000  0.52620000  0.13500000  1
  O  O368  1  0.39402000  0.09394000  0.35490000  1
  O  O369  1  0.23904000  0.03912000  0.14510000  1
  O  O370  1  0.70770000  0.40970000  0.03520000  1
  O  O371  1  0.87450000  0.67250000  0.46480000  1
  O  O372  1  0.08712000  0.73964000  0.75556000  1
  O  O373  1  0.48408000  0.33156000  0.74444000  1
  O  O374  1  0.18669000  0.91513000  0.03624000  1
  O  O375  1  0.37889000  0.15045000  0.46376000  1
  O  O376  1  0.14098000  0.76108000  0.88366000  1
  O  O377  1  0.37742000  0.25732000  0.61634000  1
  O  O378  1  0.49559000  0.12741000  0.60738000  1
  O  O379  1  0.02003000  0.88821000  0.89262000  1
