# generated using pymatgen
data_Mn2CdH60(C11O3)8
_symmetry_space_group_name_H-M   'P 1'
_cell_length_a   15.95700000
_cell_length_b   16.46000000
_cell_length_c   17.30000000
_cell_angle_alpha   106.07000000
_cell_angle_beta   100.85000000
_cell_angle_gamma   113.40800000
_symmetry_Int_Tables_number   1
_chemical_formula_structural   Mn2CdH60(C11O3)8
_chemical_formula_sum   'Mn2 Cd1 H60 C88 O24'
_cell_volume   3770.90863251
_cell_formula_units_Z   1
loop_
 _symmetry_equiv_pos_site_id
 _symmetry_equiv_pos_as_xyz
  1  'x, y, z'
loop_
 _atom_site_type_symbol
 _atom_site_label
 _atom_site_symmetry_multiplicity
 _atom_site_fract_x
 _atom_site_fract_y
 _atom_site_fract_z
 _atom_site_occupancy
  Mn  Mn0  1  0.50000000  0.50000000  0.50000000  1
  Mn  Mn1  1  0.74896000  0.59677000  0.57339000  1
  Cd  Cd2  1  0.25104000  0.40323000  0.42661000  1
  H  H3  1  0.03720000  0.39960000  0.17980000  1
  H  H4  1  0.08900000  0.71950000  0.67320000  1
  H  H5  1  0.11710000  0.65390000  0.91830000  1
  H  H6  1  0.20750000  0.83850000  0.96220000  1
  H  H7  1  0.21320000  0.87850000  0.05750000  1
  H  H8  1  0.23460000  0.17760000  0.56550000  1
  H  H9  1  0.24000000  0.75550000  0.75690000  1
  H  H10  1  0.26810000  0.69280000  0.55490000  1
  H  H11  1  0.28740000  0.19580000  0.18260000  1
  H  H12  1  0.28860000  0.09740000  0.62930000  1
  H  H13  1  0.29710000  0.85140000  0.62490000  1
  H  H14  1  0.30560000  0.92160000  0.03210000  1
  H  H15  1  0.31780000  0.66720000  0.14060000  1
  H  H16  1  0.32350000  0.61840000  0.05150000  1
  H  H17  1  0.32820000  0.67930000  0.79830000  1
  H  H18  1  0.33710000  0.57870000  0.12280000  1
  H  H19  1  0.35320000  0.26910000  0.98880000  1
  H  H20  1  0.36920000  0.16150000  0.08920000  1
  H  H21  1  0.37110000  0.26270000  0.90170000  1
  H  H22  1  0.38750000  0.89950000  0.84070000  1
  H  H23  1  0.39700000  0.57240000  0.77190000  1
  H  H24  1  0.40430000  0.02090000  0.63560000  1
  H  H25  1  0.41010000  0.98830000  0.92080000  1
  H  H26  1  0.43050000  0.08100000  0.24800000  1
  H  H27  1  0.43920000  0.68680000  0.29330000  1
  H  H28  1  0.45090000  0.91820000  0.93120000  1
  H  H29  1  0.45630000  0.22470000  0.32810000  1
  H  H30  1  0.45680000  0.33220000  0.98820000  1
  H  H31  1  0.49090000  0.53750000  0.69220000  1
  H  H32  1  0.49320000  0.61590000  0.37760000  1
  H  H33  1  0.50680000  0.38410000  0.62240000  1
  H  H34  1  0.50910000  0.46250000  0.30780000  1
  H  H35  1  0.54320000  0.66780000  0.01180000  1
  H  H36  1  0.54370000  0.77530000  0.67190000  1
  H  H37  1  0.54910000  0.08180000  0.06880000  1
  H  H38  1  0.56080000  0.31320000  0.70670000  1
  H  H39  1  0.56950000  0.91900000  0.75200000  1
  H  H40  1  0.58990000  0.01170000  0.07920000  1
  H  H41  1  0.59570000  0.97910000  0.36440000  1
  H  H42  1  0.60300000  0.42760000  0.22810000  1
  H  H43  1  0.61250000  0.10050000  0.15930000  1
  H  H44  1  0.62890000  0.73730000  0.09830000  1
  H  H45  1  0.63080000  0.83850000  0.91080000  1
  H  H46  1  0.64680000  0.73090000  0.01120000  1
  H  H47  1  0.66290000  0.42130000  0.87720000  1
  H  H48  1  0.67180000  0.32070000  0.20170000  1
  H  H49  1  0.67650000  0.38160000  0.94850000  1
  H  H50  1  0.68220000  0.33280000  0.85940000  1
  H  H51  1  0.69440000  0.07840000  0.96790000  1
  H  H52  1  0.70290000  0.14860000  0.37510000  1
  H  H53  1  0.71140000  0.90260000  0.37070000  1
  H  H54  1  0.71260000  0.80420000  0.81740000  1
  H  H55  1  0.73190000  0.30720000  0.44510000  1
  H  H56  1  0.76000000  0.24450000  0.24310000  1
  H  H57  1  0.76540000  0.82240000  0.43450000  1
  H  H58  1  0.78680000  0.12150000  0.94250000  1
  H  H59  1  0.79250000  0.16150000  0.03780000  1
  H  H60  1  0.88290000  0.34610000  0.08170000  1
  H  H61  1  0.91100000  0.28050000  0.32680000  1
  H  H62  1  0.96280000  0.60040000  0.82020000  1
  C  C63  1  0.00950000  0.65090000  0.73270000  1
  C  C64  1  0.01840000  0.63190000  0.80810000  1
  C  C65  1  0.08340000  0.37800000  0.32380000  1
  C  C66  1  0.09330000  0.70040000  0.71890000  1
  C  C67  1  0.11130000  0.66030000  0.86600000  1
  C  C68  1  0.18530000  0.72370000  0.77000000  1
  C  C69  1  0.19470000  0.69850000  0.84190000  1
  C  C70  1  0.24790000  0.86400000  0.02070000  1
  C  C71  1  0.29350000  0.73220000  0.90110000  1
  C  C72  1  0.30110000  0.20250000  0.59010000  1
  C  C73  1  0.32720000  0.33080000  0.53660000  1
  C  C74  1  0.32870000  0.77380000  0.98680000  1
  C  C75  1  0.33000000  0.74010000  0.59170000  1
  C  C76  1  0.33260000  0.15580000  0.63050000  1
  C  C77  1  0.34090000  0.35460000  0.31400000  1
  C  C78  1  0.34640000  0.83530000  0.63650000  1
  C  C79  1  0.34850000  0.24220000  0.18930000  1
  C  C80  1  0.34900000  0.63560000  0.11180000  1
  C  C81  1  0.35290000  0.70930000  0.85760000  1
  C  C82  1  0.36300000  0.28630000  0.58300000  1
  C  C83  1  0.38860000  0.61970000  0.55320000  1
  C  C84  1  0.39360000  0.33740000  0.25640000  1
  C  C85  1  0.39850000  0.22100000  0.13440000  1
  C  C86  1  0.39900000  0.27110000  0.95950000  1
  C  C87  1  0.40340000  0.71840000  0.60220000  1
  C  C88  1  0.42340000  0.80010000  0.03680000  1
  C  C89  1  0.43330000  0.19550000  0.67500000  1
  C  C90  1  0.43530000  0.94810000  0.89440000  1
  C  C91  1  0.43870000  0.05370000  0.69390000  1
  C  C92  1  0.43930000  0.90550000  0.69930000  1
  C  C93  1  0.44810000  0.73000000  0.90050000  1
  C  C94  1  0.45860000  0.00450000  0.73960000  1
  C  C95  1  0.46070000  0.61750000  0.78350000  1
  C  C96  1  0.46280000  0.84920000  0.13070000  1
  C  C97  1  0.46320000  0.32850000  0.62570000  1
  C  C98  1  0.46730000  0.14960000  0.73050000  1
  C  C99  1  0.48110000  0.77710000  0.99150000  1
  C  C100  1  0.48150000  0.80300000  0.18590000  1
  C  C101  1  0.48240000  0.40110000  0.26580000  1
  C  C102  1  0.49100000  0.12370000  0.28970000  1
  C  C103  1  0.49120000  0.94590000  0.17070000  1
  C  C104  1  0.49280000  0.29020000  0.14810000  1
  C  C105  1  0.49280000  0.78970000  0.66350000  1
  C  C106  1  0.49550000  0.28320000  0.67420000  1
  C  C107  1  0.50450000  0.71680000  0.32580000  1
  C  C108  1  0.50720000  0.21030000  0.33650000  1
  C  C109  1  0.50720000  0.70980000  0.85190000  1
  C  C110  1  0.50880000  0.05410000  0.82930000  1
  C  C111  1  0.50900000  0.87630000  0.71030000  1
  C  C112  1  0.51760000  0.59890000  0.73420000  1
  C  C113  1  0.51850000  0.19700000  0.81410000  1
  C  C114  1  0.51890000  0.22290000  0.00850000  1
  C  C115  1  0.53270000  0.85040000  0.26950000  1
  C  C116  1  0.53680000  0.67150000  0.37430000  1
  C  C117  1  0.53720000  0.15080000  0.86930000  1
  C  C118  1  0.53930000  0.38250000  0.21650000  1
  C  C119  1  0.54140000  0.99550000  0.26040000  1
  C  C120  1  0.55190000  0.27000000  0.09950000  1
  C  C121  1  0.56070000  0.09450000  0.30070000  1
  C  C122  1  0.56130000  0.94630000  0.30610000  1
  C  C123  1  0.56470000  0.05190000  0.10560000  1
  C  C124  1  0.56670000  0.80450000  0.32500000  1
  C  C125  1  0.57660000  0.19990000  0.96320000  1
  C  C126  1  0.59660000  0.28160000  0.39780000  1
  C  C127  1  0.60100000  0.72890000  0.04050000  1
  C  C128  1  0.60150000  0.77900000  0.86560000  1
  C  C129  1  0.60640000  0.66260000  0.74360000  1
  C  C130  1  0.61140000  0.38030000  0.44680000  1
  C  C131  1  0.63700000  0.71370000  0.41700000  1
  C  C132  1  0.64710000  0.29070000  0.14240000  1
  C  C133  1  0.65100000  0.36440000  0.88820000  1
  C  C134  1  0.65150000  0.75780000  0.81070000  1
  C  C135  1  0.65360000  0.16470000  0.36350000  1
  C  C136  1  0.65910000  0.64540000  0.68600000  1
  C  C137  1  0.66740000  0.84420000  0.36950000  1
  C  C138  1  0.67000000  0.25990000  0.40830000  1
  C  C139  1  0.67130000  0.22620000  0.01320000  1
  C  C140  1  0.67280000  0.66920000  0.46340000  1
  C  C141  1  0.69890000  0.79750000  0.40990000  1
  C  C142  1  0.70650000  0.26780000  0.09890000  1
  C  C143  1  0.75210000  0.13600000  0.97930000  1
  C  C144  1  0.80530000  0.30150000  0.15810000  1
  C  C145  1  0.81470000  0.27630000  0.23000000  1
  C  C146  1  0.88870000  0.33970000  0.13400000  1
  C  C147  1  0.90670000  0.29960000  0.28110000  1
  C  C148  1  0.91660000  0.62200000  0.67620000  1
  C  C149  1  0.98160000  0.36810000  0.19190000  1
  C  C150  1  0.99050000  0.34910000  0.26730000  1
  O  O151  1  0.08970000  0.34740000  0.38770000  1
  O  O152  1  0.16220000  0.42680000  0.31320000  1
  O  O153  1  0.23450000  0.29620000  0.49510000  1
  O  O154  1  0.25780000  0.29040000  0.30570000  1
  O  O155  1  0.27260000  0.79730000  0.03560000  1
  O  O156  1  0.29810000  0.54690000  0.51530000  1
  O  O157  1  0.38190000  0.41010000  0.53170000  1
  O  O158  1  0.38290000  0.44350000  0.37580000  1
  O  O159  1  0.42390000  0.19200000  0.95890000  1
  O  O160  1  0.45430000  0.70110000  0.14350000  1
  O  O161  1  0.46030000  0.60810000  0.54370000  1
  O  O162  1  0.47490000  0.99200000  0.12040000  1
  O  O163  1  0.52510000  0.00800000  0.87960000  1
  O  O164  1  0.53970000  0.39190000  0.45630000  1
  O  O165  1  0.54570000  0.29890000  0.85650000  1
  O  O166  1  0.57610000  0.80800000  0.04110000  1
  O  O167  1  0.61710000  0.55650000  0.62420000  1
  O  O168  1  0.61810000  0.58990000  0.46830000  1
  O  O169  1  0.70190000  0.45310000  0.48470000  1
  O  O170  1  0.72740000  0.20270000  0.96440000  1
  O  O171  1  0.74220000  0.70960000  0.69430000  1
  O  O172  1  0.76550000  0.70380000  0.50490000  1
  O  O173  1  0.83780000  0.57320000  0.68680000  1
  O  O174  1  0.91030000  0.65260000  0.61230000  1
