# generated using pymatgen
data_ZnCo2P2H6(C8O7)2
_symmetry_space_group_name_H-M   'P 1'
_cell_length_a   17.28210000
_cell_length_b   17.28210000
_cell_length_c   17.59844588
_cell_angle_alpha   117.12588866
_cell_angle_beta   117.12688866
_cell_angle_gamma   94.09410000
_symmetry_Int_Tables_number   1
_chemical_formula_structural   ZnCo2P2H6(C8O7)2
_chemical_formula_sum   'Zn4 Co8 P8 H24 C64 O56'
_cell_volume   3896.03373431
_cell_formula_units_Z   4
loop_
 _symmetry_equiv_pos_site_id
 _symmetry_equiv_pos_as_xyz
  1  'x, y, z'
loop_
 _atom_site_type_symbol
 _atom_site_label
 _atom_site_symmetry_multiplicity
 _atom_site_fract_x
 _atom_site_fract_y
 _atom_site_fract_z
 _atom_site_occupancy
  Zn  Zn0  1  0.67946000  0.16738000  0.94462000  1
  Zn  Zn1  1  0.91738000  0.92946000  0.44462000  1
  Zn  Zn2  1  0.22276000  0.73484000  0.05538000  1
  Zn  Zn3  1  0.48484000  0.47276000  0.55538000  1
  Co  Co4  1  0.60130000  0.22176000  0.11488000  1
  Co  Co5  1  0.97176000  0.85130000  0.61488000  1
  Co  Co6  1  0.72296000  0.78116000  0.48846000  1
  Co  Co7  1  0.98450000  0.54270000  0.01154000  1
  Co  Co8  1  0.10688000  0.48642000  0.88512000  1
  Co  Co9  1  0.29270000  0.23450000  0.51154000  1
  Co  Co10  1  0.23642000  0.35688000  0.38512000  1
  Co  Co11  1  0.53116000  0.97296000  0.98846000  1
  P  P12  1  0.73218000  0.10674000  0.09418000  1
  P  P13  1  0.47612000  0.07456000  0.87846000  1
  P  P14  1  0.82456000  0.72612000  0.37846000  1
  P  P15  1  0.85674000  0.98218000  0.59418000  1
  P  P16  1  0.19610000  0.59766000  0.12154000  1
  P  P17  1  0.01256000  0.63800000  0.90582000  1
  P  P18  1  0.34766000  0.44610000  0.62154000  1
  P  P19  1  0.38800000  0.26256000  0.40582000  1
  H  H20  1  0.72580000  0.67420000  0.62220000  1
  H  H21  1  0.48000000  0.60180000  0.44200000  1
  H  H22  1  0.27790000  0.97490000  0.76660000  1
  H  H23  1  0.72490000  0.52790000  0.26660000  1
  H  H24  1  0.20830000  0.51130000  0.23340000  1
  H  H25  1  0.76580000  0.02300000  0.70120000  1
  H  H26  1  0.78800000  0.40980000  0.05800000  1
  H  H27  1  0.43410000  0.14070000  0.75200000  1
  H  H28  1  0.85360000  0.30200000  0.87780000  1
  H  H29  1  0.89070000  0.68410000  0.25200000  1
  H  H30  1  0.38870000  0.68210000  0.24800000  1
  H  H31  1  0.15980000  0.03800000  0.55800000  1
  H  H32  1  0.94830000  0.18150000  0.70020000  1
  H  H33  1  0.26130000  0.45830000  0.73340000  1
  H  H34  1  0.05200000  0.10360000  0.37780000  1
  H  H35  1  0.32180000  0.06460000  0.29880000  1
  H  H36  1  0.81460000  0.57180000  0.79880000  1
  H  H37  1  0.35180000  0.73000000  0.94200000  1
  H  H38  1  0.77300000  0.01580000  0.20120000  1
  H  H39  1  0.42420000  0.97580000  0.12220000  1
  H  H40  1  0.43210000  0.63870000  0.74800000  1
  H  H41  1  0.99810000  0.73130000  0.79980000  1
  H  H42  1  0.48130000  0.24810000  0.29980000  1
  H  H43  1  0.93150000  0.19830000  0.20020000  1
  C  C44  1  0.86530000  0.71050000  0.70480000  1
  C  C45  1  0.88310000  0.76370000  0.66260000  1
  C  C46  1  0.32440000  0.48920000  0.38200000  1
  C  C47  1  0.34010000  0.54750000  0.34280000  1
  C  C48  1  0.43130000  0.60070000  0.38800000  1
  C  C49  1  0.69240000  0.35720000  0.11800000  1
  C  C50  1  0.28340000  0.00520000  0.73620000  1
  C  C51  1  0.26900000  0.54720000  0.26380000  1
  C  C52  1  0.37030000  0.05690000  0.77160000  1
  C  C53  1  0.75520000  0.53340000  0.23620000  1
  C  C54  1  0.74730000  0.45470000  0.15720000  1
  C  C55  1  0.44890000  0.65130000  0.35340000  1
  C  C56  1  0.54980000  0.71100000  0.39960000  1
  C  C57  1  0.74650000  0.15070000  0.83560000  1
  C  C58  1  0.10720000  0.94240000  0.61800000  1
  C  C59  1  0.20470000  0.99730000  0.65720000  1
  C  C60  1  0.80690000  0.62030000  0.27160000  1
  C  C61  1  0.79330000  0.46270000  0.11200000  1
  C  C62  1  0.80130000  0.08070000  0.72340000  1
  C  C63  1  0.80030000  0.16190000  0.79460000  1
  C  C64  1  0.28530000  0.59870000  0.22840000  1
  C  C65  1  0.37610000  0.64890000  0.27280000  1
  C  C66  1  0.37610000  0.10330000  0.72720000  1
  C  C67  1  0.85330000  0.62610000  0.22720000  1
  C  C68  1  0.85590000  0.08650000  0.68520000  1
  C  C69  1  0.84550000  0.54790000  0.14660000  1
  C  C70  1  0.85470000  0.24850000  0.83020000  1
  C  C71  1  0.21270000  0.04330000  0.61200000  1
  C  C72  1  0.29790000  0.09550000  0.64660000  1
  C  C73  1  0.91100000  0.17620000  0.72380000  1
  C  C74  1  0.91050000  0.25570000  0.79520000  1
  C  C75  1  0.90020000  0.56140000  0.10040000  1
  C  C76  1  0.97050000  0.35110000  0.83740000  1
  C  C77  1  0.31140000  0.15020000  0.60040000  1
  C  C78  1  0.90070000  0.99650000  0.33560000  1
  C  C79  1  0.23920000  0.57440000  0.88200000  1
  C  C80  1  0.31510000  0.91090000  0.16440000  1
  C  C81  1  0.29750000  0.59010000  0.84280000  1
  C  C82  1  0.29720000  0.51900000  0.76380000  1
  C  C83  1  0.91190000  0.05030000  0.29460000  1
  C  C84  1  0.99850000  0.10470000  0.33020000  1
  C  C85  1  0.35070000  0.68130000  0.88800000  1
  C  C86  1  0.36730000  0.00570000  0.20540000  1
  C  C87  1  0.35730000  0.07790000  0.27660000  1
  C  C88  1  0.34870000  0.53530000  0.72840000  1
  C  C89  1  0.83070000  0.05130000  0.22340000  1
  C  C90  1  0.82790000  0.60730000  0.77660000  1
  C  C91  1  0.92070000  0.65130000  0.81480000  1
  C  C92  1  0.40130000  0.69890000  0.85340000  1
  C  C93  1  0.39890000  0.62610000  0.77280000  1
  C  C94  1  0.41830000  0.02450000  0.16980000  1
  C  C95  1  0.40130000  0.17070000  0.31480000  1
  C  C96  1  0.00570000  0.16050000  0.29520000  1
  C  C97  1  0.10110000  0.22050000  0.33740000  1
  C  C98  1  0.46100000  0.79980000  0.89960000  1
  C  C99  1  0.66090000  0.56510000  0.66440000  1
  C  C100  1  0.46050000  0.11530000  0.20480000  1
  C  C101  1  0.45240000  0.18720000  0.27620000  1
  C  C102  1  0.75570000  0.61730000  0.70540000  1
  C  C103  1  0.83650000  0.10590000  0.18520000  1
  C  C104  1  0.93720000  0.70240000  0.77620000  1
  C  C105  1  0.92620000  0.16100000  0.22380000  1
  C  C106  1  0.51370000  0.13310000  0.16260000  1
  C  C107  1  0.77450000  0.66830000  0.66980000  1
  O  O108  1  0.54560000  0.21480000  0.18980000  1
  O  O109  1  0.70960000  0.18380000  0.15680000  1
  O  O110  1  0.39090000  0.49850000  0.45860000  1
  O  O111  1  0.75310000  0.12410000  0.02680000  1
  O  O112  1  0.24040000  0.43620000  0.33300000  1
  O  O113  1  0.96480000  0.79560000  0.68980000  1
  O  O114  1  0.45770000  0.98550000  0.87620000  1
  O  O115  1  0.81750000  0.77490000  0.60540000  1
  O  O116  1  0.49470000  0.15990000  0.97520000  1
  O  O117  1  0.65740000  0.35320000  0.16700000  1
  O  O118  1  0.55260000  0.08880000  0.85960000  1
  O  O119  1  0.61400000  0.70920000  0.47120000  1
  O  O120  1  0.10320000  0.90740000  0.66700000  1
  O  O121  1  0.68230000  0.28990000  0.04140000  1
  O  O122  1  0.70120000  0.07360000  0.80540000  1
  O  O123  1  0.90990000  0.74470000  0.47520000  1
  O  O124  1  0.93380000  0.95960000  0.65680000  1
  O  O125  1  0.74930000  0.22210000  0.90600000  1
  O  O126  1  0.73550000  0.70770000  0.37620000  1
  O  O127  1  0.76270000  0.90950000  0.53480000  1
  O  O128  1  0.56410000  0.75810000  0.36920000  1
  O  O129  1  0.03990000  0.93230000  0.54140000  1
  O  O130  1  0.83880000  0.80260000  0.35960000  1
  O  O131  1  0.10930000  0.58150000  0.12380000  1
  O  O132  1  0.89280000  0.48800000  0.02880000  1
  O  O133  1  0.87410000  0.00310000  0.52680000  1
  O  O134  1  0.18470000  0.51950000  0.02480000  1
  O  O135  1  0.94490000  0.63890000  0.13080000  1
  O  O136  1  0.96210000  0.41950000  0.89460000  1
  O  O137  1  0.02500000  0.35580000  0.81020000  1
  O  O138  1  0.22920000  0.69300000  0.14040000  1
  O  O139  1  0.38890000  0.19490000  0.63080000  1
  O  O140  1  0.97210000  0.99930000  0.40600000  1
  O  O141  1  0.23800000  0.14280000  0.52880000  1
  O  O142  1  0.82360000  0.95120000  0.30540000  1
  O  O143  1  0.18620000  0.49040000  0.83300000  1
  O  O144  1  0.97790000  0.62470000  0.96520000  1
  O  O145  1  0.24850000  0.64090000  0.95860000  1
  O  O146  1  0.26820000  0.89580000  0.19460000  1
  O  O147  1  0.02700000  0.55280000  0.84320000  1
  O  O148  1  0.33150000  0.35930000  0.62380000  1
  O  O149  1  0.31610000  0.84330000  0.09400000  1
  O  O150  1  0.09730000  0.72630000  0.97320000  1
  O  O151  1  0.37470000  0.22790000  0.46520000  1
  O  O152  1  0.16950000  0.21210000  0.39460000  1
  O  O153  1  0.64580000  0.51820000  0.69460000  1
  O  O154  1  0.44300000  0.47920000  0.64040000  1
  O  O155  1  0.47630000  0.34730000  0.47320000  1
  O  O156  1  0.45920000  0.86400000  0.97120000  1
  O  O157  1  0.26950000  0.43470000  0.52480000  1
  O  O158  1  0.30280000  0.27700000  0.34320000  1
  O  O159  1  0.50810000  0.81410000  0.86920000  1
  O  O160  1  0.52490000  0.06750000  0.10540000  1
  O  O161  1  0.10580000  0.27500000  0.31020000  1
  O  O162  1  0.59330000  0.56610000  0.59400000  1
  O  O163  1  0.65950000  0.01270000  0.03480000  1
