# generated using pymatgen
data_CuH18C26(N2O)4
_symmetry_space_group_name_H-M   'P 1'
_cell_length_a   12.90500000
_cell_length_b   18.12000000
_cell_length_c   18.12000000
_cell_angle_alpha   90.00000000
_cell_angle_beta   90.00000000
_cell_angle_gamma   90.00000000
_symmetry_Int_Tables_number   1
_chemical_formula_structural   CuH18C26(N2O)4
_chemical_formula_sum   'Cu4 H72 C104 N32 O16'
_cell_volume   4237.15543200
_cell_formula_units_Z   4
loop_
 _symmetry_equiv_pos_site_id
 _symmetry_equiv_pos_as_xyz
  1  'x, y, z'
loop_
 _atom_site_type_symbol
 _atom_site_label
 _atom_site_symmetry_multiplicity
 _atom_site_fract_x
 _atom_site_fract_y
 _atom_site_fract_z
 _atom_site_occupancy
  Cu  Cu0  1  0.00000000  0.00000000  0.00000000  1
  Cu  Cu1  1  0.50000000  0.00000000  0.50000000  1
  Cu  Cu2  1  0.50000000  0.50000000  0.00000000  1
  Cu  Cu3  1  0.00000000  0.50000000  0.50000000  1
  H  H4  1  0.52660000  0.00110000  0.32510000  1
  H  H5  1  0.61130000  0.00200000  0.96830000  1
  H  H6  1  0.96360000  0.01560000  0.61990000  1
  H  H7  1  0.11130000  0.03170000  0.50200000  1
  H  H8  1  0.78120000  0.03960000  0.92160000  1
  H  H9  1  0.95930000  0.04420000  0.82830000  1
  H  H10  1  0.33420000  0.04460000  0.79770000  1
  H  H11  1  0.17270000  0.06500000  0.89080000  1
  H  H12  1  0.28120000  0.07840000  0.53960000  1
  H  H13  1  0.67270000  0.10920000  0.56500000  1
  H  H14  1  0.46360000  0.11990000  0.98440000  1
  H  H15  1  0.59280000  0.16770000  0.78740000  1
  H  H16  1  0.94370000  0.17060000  0.78450000  1
  H  H17  1  0.45930000  0.17170000  0.54420000  1
  H  H18  1  0.97340000  0.17490000  0.00110000  1
  H  H19  1  0.83420000  0.20230000  0.54460000  1
  H  H20  1  0.09280000  0.21260000  0.66770000  1
  H  H21  1  0.44370000  0.21550000  0.67060000  1
  H  H22  1  0.44370000  0.28450000  0.82940000  1
  H  H23  1  0.09280000  0.28740000  0.83230000  1
  H  H24  1  0.83420000  0.29770000  0.95540000  1
  H  H25  1  0.97340000  0.32510000  0.49890000  1
  H  H26  1  0.45930000  0.32830000  0.95580000  1
  H  H27  1  0.94370000  0.32940000  0.71550000  1
  H  H28  1  0.59280000  0.33230000  0.71260000  1
  H  H29  1  0.46360000  0.38010000  0.51560000  1
  H  H30  1  0.67270000  0.39080000  0.93500000  1
  H  H31  1  0.28120000  0.42160000  0.96040000  1
  H  H32  1  0.17270000  0.43500000  0.60920000  1
  H  H33  1  0.33420000  0.45540000  0.70230000  1
  H  H34  1  0.95930000  0.45580000  0.67170000  1
  H  H35  1  0.78120000  0.46040000  0.57840000  1
  H  H36  1  0.11130000  0.46830000  0.99800000  1
  H  H37  1  0.96360000  0.48440000  0.88010000  1
  H  H38  1  0.61130000  0.49800000  0.53170000  1
  H  H39  1  0.52660000  0.49890000  0.17490000  1
  H  H40  1  0.47340000  0.50110000  0.82510000  1
  H  H41  1  0.38870000  0.50200000  0.46830000  1
  H  H42  1  0.03640000  0.51560000  0.11990000  1
  H  H43  1  0.88870000  0.53170000  0.00200000  1
  H  H44  1  0.21880000  0.53960000  0.42160000  1
  H  H45  1  0.04070000  0.54420000  0.32830000  1
  H  H46  1  0.66580000  0.54460000  0.29770000  1
  H  H47  1  0.82730000  0.56500000  0.39080000  1
  H  H48  1  0.71880000  0.57840000  0.03960000  1
  H  H49  1  0.32730000  0.60920000  0.06500000  1
  H  H50  1  0.53640000  0.61990000  0.48440000  1
  H  H51  1  0.40720000  0.66770000  0.28740000  1
  H  H52  1  0.05630000  0.67060000  0.28450000  1
  H  H53  1  0.54070000  0.67170000  0.04420000  1
  H  H54  1  0.02660000  0.67490000  0.50110000  1
  H  H55  1  0.16580000  0.70230000  0.04460000  1
  H  H56  1  0.90720000  0.71260000  0.16770000  1
  H  H57  1  0.55630000  0.71550000  0.17060000  1
  H  H58  1  0.55630000  0.78450000  0.32940000  1
  H  H59  1  0.90720000  0.78740000  0.33230000  1
  H  H60  1  0.16580000  0.79770000  0.45540000  1
  H  H61  1  0.02660000  0.82510000  0.99890000  1
  H  H62  1  0.54070000  0.82830000  0.45580000  1
  H  H63  1  0.05630000  0.82940000  0.21550000  1
  H  H64  1  0.40720000  0.83230000  0.21260000  1
  H  H65  1  0.53640000  0.88010000  0.01560000  1
  H  H66  1  0.32730000  0.89080000  0.43500000  1
  H  H67  1  0.71880000  0.92160000  0.46040000  1
  H  H68  1  0.82730000  0.93500000  0.10920000  1
  H  H69  1  0.66580000  0.95540000  0.20230000  1
  H  H70  1  0.04070000  0.95580000  0.17170000  1
  H  H71  1  0.21880000  0.96040000  0.07840000  1
  H  H72  1  0.88870000  0.96830000  0.49800000  1
  H  H73  1  0.03640000  0.98440000  0.38010000  1
  H  H74  1  0.38870000  0.99800000  0.03170000  1
  H  H75  1  0.47340000  0.99890000  0.67490000  1
  C  C76  1  0.32520000  0.00650000  0.00900000  1
  C  C77  1  0.17480000  0.00900000  0.49350000  1
  C  C78  1  0.76920000  0.01390000  0.96510000  1
  C  C79  1  0.26920000  0.03490000  0.51390000  1
  C  C80  1  0.20470000  0.04340000  0.93140000  1
  C  C81  1  0.47030000  0.04730000  0.65790000  1
  C  C82  1  0.96420000  0.06680000  0.61590000  1
  C  C83  1  0.70470000  0.06860000  0.54340000  1
  C  C84  1  0.12730000  0.06960000  0.69230000  1
  C  C85  1  0.38540000  0.07170000  0.82150000  1
  C  C86  1  0.38770000  0.07680000  0.89770000  1
  C  C87  1  0.96180000  0.08630000  0.85770000  1
  C  C88  1  0.88770000  0.10230000  0.57680000  1
  C  C89  1  0.04380000  0.10820000  0.65020000  1
  C  C90  1  0.46190000  0.10840000  0.78120000  1
  C  C91  1  0.46420000  0.11590000  0.93320000  1
  C  C92  1  0.46180000  0.14230000  0.58630000  1
  C  C93  1  0.54100000  0.14560000  0.81540000  1
  C  C94  1  0.54380000  0.15020000  0.89180000  1
  C  C95  1  0.95300000  0.15610000  0.83330000  1
  C  C96  1  0.97030000  0.15790000  0.95270000  1
  C  C97  1  0.45300000  0.16670000  0.65610000  1
  C  C98  1  0.88540000  0.17850000  0.57170000  1
  C  C99  1  0.04100000  0.18460000  0.64560000  1
  C  C100  1  0.62730000  0.19230000  0.93040000  1
  C  C101  1  0.96190000  0.21880000  0.60840000  1
  C  C102  1  0.96190000  0.28120000  0.89160000  1
  C  C103  1  0.62730000  0.30770000  0.56960000  1
  C  C104  1  0.04100000  0.31540000  0.85440000  1
  C  C105  1  0.88540000  0.32150000  0.92830000  1
  C  C106  1  0.45300000  0.33333333  0.84390000  1
  C  C107  1  0.97030000  0.34210000  0.54730000  1
  C  C108  1  0.95300000  0.34390000  0.66666667  1
  C  C109  1  0.54380000  0.34980000  0.60820000  1
  C  C110  1  0.54100000  0.35440000  0.68460000  1
  C  C111  1  0.46180000  0.35770000  0.91370000  1
  C  C112  1  0.46420000  0.38410000  0.56680000  1
  C  C113  1  0.46190000  0.39160000  0.71880000  1
  C  C114  1  0.04380000  0.39180000  0.84980000  1
  C  C115  1  0.88770000  0.39770000  0.92320000  1
  C  C116  1  0.96180000  0.41370000  0.64230000  1
  C  C117  1  0.38770000  0.42320000  0.60230000  1
  C  C118  1  0.38540000  0.42830000  0.67850000  1
  C  C119  1  0.12730000  0.43040000  0.80770000  1
  C  C120  1  0.70470000  0.43140000  0.95660000  1
  C  C121  1  0.96420000  0.43320000  0.88410000  1
  C  C122  1  0.47030000  0.45270000  0.84210000  1
  C  C123  1  0.20470000  0.45660000  0.56860000  1
  C  C124  1  0.26920000  0.46510000  0.98610000  1
  C  C125  1  0.76920000  0.48610000  0.53490000  1
  C  C126  1  0.17480000  0.49100000  0.00650000  1
  C  C127  1  0.32520000  0.49350000  0.49100000  1
  C  C128  1  0.67480000  0.50650000  0.50900000  1
  C  C129  1  0.82520000  0.50900000  0.99350000  1
  C  C130  1  0.23080000  0.51390000  0.46510000  1
  C  C131  1  0.73080000  0.53490000  0.01390000  1
  C  C132  1  0.79530000  0.54340000  0.43140000  1
  C  C133  1  0.52970000  0.54730000  0.15790000  1
  C  C134  1  0.03580000  0.56680000  0.11590000  1
  C  C135  1  0.29530000  0.56860000  0.04340000  1
  C  C136  1  0.87270000  0.56960000  0.19230000  1
  C  C137  1  0.61460000  0.57170000  0.32150000  1
  C  C138  1  0.61230000  0.57680000  0.39770000  1
  C  C139  1  0.03820000  0.58630000  0.35770000  1
  C  C140  1  0.11230000  0.60230000  0.07680000  1
  C  C141  1  0.95620000  0.60820000  0.15020000  1
  C  C142  1  0.53810000  0.60840000  0.28120000  1
  C  C143  1  0.53580000  0.61590000  0.43320000  1
  C  C144  1  0.53820000  0.64230000  0.08630000  1
  C  C145  1  0.45900000  0.64560000  0.31540000  1
  C  C146  1  0.45620000  0.65020000  0.39180000  1
  C  C147  1  0.04700000  0.65610000  0.33333333  1
  C  C148  1  0.02970000  0.65790000  0.45270000  1
  C  C149  1  0.54700000  0.66666667  0.15610000  1
  C  C150  1  0.11460000  0.67850000  0.07170000  1
  C  C151  1  0.95900000  0.68460000  0.14560000  1
  C  C152  1  0.37270000  0.69230000  0.43040000  1
  C  C153  1  0.03810000  0.71880000  0.10840000  1
  C  C154  1  0.03810000  0.78120000  0.39160000  1
  C  C155  1  0.37270000  0.80770000  0.06960000  1
  C  C156  1  0.95900000  0.81540000  0.35440000  1
  C  C157  1  0.11460000  0.82150000  0.42830000  1
  C  C158  1  0.54700000  0.83330000  0.34390000  1
  C  C159  1  0.02970000  0.84210000  0.04730000  1
  C  C160  1  0.04700000  0.84390000  0.16670000  1
  C  C161  1  0.45620000  0.84980000  0.10820000  1
  C  C162  1  0.45900000  0.85440000  0.18460000  1
  C  C163  1  0.53820000  0.85770000  0.41370000  1
  C  C164  1  0.53580000  0.88410000  0.06680000  1
  C  C165  1  0.53810000  0.89160000  0.21880000  1
  C  C166  1  0.95620000  0.89180000  0.34980000  1
  C  C167  1  0.11230000  0.89770000  0.42320000  1
  C  C168  1  0.03820000  0.91370000  0.14230000  1
  C  C169  1  0.61230000  0.92320000  0.10230000  1
  C  C170  1  0.61460000  0.92830000  0.17850000  1
  C  C171  1  0.87270000  0.93040000  0.30770000  1
  C  C172  1  0.29530000  0.93140000  0.45660000  1
  C  C173  1  0.03580000  0.93320000  0.38410000  1
  C  C174  1  0.52970000  0.95270000  0.34210000  1
  C  C175  1  0.79530000  0.95660000  0.06860000  1
  C  C176  1  0.73080000  0.96510000  0.48610000  1
  C  C177  1  0.23080000  0.98610000  0.03490000  1
  C  C178  1  0.82520000  0.99100000  0.50650000  1
  C  C179  1  0.67480000  0.99350000  0.99100000  1
  N  N180  1  0.15430000  0.01000000  0.98560000  1
  N  N181  1  0.65430000  0.01440000  0.51000000  1
  N  N182  1  0.30950000  0.04240000  0.94230000  1
  N  N183  1  0.80950000  0.05770000  0.54240000  1
  N  N184  1  0.47520000  0.06680000  0.58680000  1
  N  N185  1  0.97520000  0.08680000  0.93320000  1
  N  N186  1  0.46000000  0.10700000  0.70200000  1
  N  N187  1  0.96000000  0.20200000  0.89300000  1
  N  N188  1  0.96000000  0.29800000  0.60700000  1
  N  N189  1  0.46000000  0.39300000  0.79800000  1
  N  N190  1  0.97520000  0.41320000  0.56680000  1
  N  N191  1  0.47520000  0.43320000  0.91320000  1
  N  N192  1  0.80950000  0.44230000  0.95760000  1
  N  N193  1  0.30950000  0.45760000  0.55770000  1
  N  N194  1  0.65430000  0.48560000  0.99000000  1
  N  N195  1  0.15430000  0.49000000  0.51440000  1
  N  N196  1  0.84570000  0.51000000  0.48560000  1
  N  N197  1  0.34570000  0.51440000  0.01000000  1
  N  N198  1  0.69050000  0.54240000  0.44230000  1
  N  N199  1  0.19050000  0.55770000  0.04240000  1
  N  N200  1  0.52480000  0.56680000  0.08680000  1
  N  N201  1  0.02480000  0.58680000  0.43320000  1
  N  N202  1  0.54000000  0.60700000  0.20200000  1
  N  N203  1  0.04000000  0.70200000  0.39300000  1
  N  N204  1  0.04000000  0.79800000  0.10700000  1
  N  N205  1  0.54000000  0.89300000  0.29800000  1
  N  N206  1  0.02480000  0.91320000  0.06680000  1
  N  N207  1  0.52480000  0.93320000  0.41320000  1
  N  N208  1  0.19050000  0.94230000  0.45760000  1
  N  N209  1  0.69050000  0.95760000  0.05770000  1
  N  N210  1  0.34570000  0.98560000  0.49000000  1
  N  N211  1  0.84570000  0.99000000  0.01440000  1
  O  O212  1  0.88650000  0.00110000  0.29750000  1
  O  O213  1  0.19950000  0.10210000  0.71710000  1
  O  O214  1  0.61350000  0.20250000  0.00110000  1
  O  O215  1  0.69950000  0.21710000  0.89790000  1
  O  O216  1  0.69950000  0.28290000  0.60210000  1
  O  O217  1  0.61350000  0.29750000  0.49890000  1
  O  O218  1  0.19950000  0.39790000  0.78290000  1
  O  O219  1  0.88650000  0.49890000  0.20250000  1
  O  O220  1  0.11350000  0.50110000  0.79750000  1
  O  O221  1  0.80050000  0.60210000  0.21710000  1
  O  O222  1  0.38650000  0.70250000  0.50110000  1
  O  O223  1  0.30050000  0.71710000  0.39790000  1
  O  O224  1  0.30050000  0.78290000  0.10210000  1
  O  O225  1  0.38650000  0.79750000  0.99890000  1
  O  O226  1  0.80050000  0.89790000  0.28290000  1
  O  O227  1  0.11350000  0.99890000  0.70250000  1
