# generated using pymatgen
data_CuH16(C5N)4
_symmetry_space_group_name_H-M   'P 1'
_cell_length_a   12.79600000
_cell_length_b   14.74603451
_cell_length_c   25.62500000
_cell_angle_alpha   90.00000000
_cell_angle_beta   90.00000000
_cell_angle_gamma   108.79515841
_symmetry_Int_Tables_number   1
_chemical_formula_structural   CuH16(C5N)4
_chemical_formula_sum   'Cu6 H96 C120 N24'
_cell_volume   4577.35865575
_cell_formula_units_Z   6
loop_
 _symmetry_equiv_pos_site_id
 _symmetry_equiv_pos_as_xyz
  1  'x, y, z'
loop_
 _atom_site_type_symbol
 _atom_site_label
 _atom_site_symmetry_multiplicity
 _atom_site_fract_x
 _atom_site_fract_y
 _atom_site_fract_z
 _atom_site_occupancy
  Cu  Cu0  1  0.50000000  0.50000000  0.00000000  1
  Cu  Cu1  1  0.00000000  0.00000000  0.50000000  1
  Cu  Cu2  1  0.73400000  0.29410000  0.24408000  1
  Cu  Cu3  1  0.23400000  0.79410000  0.25592000  1
  Cu  Cu4  1  0.76600000  0.20590000  0.74408000  1
  Cu  Cu5  1  0.26600000  0.70590000  0.75592000  1
  H  H6  1  0.48720000  0.45720000  0.15810000  1
  H  H7  1  0.07850000  0.04850000  0.19740000  1
  H  H8  1  0.57850000  0.54850000  0.30260000  1
  H  H9  1  0.98720000  0.95720000  0.34190000  1
  H  H10  1  0.18590000  0.15250000  0.54000000  1
  H  H11  1  0.68590000  0.65250000  0.96000000  1
  H  H12  1  0.74100000  0.70310000  0.13880000  1
  H  H13  1  0.24100000  0.20310000  0.36120000  1
  H  H14  1  0.91020000  0.85350000  0.58270000  1
  H  H15  1  0.41020000  0.35350000  0.91730000  1
  H  H16  1  0.96860000  0.82460000  0.68390000  1
  H  H17  1  0.46860000  0.32460000  0.81610000  1
  H  H18  1  0.34830000  0.19170000  0.58670000  1
  H  H19  1  0.84830000  0.69170000  0.91330000  1
  H  H20  1  0.66740000  0.50740000  0.71470000  1
  H  H21  1  0.16740000  0.00740000  0.78530000  1
  H  H22  1  0.83050000  0.63440000  0.21970000  1
  H  H23  1  0.33050000  0.13440000  0.28030000  1
  H  H24  1  0.10120000  0.88960000  0.57960000  1
  H  H25  1  0.60120000  0.38960000  0.92040000  1
  H  H26  1  0.14990000  0.91950000  0.19260000  1
  H  H27  1  0.64990000  0.41950000  0.30740000  1
  H  H28  1  0.60400000  0.36700000  0.16150000  1
  H  H29  1  0.10400000  0.86700000  0.33850000  1
  H  H30  1  0.69010000  0.43610000  0.03570000  1
  H  H31  1  0.19010000  0.93610000  0.46430000  1
  H  H32  1  0.48830000  0.20180000  0.23110000  1
  H  H33  1  0.98830000  0.70180000  0.26890000  1
  H  H34  1  0.25990000  0.91600000  0.62900000  1
  H  H35  1  0.75990000  0.41600000  0.87100000  1
  H  H36  1  0.07840000  0.72710000  0.69010000  1
  H  H37  1  0.57840000  0.22710000  0.80990000  1
  H  H38  1  0.84260000  0.48940000  0.08630000  1
  H  H39  1  0.34260000  0.98940000  0.41370000  1
  H  H40  1  0.53030000  0.16910000  0.58970000  1
  H  H41  1  0.03030000  0.66910000  0.91030000  1
  H  H42  1  0.77760000  0.41190000  0.71880000  1
  H  H43  1  0.27760000  0.91190000  0.78120000  1
  H  H44  1  0.02580000  0.65390000  0.09540000  1
  H  H45  1  0.52580000  0.15390000  0.40460000  1
  H  H46  1  0.38020000  0.99440000  0.70480000  1
  H  H47  1  0.88020000  0.49440000  0.79520000  1
  H  H48  1  0.17610000  0.72640000  0.14750000  1
  H  H49  1  0.67610000  0.22640000  0.35250000  1
  H  H50  1  0.68790000  0.20680000  0.63850000  1
  H  H51  1  0.18790000  0.70680000  0.86150000  1
  H  H52  1  0.03860000  0.54030000  0.74900000  1
  H  H53  1  0.53860000  0.04030000  0.75100000  1
  H  H54  1  0.46140000  0.95970000  0.24900000  1
  H  H55  1  0.96140000  0.45970000  0.25100000  1
  H  H56  1  0.81210000  0.29320000  0.13850000  1
  H  H57  1  0.31210000  0.79320000  0.36150000  1
  H  H58  1  0.32390000  0.77360000  0.64750000  1
  H  H59  1  0.82390000  0.27360000  0.85250000  1
  H  H60  1  0.11980000  0.50560000  0.20480000  1
  H  H61  1  0.61980000  0.00560000  0.29520000  1
  H  H62  1  0.47420000  0.84610000  0.59540000  1
  H  H63  1  0.97420000  0.34610000  0.90460000  1
  H  H64  1  0.72240000  0.08810000  0.21880000  1
  H  H65  1  0.22240000  0.58810000  0.28120000  1
  H  H66  1  0.96970000  0.33090000  0.08970000  1
  H  H67  1  0.46970000  0.83090000  0.41030000  1
  H  H68  1  0.65740000  0.01060000  0.58630000  1
  H  H69  1  0.15740000  0.51060000  0.91370000  1
  H  H70  1  0.42160000  0.77290000  0.19010000  1
  H  H71  1  0.92160000  0.27290000  0.30990000  1
  H  H72  1  0.24010000  0.58400000  0.12900000  1
  H  H73  1  0.74010000  0.08400000  0.37100000  1
  H  H74  1  0.01170000  0.29820000  0.73110000  1
  H  H75  1  0.51170000  0.79820000  0.76890000  1
  H  H76  1  0.80990000  0.06390000  0.53570000  1
  H  H77  1  0.30990000  0.56390000  0.96430000  1
  H  H78  1  0.89600000  0.13300000  0.66150000  1
  H  H79  1  0.39600000  0.63300000  0.83850000  1
  H  H80  1  0.35010000  0.58050000  0.69260000  1
  H  H81  1  0.85010000  0.08050000  0.80740000  1
  H  H82  1  0.39880000  0.61040000  0.07960000  1
  H  H83  1  0.89880000  0.11040000  0.42040000  1
  H  H84  1  0.66950000  0.86560000  0.71970000  1
  H  H85  1  0.16950000  0.36560000  0.78030000  1
  H  H86  1  0.83260000  0.99260000  0.21470000  1
  H  H87  1  0.33260000  0.49260000  0.28530000  1
  H  H88  1  0.15170000  0.30830000  0.08670000  1
  H  H89  1  0.65170000  0.80830000  0.41330000  1
  H  H90  1  0.53140000  0.67540000  0.18390000  1
  H  H91  1  0.03140000  0.17540000  0.31610000  1
  H  H92  1  0.58980000  0.64650000  0.08270000  1
  H  H93  1  0.08980000  0.14650000  0.41730000  1
  H  H94  1  0.75900000  0.79690000  0.63880000  1
  H  H95  1  0.25900000  0.29690000  0.86120000  1
  H  H96  1  0.31410000  0.34750000  0.04000000  1
  H  H97  1  0.81410000  0.84750000  0.46000000  1
  H  H98  1  0.01280000  0.04280000  0.65810000  1
  H  H99  1  0.42150000  0.45150000  0.69740000  1
  H  H100  1  0.92150000  0.95150000  0.80260000  1
  H  H101  1  0.51280000  0.54280000  0.84190000  1
  C  C102  1  0.51600000  0.50800000  0.23100000  1
  C  C103  1  0.01600000  0.00800000  0.26900000  1
  C  C104  1  0.64100000  0.61400000  0.08400000  1
  C  C105  1  0.14100000  0.11400000  0.41600000  1
  C  C106  1  0.07400000  0.00700000  0.22510000  1
  C  C107  1  0.57400000  0.50700000  0.27490000  1
  C  C108  1  0.52600000  0.45600000  0.18850000  1
  C  C109  1  0.02600000  0.95600000  0.31150000  1
  C  C110  1  0.73300000  0.65000000  0.11780000  1
  C  C111  1  0.23300000  0.15000000  0.38220000  1
  C  C112  1  0.20100000  0.10400000  0.55860000  1
  C  C113  1  0.70100000  0.60400000  0.94140000  1
  C  C114  1  0.06000000  0.93000000  0.73200000  1
  C  C115  1  0.56000000  0.43000000  0.76800000  1
  C  C116  1  0.30000000  0.12900000  0.58650000  1
  C  C117  1  0.80000000  0.62900000  0.91350000  1
  C  C118  1  0.03100000  0.84300000  0.70500000  1
  C  C119  1  0.53100000  0.34300000  0.79500000  1
  C  C120  1  0.12900000  0.93700000  0.22490000  1
  C  C121  1  0.62900000  0.43700000  0.27510000  1
  C  C122  1  0.59600000  0.40100000  0.19100000  1
  C  C123  1  0.09600000  0.90100000  0.30900000  1
  C  C124  1  0.64900000  0.45300000  0.73570000  1
  C  C125  1  0.14900000  0.95300000  0.76430000  1
  C  C126  1  0.15100000  0.95100000  0.58140000  1
  C  C127  1  0.65100000  0.45100000  0.91860000  1
  C  C128  1  0.80730000  0.60130000  0.11760000  1
  C  C129  1  0.30730000  0.10130000  0.38240000  1
  C  C130  1  0.70040000  0.49040000  0.05600000  1
  C  C131  1  0.20040000  0.99040000  0.44400000  1
  C  C132  1  0.90000000  0.65200000  0.20420000  1
  C  C133  1  0.40000000  0.15200000  0.29580000  1
  C  C134  1  0.79100000  0.52200000  0.08640000  1
  C  C135  1  0.29100000  0.02200000  0.41360000  1
  C  C136  1  0.32410000  0.05510000  0.61440000  1
  C  C137  1  0.82410000  0.55510000  0.88560000  1
  C  C138  1  0.91110000  0.63910000  0.15240000  1
  C  C139  1  0.41110000  0.13910000  0.34760000  1
  C  C140  1  0.24800000  0.96700000  0.61130000  1
  C  C141  1  0.74800000  0.46700000  0.88870000  1
  C  C142  1  0.99630000  0.69130000  0.23360000  1
  C  C143  1  0.49630000  0.19130000  0.26640000  1
  C  C144  1  0.09600000  0.78300000  0.70960000  1
  C  C145  1  0.59600000  0.28300000  0.79040000  1
  C  C146  1  0.71000000  0.39100000  0.73610000  1
  C  C147  1  0.21000000  0.89100000  0.76390000  1
  C  C148  1  0.01620000  0.66420000  0.13060000  1
  C  C149  1  0.51620000  0.16420000  0.36940000  1
  C  C150  1  0.43400000  0.08000000  0.64350000  1
  C  C151  1  0.93400000  0.58000000  0.85650000  1
  C  C152  1  0.52900000  0.14300000  0.62280000  1
  C  C153  1  0.02900000  0.64300000  0.87720000  1
  C  C154  1  0.10590000  0.70490000  0.16270000  1
  C  C155  1  0.60590000  0.20490000  0.33730000  1
  C  C156  1  0.44200000  0.04100000  0.69110000  1
  C  C157  1  0.94200000  0.54100000  0.80890000  1
  C  C158  1  0.62400000  0.16600000  0.65300000  1
  C  C159  1  0.12400000  0.66600000  0.84700000  1
  C  C160  1  0.53700000  0.06800000  0.71850000  1
  C  C161  1  0.03700000  0.56800000  0.78150000  1
  C  C162  1  0.96300000  0.43200000  0.21850000  1
  C  C163  1  0.46300000  0.93200000  0.28150000  1
  C  C164  1  0.87600000  0.33400000  0.15300000  1
  C  C165  1  0.37600000  0.83400000  0.34700000  1
  C  C166  1  0.05800000  0.45900000  0.19110000  1
  C  C167  1  0.55800000  0.95900000  0.30890000  1
  C  C168  1  0.39410000  0.79510000  0.66270000  1
  C  C169  1  0.89410000  0.29510000  0.83730000  1
  C  C170  1  0.97100000  0.35700000  0.12280000  1
  C  C171  1  0.47100000  0.85700000  0.37720000  1
  C  C172  1  0.06600000  0.42000000  0.14350000  1
  C  C173  1  0.56600000  0.92000000  0.35650000  1
  C  C174  1  0.48380000  0.83580000  0.63060000  1
  C  C175  1  0.98380000  0.33580000  0.86940000  1
  C  C176  1  0.79000000  0.10900000  0.23610000  1
  C  C177  1  0.29000000  0.60900000  0.26390000  1
  C  C178  1  0.40400000  0.71700000  0.20960000  1
  C  C179  1  0.90400000  0.21700000  0.29040000  1
  C  C180  1  0.50370000  0.80870000  0.73360000  1
  C  C181  1  0.00370000  0.30870000  0.76640000  1
  C  C182  1  0.25200000  0.53300000  0.11130000  1
  C  C183  1  0.75200000  0.03300000  0.38870000  1
  C  C184  1  0.58890000  0.86090000  0.65240000  1
  C  C185  1  0.08890000  0.36090000  0.84760000  1
  C  C186  1  0.17590000  0.44490000  0.11440000  1
  C  C187  1  0.67590000  0.94490000  0.38560000  1
  C  C188  1  0.70900000  0.97800000  0.58640000  1
  C  C189  1  0.20900000  0.47800000  0.91360000  1
  C  C190  1  0.60000000  0.84800000  0.70420000  1
  C  C191  1  0.10000000  0.34800000  0.79580000  1
  C  C192  1  0.79960000  0.00960000  0.55600000  1
  C  C193  1  0.29960000  0.50960000  0.94400000  1
  C  C194  1  0.69270000  0.89870000  0.61760000  1
  C  C195  1  0.19270000  0.39870000  0.88240000  1
  C  C196  1  0.34900000  0.54900000  0.08140000  1
  C  C197  1  0.84900000  0.04900000  0.41860000  1
  C  C198  1  0.85100000  0.04700000  0.23570000  1
  C  C199  1  0.35100000  0.54700000  0.26430000  1
  C  C200  1  0.90400000  0.09900000  0.69100000  1
  C  C201  1  0.40400000  0.59900000  0.80900000  1
  C  C202  1  0.37100000  0.56300000  0.72490000  1
  C  C203  1  0.87100000  0.06300000  0.77510000  1
  C  C204  1  0.46900000  0.65700000  0.20500000  1
  C  C205  1  0.96900000  0.15700000  0.29500000  1
  C  C206  1  0.20000000  0.37100000  0.08650000  1
  C  C207  1  0.70000000  0.87100000  0.41350000  1
  C  C208  1  0.44000000  0.57000000  0.23200000  1
  C  C209  1  0.94000000  0.07000000  0.26800000  1
  C  C210  1  0.29900000  0.39600000  0.05860000  1
  C  C211  1  0.79900000  0.89600000  0.44140000  1
  C  C212  1  0.76700000  0.85000000  0.61780000  1
  C  C213  1  0.26700000  0.35000000  0.88220000  1
  C  C214  1  0.97400000  0.04400000  0.68850000  1
  C  C215  1  0.47400000  0.54400000  0.81150000  1
  C  C216  1  0.42600000  0.49300000  0.72510000  1
  C  C217  1  0.92600000  0.99300000  0.77490000  1
  C  C218  1  0.85900000  0.88600000  0.58400000  1
  C  C219  1  0.35900000  0.38600000  0.91600000  1
  C  C220  1  0.98400000  0.99200000  0.73100000  1
  C  C221  1  0.48400000  0.49200000  0.76900000  1
  N  N222  1  0.62130000  0.53640000  0.05410000  1
  N  N223  1  0.12130000  0.03640000  0.44590000  1
  N  N224  1  0.12900000  0.01900000  0.55650000  1
  N  N225  1  0.62900000  0.51900000  0.94350000  1
  N  N226  1  0.65150000  0.39450000  0.23410000  1
  N  N227  1  0.15150000  0.89450000  0.26590000  1
  N  N228  1  0.18530000  0.80510000  0.74200000  1
  N  N229  1  0.68530000  0.30510000  0.75800000  1
  N  N230  1  0.09810000  0.71510000  0.21430000  1
  N  N231  1  0.59810000  0.21510000  0.28570000  1
  N  N232  1  0.63080000  0.13350000  0.70120000  1
  N  N233  1  0.13080000  0.63350000  0.79880000  1
  N  N234  1  0.86920000  0.36650000  0.20120000  1
  N  N235  1  0.36920000  0.86650000  0.29880000  1
  N  N236  1  0.40190000  0.78490000  0.71430000  1
  N  N237  1  0.90190000  0.28490000  0.78570000  1
  N  N238  1  0.31470000  0.69490000  0.24200000  1
  N  N239  1  0.81470000  0.19490000  0.25800000  1
  N  N240  1  0.84850000  0.10550000  0.73410000  1
  N  N241  1  0.34850000  0.60550000  0.76590000  1
  N  N242  1  0.37100000  0.48100000  0.05650000  1
  N  N243  1  0.87100000  0.98100000  0.44350000  1
  N  N244  1  0.87870000  0.96360000  0.55410000  1
  N  N245  1  0.37870000  0.46360000  0.94590000  1
