# generated using pymatgen
data_ZnH12C15(NO2)2
_symmetry_space_group_name_H-M   'P 1'
_cell_length_a   12.34000000
_cell_length_b   19.90290000
_cell_length_c   19.90290000
_cell_angle_alpha   102.77300000
_cell_angle_beta   94.55930000
_cell_angle_gamma   94.55930000
_symmetry_Int_Tables_number   1
_chemical_formula_structural   ZnH12C15(NO2)2
_chemical_formula_sum   'Zn8 H96 C120 N16 O32'
_cell_volume   4728.39146999
_cell_formula_units_Z   8
loop_
 _symmetry_equiv_pos_site_id
 _symmetry_equiv_pos_as_xyz
  1  'x, y, z'
loop_
 _atom_site_type_symbol
 _atom_site_label
 _atom_site_symmetry_multiplicity
 _atom_site_fract_x
 _atom_site_fract_y
 _atom_site_fract_z
 _atom_site_occupancy
  Zn  Zn0  1  0.00006000  0.74876000  0.48728000  1
  Zn  Zn1  1  0.11190000  0.56510000  0.07639000  1
  Zn  Zn2  1  0.30880000  0.52632000  0.01687000  1
  Zn  Zn3  1  0.41050000  0.33978000  0.60817000  1
  Zn  Zn4  1  0.50006000  0.48728000  0.74876000  1
  Zn  Zn5  1  0.61190000  0.07639000  0.56510000  1
  Zn  Zn6  1  0.80880000  0.01687000  0.52632000  1
  Zn  Zn7  1  0.91050000  0.60817000  0.33978000  1
  H  H8  1  0.02690000  0.69750000  0.14330000  1
  H  H9  1  0.03360000  0.16230000  0.67370000  1
  H  H10  1  0.03500000  0.99840000  0.59800000  1
  H  H11  1  0.05330000  0.61900000  0.22080000  1
  H  H12  1  0.06210000  0.05030000  0.54910000  1
  H  H13  1  0.10860000  0.88890000  0.57950000  1
  H  H14  1  0.11100000  0.84200000  0.39700000  1
  H  H15  1  0.11850000  0.44160000  0.36080000  1
  H  H16  1  0.11890000  0.34100000  0.63260000  1
  H  H17  1  0.14040000  0.24630000  0.75510000  1
  H  H18  1  0.15080000  0.46410000  0.24450000  1
  H  H19  1  0.15870000  0.34390000  0.85990000  1
  H  H20  1  0.16420000  0.50390000  0.79870000  1
  H  H21  1  0.17220000  0.39610000  0.45390000  1
  H  H22  1  0.17670000  0.01970000  0.45930000  1
  H  H23  1  0.18810000  0.86920000  0.51980000  1
  H  H24  1  0.20380000  0.14220000  0.66280000  1
  H  H25  1  0.22690000  0.94670000  0.44730000  1
  H  H26  1  0.22700000  0.22050000  0.58710000  1
  H  H27  1  0.24170000  0.58260000  0.29760000  1
  H  H28  1  0.25860000  0.07090000  0.64830000  1
  H  H29  1  0.26090000  0.75500000  0.22900000  1
  H  H30  1  0.27020000  0.69460000  0.64180000  1
  H  H31  1  0.27680000  0.62920000  0.85060000  1
  H  H32  1  0.27880000  0.86260000  0.32300000  1
  H  H33  1  0.28850000  0.75120000  0.45840000  1
  H  H34  1  0.29650000  0.19920000  0.52240000  1
  H  H35  1  0.31830000  0.65130000  0.73750000  1
  H  H36  1  0.31990000  0.25180000  0.70580000  1
  H  H37  1  0.36220000  0.04020000  0.55200000  1
  H  H38  1  0.36490000  0.47210000  0.87270000  1
  H  H39  1  0.37820000  0.09250000  0.50190000  1
  H  H40  1  0.38950000  0.94680000  0.40460000  1
  H  H41  1  0.40690000  0.39790000  0.95290000  1
  H  H42  1  0.41700000  0.55100000  0.89080000  1
  H  H43  1  0.42560000  0.40600000  0.15980000  1
  H  H44  1  0.42800000  0.58220000  0.29400000  1
  H  H45  1  0.43270000  0.32480000  0.36060000  1
  H  H46  1  0.44140000  0.82920000  0.72140000  1
  H  H47  1  0.44960000  0.25010000  0.71730000  1
  H  H48  1  0.45160000  0.07140000  0.67100000  1
  H  H49  1  0.47140000  0.35440000  0.25060000  1
  H  H50  1  0.47760000  0.79980000  0.50900000  1
  H  H51  1  0.48280000  0.37860000  0.84400000  1
  H  H52  1  0.48430000  0.71400000  0.74340000  1
  H  H53  1  0.48480000  0.42910000  0.02290000  1
  H  H54  1  0.48730000  0.92350000  0.67570000  1
  H  H55  1  0.49380000  0.20020000  0.54180000  1
  H  H56  1  0.52690000  0.14330000  0.69750000  1
  H  H57  1  0.53360000  0.67370000  0.16230000  1
  H  H58  1  0.53500000  0.59800000  0.99840000  1
  H  H59  1  0.55330000  0.22080000  0.61900000  1
  H  H60  1  0.56210000  0.54910000  0.05030000  1
  H  H61  1  0.60860000  0.57950000  0.88890000  1
  H  H62  1  0.61100000  0.39700000  0.84200000  1
  H  H63  1  0.61850000  0.36080000  0.44160000  1
  H  H64  1  0.61890000  0.63260000  0.34100000  1
  H  H65  1  0.64040000  0.75510000  0.24630000  1
  H  H66  1  0.65080000  0.24450000  0.46410000  1
  H  H67  1  0.65870000  0.85990000  0.34390000  1
  H  H68  1  0.66420000  0.79870000  0.50390000  1
  H  H69  1  0.67220000  0.45390000  0.39610000  1
  H  H70  1  0.67670000  0.45930000  0.01970000  1
  H  H71  1  0.68810000  0.51980000  0.86920000  1
  H  H72  1  0.70380000  0.66280000  0.14220000  1
  H  H73  1  0.72690000  0.44730000  0.94670000  1
  H  H74  1  0.72700000  0.58710000  0.22050000  1
  H  H75  1  0.74170000  0.29760000  0.58260000  1
  H  H76  1  0.75860000  0.64830000  0.07090000  1
  H  H77  1  0.76090000  0.22900000  0.75500000  1
  H  H78  1  0.77020000  0.64180000  0.69460000  1
  H  H79  1  0.77680000  0.85060000  0.62920000  1
  H  H80  1  0.77880000  0.32300000  0.86260000  1
  H  H81  1  0.78850000  0.45840000  0.75120000  1
  H  H82  1  0.79650000  0.52240000  0.19920000  1
  H  H83  1  0.81830000  0.73750000  0.65130000  1
  H  H84  1  0.81990000  0.70580000  0.25180000  1
  H  H85  1  0.86220000  0.55200000  0.04020000  1
  H  H86  1  0.86490000  0.87270000  0.47210000  1
  H  H87  1  0.87820000  0.50190000  0.09250000  1
  H  H88  1  0.88950000  0.40460000  0.94680000  1
  H  H89  1  0.90690000  0.95290000  0.39790000  1
  H  H90  1  0.91700000  0.89080000  0.55100000  1
  H  H91  1  0.92560000  0.15980000  0.40600000  1
  H  H92  1  0.92800000  0.29400000  0.58220000  1
  H  H93  1  0.93270000  0.36060000  0.32480000  1
  H  H94  1  0.94140000  0.72140000  0.82920000  1
  H  H95  1  0.94960000  0.71730000  0.25010000  1
  H  H96  1  0.95160000  0.67100000  0.07140000  1
  H  H97  1  0.97140000  0.25060000  0.35440000  1
  H  H98  1  0.97760000  0.50900000  0.79980000  1
  H  H99  1  0.98280000  0.84400000  0.37860000  1
  H  H100  1  0.98430000  0.74340000  0.71400000  1
  H  H101  1  0.98480000  0.02290000  0.42910000  1
  H  H102  1  0.98730000  0.67570000  0.92350000  1
  H  H103  1  0.99380000  0.54180000  0.20020000  1
  C  C104  1  0.00500000  0.47455000  0.76627000  1
  C  C105  1  0.00870000  0.70168000  0.83272000  1
  C  C106  1  0.01710000  0.28723000  0.80801000  1
  C  C107  1  0.03540000  0.38270000  0.90796000  1
  C  C108  1  0.03630000  0.67496000  0.88884000  1
  C  C109  1  0.04660000  0.86596000  0.41166000  1
  C  C110  1  0.04820000  0.00085000  0.55009000  1
  C  C111  1  0.05260000  0.72539000  0.71961000  1
  C  C112  1  0.06340000  0.24232000  0.75632000  1
  C  C113  1  0.07920000  0.70025000  0.78015000  1
  C  C114  1  0.08150000  0.33966000  0.85984000  1
  C  C115  1  0.08690000  0.74530000  0.60510000  1
  C  C116  1  0.08950000  0.37458000  0.66604000  1
  C  C117  1  0.10370000  0.44009000  0.96015000  1
  C  C118  1  0.11540000  0.47166000  0.76530000  1
  C  C119  1  0.12230000  0.89281000  0.53213000  1
  C  C120  1  0.12240000  0.72448000  0.67000000  1
  C  C121  1  0.12760000  0.67051000  0.37797000  1
  C  C122  1  0.13700000  0.64647000  0.89583000  1
  C  C123  1  0.15770000  0.42086000  0.71462000  1
  C  C124  1  0.16160000  0.97050000  0.46070000  1
  C  C125  1  0.16480000  0.61543000  0.95569000  1
  C  C126  1  0.17980000  0.67309000  0.78711000  1
  C  C127  1  0.18300000  0.41849000  0.36051000  1
  C  C128  1  0.20800000  0.64686000  0.84562000  1
  C  C129  1  0.21490000  0.39181000  0.41577000  1
  C  C130  1  0.21630000  0.44226000  0.24632000  1
  C  C131  1  0.22200000  0.69609000  0.67691000  1
  C  C132  1  0.24410000  0.41230000  0.30322000  1
  C  C133  1  0.24760000  0.66921000  0.37777000  1
  C  C134  1  0.25070000  0.67063000  0.73371000  1
  C  C135  1  0.25380000  0.47481000  0.13629000  1
  C  C136  1  0.26870000  0.12012000  0.64608000  1
  C  C137  1  0.27930000  0.41856000  0.71516000  1
  C  C138  1  0.28230000  0.43986000  0.19480000  1
  C  C139  1  0.28990000  0.61691000  0.32911000  1
  C  C140  1  0.29110000  0.19692000  0.57118000  1
  C  C141  1  0.31020000  0.35811000  0.41649000  1
  C  C142  1  0.31770000  0.71720000  0.42528000  1
  C  C143  1  0.31790000  0.65012000  0.13370000  1
  C  C144  1  0.33820000  0.75612000  0.23140000  1
  C  C145  1  0.34040000  0.37952000  0.30488000  1
  C  C146  1  0.35210000  0.33309000  0.47991000  1
  C  C147  1  0.35580000  0.86131000  0.32661000  1
  C  C148  1  0.37060000  0.35003000  0.36117000  1
  C  C149  1  0.37200000  0.08975000  0.55053000  1
  C  C150  1  0.37940000  0.40718000  0.19602000  1
  C  C151  1  0.38230000  0.22752000  0.68796000  1
  C  C152  1  0.38500000  0.70661000  0.18603000  1
  C  C153  1  0.40020000  0.61618000  0.32796000  1
  C  C154  1  0.40300000  0.80842000  0.28142000  1
  C  C155  1  0.40660000  0.37714000  0.25006000  1
  C  C156  1  0.42120000  0.91070000  0.37550000  1
  C  C157  1  0.43050000  0.50362000  0.89468000  1
  C  C158  1  0.43130000  0.71688000  0.42586000  1
  C  C159  1  0.46030000  0.12038000  0.66754000  1
  C  C160  1  0.47150000  0.43076000  0.97362000  1
  C  C161  1  0.47400000  0.66495000  0.37611000  1
  C  C162  1  0.48600000  0.19737000  0.59019000  1
  C  C163  1  0.49990000  0.70768000  0.19288000  1
  C  C164  1  0.50500000  0.76627000  0.47455000  1
  C  C165  1  0.50870000  0.83272000  0.70168000  1
  C  C166  1  0.51710000  0.80801000  0.28723000  1
  C  C167  1  0.53540000  0.90796000  0.38270000  1
  C  C168  1  0.53630000  0.88884000  0.67496000  1
  C  C169  1  0.54660000  0.41166000  0.86596000  1
  C  C170  1  0.54820000  0.55009000  0.00085000  1
  C  C171  1  0.55260000  0.71961000  0.72539000  1
  C  C172  1  0.56340000  0.75632000  0.24232000  1
  C  C173  1  0.57920000  0.78015000  0.70025000  1
  C  C174  1  0.58150000  0.85984000  0.33966000  1
  C  C175  1  0.58690000  0.60510000  0.74530000  1
  C  C176  1  0.58950000  0.66604000  0.37458000  1
  C  C177  1  0.60370000  0.96015000  0.44009000  1
  C  C178  1  0.61540000  0.76530000  0.47166000  1
  C  C179  1  0.62230000  0.53213000  0.89281000  1
  C  C180  1  0.62240000  0.67000000  0.72448000  1
  C  C181  1  0.62760000  0.37797000  0.67051000  1
  C  C182  1  0.63700000  0.89583000  0.64647000  1
  C  C183  1  0.65770000  0.71462000  0.42086000  1
  C  C184  1  0.66160000  0.46070000  0.97050000  1
  C  C185  1  0.66480000  0.95569000  0.61543000  1
  C  C186  1  0.67980000  0.78711000  0.67309000  1
  C  C187  1  0.68300000  0.36051000  0.41849000  1
  C  C188  1  0.70800000  0.84562000  0.64686000  1
  C  C189  1  0.71490000  0.41577000  0.39181000  1
  C  C190  1  0.71630000  0.24632000  0.44226000  1
  C  C191  1  0.72200000  0.67691000  0.69609000  1
  C  C192  1  0.74410000  0.30322000  0.41230000  1
  C  C193  1  0.74760000  0.37777000  0.66921000  1
  C  C194  1  0.75070000  0.73371000  0.67063000  1
  C  C195  1  0.75380000  0.13629000  0.47481000  1
  C  C196  1  0.76870000  0.64608000  0.12012000  1
  C  C197  1  0.77930000  0.71516000  0.41856000  1
  C  C198  1  0.78230000  0.19480000  0.43986000  1
  C  C199  1  0.78990000  0.32911000  0.61691000  1
  C  C200  1  0.79110000  0.57118000  0.19692000  1
  C  C201  1  0.81020000  0.41649000  0.35811000  1
  C  C202  1  0.81770000  0.42528000  0.71720000  1
  C  C203  1  0.81790000  0.13370000  0.65012000  1
  C  C204  1  0.83820000  0.23140000  0.75612000  1
  C  C205  1  0.84040000  0.30488000  0.37952000  1
  C  C206  1  0.85210000  0.47991000  0.33309000  1
  C  C207  1  0.85580000  0.32661000  0.86131000  1
  C  C208  1  0.87060000  0.36117000  0.35003000  1
  C  C209  1  0.87200000  0.55053000  0.08975000  1
  C  C210  1  0.87940000  0.19602000  0.40718000  1
  C  C211  1  0.88230000  0.68796000  0.22752000  1
  C  C212  1  0.88500000  0.18603000  0.70661000  1
  C  C213  1  0.90020000  0.32796000  0.61618000  1
  C  C214  1  0.90300000  0.28142000  0.80842000  1
  C  C215  1  0.90660000  0.25006000  0.37714000  1
  C  C216  1  0.92120000  0.37550000  0.91070000  1
  C  C217  1  0.93050000  0.89468000  0.50362000  1
  C  C218  1  0.93130000  0.42586000  0.71688000  1
  C  C219  1  0.96030000  0.66754000  0.12038000  1
  C  C220  1  0.97150000  0.97362000  0.43076000  1
  C  C221  1  0.97400000  0.37611000  0.66495000  1
  C  C222  1  0.98600000  0.59019000  0.19737000  1
  C  C223  1  0.99990000  0.19288000  0.70768000  1
  N  N224  1  0.02620000  0.85735000  0.48247000  1
  N  N225  1  0.06560000  0.93826000  0.40942000  1
  N  N226  1  0.14300000  0.96617000  0.53135000  1
  N  N227  1  0.27600000  0.12416000  0.57566000  1
  N  N228  1  0.36620000  0.15405000  0.69175000  1
  N  N229  1  0.39150000  0.23304000  0.61426000  1
  N  N230  1  0.44800000  0.50191000  0.96929000  1
  N  N231  1  0.47360000  0.12347000  0.59413000  1
  N  N232  1  0.52620000  0.48247000  0.85735000  1
  N  N233  1  0.56560000  0.40942000  0.93826000  1
  N  N234  1  0.64300000  0.53135000  0.96617000  1
  N  N235  1  0.77600000  0.57566000  0.12416000  1
  N  N236  1  0.86620000  0.69175000  0.15405000  1
  N  N237  1  0.89150000  0.61426000  0.23304000  1
  N  N238  1  0.94800000  0.96929000  0.50191000  1
  N  N239  1  0.97360000  0.59413000  0.12347000  1
  O  O240  1  0.05280000  0.47719000  0.00529000  1
  O  O241  1  0.06959000  0.61581000  0.34547000  1
  O  O242  1  0.08990000  0.72551000  0.40743000  1
  O  O243  1  0.09590000  0.61525000  0.99825000  1
  O  O244  1  0.14910000  0.73910000  0.55680000  1
  O  O245  1  0.17040000  0.50652000  0.13926000  1
  O  O246  1  0.20470000  0.44846000  0.95490000  1
  O  O247  1  0.21560000  0.64657000  0.13501000  1
  O  O248  1  0.25410000  0.58959000  0.95729000  1
  O  O249  1  0.31310000  0.35655000  0.53393000  1
  O  O250  1  0.31433000  0.36396000  0.68326000  1
  O  O251  1  0.31770000  0.46976000  0.08894000  1
  O  O252  1  0.33853000  0.47098000  0.74830000  1
  O  O253  1  0.36810000  0.61052000  0.09332000  1
  O  O254  1  0.42490000  0.29193000  0.47447000  1
  O  O255  1  0.49440000  0.59563000  0.76369000  1
  O  O256  1  0.55280000  0.00529000  0.47719000  1
  O  O257  1  0.56959000  0.34547000  0.61581000  1
  O  O258  1  0.58990000  0.40743000  0.72551000  1
  O  O259  1  0.59590000  0.99825000  0.61525000  1
  O  O260  1  0.64910000  0.55680000  0.73910000  1
  O  O261  1  0.67040000  0.13926000  0.50652000  1
  O  O262  1  0.70470000  0.95490000  0.44846000  1
  O  O263  1  0.71560000  0.13501000  0.64657000  1
  O  O264  1  0.75410000  0.95729000  0.58959000  1
  O  O265  1  0.81310000  0.53393000  0.35655000  1
  O  O266  1  0.81433000  0.68326000  0.36396000  1
  O  O267  1  0.81770000  0.08894000  0.46976000  1
  O  O268  1  0.83853000  0.74830000  0.47098000  1
  O  O269  1  0.86810000  0.09332000  0.61052000  1
  O  O270  1  0.92490000  0.47447000  0.29193000  1
  O  O271  1  0.99440000  0.76369000  0.59563000  1
