# generated using pymatgen
data_Zn2H15C27O10
_symmetry_space_group_name_H-M   'P 1'
_cell_length_a   12.28130000
_cell_length_b   16.46500000
_cell_length_c   27.32050000
_cell_angle_alpha   90.00000000
_cell_angle_beta   90.00000000
_cell_angle_gamma   102.86300000
_symmetry_Int_Tables_number   1
_chemical_formula_structural   Zn2H15C27O10
_chemical_formula_sum   'Zn8 H60 C108 O40'
_cell_volume   5385.88513916
_cell_formula_units_Z   4
loop_
 _symmetry_equiv_pos_site_id
 _symmetry_equiv_pos_as_xyz
  1  'x, y, z'
loop_
 _atom_site_type_symbol
 _atom_site_label
 _atom_site_symmetry_multiplicity
 _atom_site_fract_x
 _atom_site_fract_y
 _atom_site_fract_z
 _atom_site_occupancy
  Zn  Zn0  1  0.94288000  0.99728000  0.44857000  1
  Zn  Zn1  1  0.94288000  0.49728000  0.05143000  1
  Zn  Zn2  1  0.76868000  0.48713000  0.96497000  1
  Zn  Zn3  1  0.76868000  0.98713000  0.53503000  1
  Zn  Zn4  1  0.23132000  0.01287000  0.46497000  1
  Zn  Zn5  1  0.23132000  0.51287000  0.03503000  1
  Zn  Zn6  1  0.05712000  0.50272000  0.94857000  1
  Zn  Zn7  1  0.05712000  0.00272000  0.55143000  1
  H  H8  1  0.86490000  0.74120000  0.43420000  1
  H  H9  1  0.86490000  0.24120000  0.06580000  1
  H  H10  1  0.84790000  0.57500000  0.77930000  1
  H  H11  1  0.84790000  0.07500000  0.72070000  1
  H  H12  1  0.81650000  0.59750000  0.41990000  1
  H  H13  1  0.81650000  0.09750000  0.08010000  1
  H  H14  1  0.78720000  0.15560000  0.36450000  1
  H  H15  1  0.78720000  0.65560000  0.13550000  1
  H  H16  1  0.77760000  0.03770000  0.79930000  1
  H  H17  1  0.77760000  0.53770000  0.70070000  1
  H  H18  1  0.69590000  0.24440000  0.32190000  1
  H  H19  1  0.69590000  0.74440000  0.17810000  1
  H  H20  1  0.61560000  0.34790000  0.41620000  1
  H  H21  1  0.61560000  0.84790000  0.08380000  1
  H  H22  1  0.60170000  0.21940000  0.97350000  1
  H  H23  1  0.60170000  0.71940000  0.52650000  1
  H  H24  1  0.57880000  0.11350000  0.80170000  1
  H  H25  1  0.57880000  0.61350000  0.69830000  1
  H  H26  1  0.56720000  0.31670000  0.91430000  1
  H  H27  1  0.56720000  0.81670000  0.58570000  1
  H  H28  1  0.55490000  0.45290000  0.83780000  1
  H  H29  1  0.55490000  0.95290000  0.66220000  1
  H  H30  1  0.55340000  0.07620000  0.98960000  1
  H  H31  1  0.55340000  0.57620000  0.51040000  1
  H  H32  1  0.54110000  0.57490000  0.39720000  1
  H  H33  1  0.54110000  0.07490000  0.10280000  1
  H  H34  1  0.52480000  0.09560000  0.45750000  1
  H  H35  1  0.52480000  0.59560000  0.04250000  1
  H  H36  1  0.51850000  0.07690000  0.25920000  1
  H  H37  1  0.51850000  0.57690000  0.24080000  1
  H  H38  1  0.48150000  0.42310000  0.75920000  1
  H  H39  1  0.48150000  0.92310000  0.74080000  1
  H  H40  1  0.47520000  0.40440000  0.95750000  1
  H  H41  1  0.47520000  0.90440000  0.54250000  1
  H  H42  1  0.45890000  0.92510000  0.89720000  1
  H  H43  1  0.45890000  0.42510000  0.60280000  1
  H  H44  1  0.44660000  0.42380000  0.48960000  1
  H  H45  1  0.44660000  0.92380000  0.01040000  1
  H  H46  1  0.44510000  0.04710000  0.33780000  1
  H  H47  1  0.44510000  0.54710000  0.16220000  1
  H  H48  1  0.43280000  0.18330000  0.41430000  1
  H  H49  1  0.43280000  0.68330000  0.08570000  1
  H  H50  1  0.42120000  0.38650000  0.30170000  1
  H  H51  1  0.42120000  0.88650000  0.19830000  1
  H  H52  1  0.39830000  0.28060000  0.47350000  1
  H  H53  1  0.39830000  0.78060000  0.02650000  1
  H  H54  1  0.38440000  0.15210000  0.91620000  1
  H  H55  1  0.38440000  0.65210000  0.58380000  1
  H  H56  1  0.30410000  0.25560000  0.82190000  1
  H  H57  1  0.30410000  0.75560000  0.67810000  1
  H  H58  1  0.22240000  0.46230000  0.29930000  1
  H  H59  1  0.22240000  0.96230000  0.20070000  1
  H  H60  1  0.21280000  0.34440000  0.86450000  1
  H  H61  1  0.21280000  0.84440000  0.63550000  1
  H  H62  1  0.18350000  0.90250000  0.91990000  1
  H  H63  1  0.18350000  0.40250000  0.58010000  1
  H  H64  1  0.15210000  0.92500000  0.27930000  1
  H  H65  1  0.15210000  0.42500000  0.22070000  1
  H  H66  1  0.13510000  0.75880000  0.93420000  1
  H  H67  1  0.13510000  0.25880000  0.56580000  1
  C  C68  1  0.80140000  0.70800000  0.44990000  1
  C  C69  1  0.80140000  0.20800000  0.05010000  1
  C  C70  1  0.77410000  0.54270000  0.77530000  1
  C  C71  1  0.77410000  0.04270000  0.72470000  1
  C  C72  1  0.77260000  0.62280000  0.44120000  1
  C  C73  1  0.77260000  0.12280000  0.05880000  1
  C  C74  1  0.76950000  0.83730000  0.48954000  1
  C  C75  1  0.76950000  0.33730000  0.01046000  1
  C  C76  1  0.75730000  0.53650000  0.86620000  1
  C  C77  1  0.75730000  0.03650000  0.63380000  1
  C  C78  1  0.73840000  0.74480000  0.48147000  1
  C  C79  1  0.73840000  0.24480000  0.01853000  1
  C  C80  1  0.73200000  0.02200000  0.77130000  1
  C  C81  1  0.73200000  0.52200000  0.72870000  1
  C  C82  1  0.72720000  0.06520000  0.44463000  1
  C  C83  1  0.72720000  0.56520000  0.05537000  1
  C  C84  1  0.71590000  0.16210000  0.37510000  1
  C  C85  1  0.71590000  0.66210000  0.12490000  1
  C  C86  1  0.70870000  0.51650000  0.81572000  1
  C  C87  1  0.70870000  0.01650000  0.68428000  1
  C  C88  1  0.68070000  0.57610000  0.46340000  1
  C  C89  1  0.68070000  0.07610000  0.03660000  1
  C  C90  1  0.66590000  0.11900000  0.41606000  1
  C  C91  1  0.66590000  0.61900000  0.08394000  1
  C  C92  1  0.66180000  0.21440000  0.34960000  1
  C  C93  1  0.66180000  0.71440000  0.15040000  1
  C  C94  1  0.64530000  0.19510000  0.99550000  1
  C  C95  1  0.64530000  0.69510000  0.50450000  1
  C  C96  1  0.62230000  0.97790000  0.77640000  1
  C  C97  1  0.62230000  0.47790000  0.72360000  1
  C  C98  1  0.61670000  0.61030000  0.49500000  1
  C  C99  1  0.61670000  0.11030000  0.00500000  1
  C  C100  1  0.59980000  0.47130000  0.80990000  1
  C  C101  1  0.59980000  0.97130000  0.69010000  1
  C  C102  1  0.58780000  0.46600000  0.41238000  1
  C  C103  1  0.58780000  0.96600000  0.08762000  1
  C  C104  1  0.57930000  0.38360000  0.39817000  1
  C  C105  1  0.57930000  0.88360000  0.10183000  1
  C  C106  1  0.56000000  0.12630000  0.43016000  1
  C  C107  1  0.56000000  0.62630000  0.06984000  1
  C  C108  1  0.55810000  0.22240000  0.36516000  1
  C  C109  1  0.55810000  0.72240000  0.13484000  1
  C  C110  1  0.55660000  0.45290000  0.76330000  1
  C  C111  1  0.55660000  0.95290000  0.73670000  1
  C  C112  1  0.53700000  0.09350000  0.83015000  1
  C  C113  1  0.53700000  0.59350000  0.66985000  1
  C  C114  1  0.53500000  0.51890000  0.38703000  1
  C  C115  1  0.53500000  0.01890000  0.11297000  1
  C  C116  1  0.52760000  0.01290000  0.84604000  1
  C  C117  1  0.52760000  0.51290000  0.65396000  1
  C  C118  1  0.51670000  0.35530000  0.35715000  1
  C  C119  1  0.51670000  0.85530000  0.14285000  1
  C  C120  1  0.50530000  0.17830000  0.40471000  1
  C  C121  1  0.50530000  0.67830000  0.09529000  1
  C  C122  1  0.49470000  0.32170000  0.90471000  1
  C  C123  1  0.49470000  0.82170000  0.59529000  1
  C  C124  1  0.48330000  0.14470000  0.85715000  1
  C  C125  1  0.48330000  0.64470000  0.64285000  1
  C  C126  1  0.47240000  0.48710000  0.34604000  1
  C  C127  1  0.47240000  0.98710000  0.15396000  1
  C  C128  1  0.46500000  0.98110000  0.88703000  1
  C  C129  1  0.46500000  0.48110000  0.61297000  1
  C  C130  1  0.46300000  0.40650000  0.33015000  1
  C  C131  1  0.46300000  0.90650000  0.16985000  1
  C  C132  1  0.44340000  0.04710000  0.26330000  1
  C  C133  1  0.44340000  0.54710000  0.23670000  1
  C  C134  1  0.44190000  0.27760000  0.86516000  1
  C  C135  1  0.44190000  0.77760000  0.63484000  1
  C  C136  1  0.44000000  0.37370000  0.93016000  1
  C  C137  1  0.44000000  0.87370000  0.56984000  1
  C  C138  1  0.42070000  0.11640000  0.89817000  1
  C  C139  1  0.42070000  0.61640000  0.60183000  1
  C  C140  1  0.41220000  0.03400000  0.91238000  1
  C  C141  1  0.41220000  0.53400000  0.58762000  1
  C  C142  1  0.40020000  0.02870000  0.30990000  1
  C  C143  1  0.40020000  0.52870000  0.19010000  1
  C  C144  1  0.38330000  0.88970000  0.99500000  1
  C  C145  1  0.38330000  0.38970000  0.50500000  1
  C  C146  1  0.37770000  0.52210000  0.27640000  1
  C  C147  1  0.37770000  0.02210000  0.22360000  1
  C  C148  1  0.35470000  0.30490000  0.49550000  1
  C  C149  1  0.35470000  0.80490000  0.00450000  1
  C  C150  1  0.33820000  0.28560000  0.84960000  1
  C  C151  1  0.33820000  0.78560000  0.65040000  1
  C  C152  1  0.33410000  0.38100000  0.91606000  1
  C  C153  1  0.33410000  0.88100000  0.58394000  1
  C  C154  1  0.31930000  0.92390000  0.96340000  1
  C  C155  1  0.31930000  0.42390000  0.53660000  1
  C  C156  1  0.29130000  0.98350000  0.31572000  1
  C  C157  1  0.29130000  0.48350000  0.18428000  1
  C  C158  1  0.28410000  0.33790000  0.87510000  1
  C  C159  1  0.28410000  0.83790000  0.62490000  1
  C  C160  1  0.27280000  0.43480000  0.94463000  1
  C  C161  1  0.27280000  0.93480000  0.55537000  1
  C  C162  1  0.26800000  0.47800000  0.27130000  1
  C  C163  1  0.26800000  0.97800000  0.22870000  1
  C  C164  1  0.26160000  0.75520000  0.98147000  1
  C  C165  1  0.26160000  0.25520000  0.51853000  1
  C  C166  1  0.24270000  0.96350000  0.36620000  1
  C  C167  1  0.24270000  0.46350000  0.13380000  1
  C  C168  1  0.23050000  0.66270000  0.98954000  1
  C  C169  1  0.23050000  0.16270000  0.51046000  1
  C  C170  1  0.22740000  0.87720000  0.94120000  1
  C  C171  1  0.22740000  0.37720000  0.55880000  1
  C  C172  1  0.22590000  0.95730000  0.27530000  1
  C  C173  1  0.22590000  0.45730000  0.22470000  1
  C  C174  1  0.19860000  0.79200000  0.94990000  1
  C  C175  1  0.19860000  0.29200000  0.55010000  1
  O  O176  1  0.92270000  0.53935000  0.97940000  1
  O  O177  1  0.92270000  0.03935000  0.52060000  1
  O  O178  1  0.84540000  0.58970000  0.87044000  1
  O  O179  1  0.84540000  0.08970000  0.62956000  1
  O  O180  1  0.84510000  0.87810000  0.46347000  1
  O  O181  1  0.84510000  0.37810000  0.03653000  1
  O  O182  1  0.81300000  0.04980000  0.42515000  1
  O  O183  1  0.81300000  0.54980000  0.07485000  1
  O  O184  1  0.71580000  0.36660000  0.97794000  1
  O  O185  1  0.71580000  0.86660000  0.52206000  1
  O  O186  1  0.70290000  0.49510000  0.90107000  1
  O  O187  1  0.70290000  0.99510000  0.59893000  1
  O  O188  1  0.68730000  0.04040000  0.48582000  1
  O  O189  1  0.68730000  0.54040000  0.01418000  1
  O  O190  1  0.65090000  0.48990000  0.45385000  1
  O  O191  1  0.65090000  0.98990000  0.04615000  1
  O  O192  1  0.57960000  0.95700000  0.82334000  1
  O  O193  1  0.57960000  0.45700000  0.67666000  1
  O  O194  1  0.50390000  0.27540000  0.33930000  1
  O  O195  1  0.50390000  0.77540000  0.16070000  1
  O  O196  1  0.49610000  0.22460000  0.83930000  1
  O  O197  1  0.49610000  0.72460000  0.66070000  1
  O  O198  1  0.42040000  0.54300000  0.32334000  1
  O  O199  1  0.42040000  0.04300000  0.17666000  1
  O  O200  1  0.34910000  0.01010000  0.95385000  1
  O  O201  1  0.34910000  0.51010000  0.54615000  1
  O  O202  1  0.31270000  0.45960000  0.98582000  1
  O  O203  1  0.31270000  0.95960000  0.51418000  1
  O  O204  1  0.29710000  0.00490000  0.40107000  1
  O  O205  1  0.29710000  0.50490000  0.09893000  1
  O  O206  1  0.28420000  0.13340000  0.47794000  1
  O  O207  1  0.28420000  0.63340000  0.02206000  1
  O  O208  1  0.18700000  0.45020000  0.92515000  1
  O  O209  1  0.18700000  0.95020000  0.57485000  1
  O  O210  1  0.15490000  0.62190000  0.96347000  1
  O  O211  1  0.15490000  0.12190000  0.53653000  1
  O  O212  1  0.15460000  0.91030000  0.37044000  1
  O  O213  1  0.15460000  0.41030000  0.12956000  1
  O  O214  1  0.07730000  0.96065000  0.47940000  1
  O  O215  1  0.07730000  0.46065000  0.02060000  1
