# generated using pymatgen
data_FeAg2H8(C2N)8
_symmetry_space_group_name_H-M   'P 1'
_cell_length_a   10.04560000
_cell_length_b   15.87411706
_cell_length_c   15.87411706
_cell_angle_alpha   115.67428312
_cell_angle_beta   102.17761817
_cell_angle_gamma   102.17761817
_symmetry_Int_Tables_number   1
_chemical_formula_structural   FeAg2H8(C2N)8
_chemical_formula_sum   'Fe3 Ag6 H24 C48 N24'
_cell_volume   2094.68033185
_cell_formula_units_Z   3
loop_
 _symmetry_equiv_pos_site_id
 _symmetry_equiv_pos_as_xyz
  1  'x, y, z'
loop_
 _atom_site_type_symbol
 _atom_site_label
 _atom_site_symmetry_multiplicity
 _atom_site_fract_x
 _atom_site_fract_y
 _atom_site_fract_z
 _atom_site_occupancy
  Ag  Ag0  1  1.00000000  0.29829000  0.70171000  1
  Ag  Ag1  1  0.70171000  0.70171000  0.40342000  1
  Ag  Ag2  1  0.70171000  0.40342000  0.70171000  1
  Ag  Ag3  1  0.29829000  0.59658000  0.29829000  1
  Ag  Ag4  1  0.29829000  0.29829000  0.59658000  1
  Ag  Ag5  1  1.00000000  0.70171000  0.29829000  1
  C  C6  1  0.79420000  0.60370000  0.42000000  1
  C  C7  1  0.79420000  0.42000000  0.60370000  1
  C  C8  1  0.36460000  1.00000000  0.08450000  1
  C  C9  1  0.36460000  0.08450000  1.00000000  1
  C  C10  1  0.36985000  0.91116000  0.18069000  1
  C  C11  1  0.36985000  0.18069000  0.91116000  1
  C  C12  1  0.71990000  0.08450000  0.08450000  1
  C  C13  1  0.39575000  0.00000000  0.17795000  1
  C  C14  1  0.39575000  0.17795000  1.00000000  1
  C  C15  1  0.40070000  0.91525000  0.27095000  1
  C  C16  1  0.40070000  0.27095000  0.91525000  1
  C  C17  1  0.19050000  0.81630000  0.39630000  1
  C  C18  1  0.19050000  0.39630000  0.81630000  1
  C  C19  1  0.62580000  0.81630000  0.42000000  1
  C  C20  1  0.62580000  0.42000000  0.81630000  1
  C  C21  1  0.78220000  0.17795000  0.17795000  1
  C  C22  1  0.45869000  0.08884000  0.26953000  1
  C  C23  1  0.45869000  0.26953000  0.08884000  1
  C  C24  1  0.12975000  0.72905000  0.64430000  1
  C  C25  1  0.12975000  0.64430000  0.72905000  1
  C  C26  1  0.48545000  0.08475000  0.35570000  1
  C  C27  1  0.48545000  0.35570000  0.08475000  1
  C  C28  1  0.81084000  0.26953000  0.18069000  1
  C  C29  1  0.81084000  0.18069000  0.26953000  1
  C  C30  1  0.18916000  0.81931000  0.73047000  1
  C  C31  1  0.18916000  0.73047000  0.81931000  1
  C  C32  1  0.51455000  0.91525000  0.64430000  1
  C  C33  1  0.51455000  0.64430000  0.91525000  1
  C  C34  1  0.87025000  0.35570000  0.27095000  1
  C  C35  1  0.87025000  0.27095000  0.35570000  1
  C  C36  1  0.54131000  0.91116000  0.73047000  1
  C  C37  1  0.54131000  0.73047000  0.91116000  1
  C  C38  1  0.21780000  0.82205000  0.82205000  1
  C  C39  1  0.37420000  0.18370000  0.58000000  1
  C  C40  1  0.37420000  0.58000000  0.18370000  1
  C  C41  1  0.80950000  0.18370000  0.60370000  1
  C  C42  1  0.80950000  0.60370000  0.18370000  1
  C  C43  1  0.59930000  0.08475000  0.72905000  1
  C  C44  1  0.59930000  0.72905000  0.08475000  1
  C  C45  1  0.60425000  0.00000000  0.82205000  1
  C  C46  1  0.60425000  0.82205000  0.00000000  1
  C  C47  1  0.28010000  0.91550000  0.91550000  1
  C  C48  1  0.63015000  0.08884000  0.81931000  1
  C  C49  1  0.63015000  0.81931000  0.08884000  1
  C  C50  1  0.63540000  1.00000000  0.91550000  1
  C  C51  1  0.63540000  0.91550000  1.00000000  1
  C  C52  1  0.20580000  0.58000000  0.39630000  1
  C  C53  1  0.20580000  0.39630000  0.58000000  1
  Fe  Fe54  1  0.50000000  1.00000000  0.50000000  1
  Fe  Fe55  1  0.50000000  0.50000000  1.00000000  1
  Fe  Fe56  1  1.00000000  0.50000000  0.50000000  1
  H  H57  1  0.66780000  0.87810000  0.14990000  1
  H  H58  1  0.66780000  0.14990000  0.87810000  1
  H  H59  1  0.38160000  0.85570000  0.27170000  1
  H  H60  1  0.38160000  0.27170000  0.85570000  1
  H  H61  1  0.10990000  0.72830000  0.58400000  1
  H  H62  1  0.10990000  0.58400000  0.72830000  1
  H  H63  1  0.78970000  0.12190000  0.27180000  1
  H  H64  1  0.78970000  0.27180000  0.12190000  1
  H  H65  1  0.48210000  0.27180000  0.14990000  1
  H  H66  1  0.48210000  0.14990000  0.27180000  1
  H  H67  1  0.47410000  0.85570000  0.58400000  1
  H  H68  1  0.47410000  0.58400000  0.85570000  1
  H  H69  1  0.52590000  0.14430000  0.41600000  1
  H  H70  1  0.52590000  0.41600000  0.14430000  1
  H  H71  1  0.51790000  0.85010000  0.72820000  1
  H  H72  1  0.51790000  0.72820000  0.85010000  1
  H  H73  1  0.21030000  0.87810000  0.72820000  1
  H  H74  1  0.21030000  0.72820000  0.87810000  1
  H  H75  1  0.89010000  0.41600000  0.27170000  1
  H  H76  1  0.89010000  0.27170000  0.41600000  1
  H  H77  1  0.61840000  0.14430000  0.72830000  1
  H  H78  1  0.61840000  0.72830000  0.14430000  1
  H  H79  1  0.33220000  0.12190000  0.85010000  1
  H  H80  1  0.33220000  0.85010000  0.12190000  1
  N  N81  1  0.85406000  0.55948000  0.44250000  1
  N  N82  1  0.85406000  0.44250000  0.55948000  1
  N  N83  1  0.69169000  0.00000000  0.08827000  1
  N  N84  1  0.69169000  0.08827000  1.00000000  1
  N  N85  1  0.39658000  0.08827000  0.08827000  1
  N  N86  1  0.09890000  0.64235000  0.64235000  1
  N  N87  1  0.29458000  0.88302000  0.44052000  1
  N  N88  1  0.29458000  0.44052000  0.88302000  1
  N  N89  1  0.58844000  0.88302000  0.44250000  1
  N  N90  1  0.58844000  0.44250000  0.88302000  1
  N  N91  1  0.45655000  0.00000000  0.35765000  1
  N  N92  1  0.45655000  0.35765000  0.00000000  1
  N  N93  1  0.54345000  1.00000000  0.64235000  1
  N  N94  1  0.54345000  0.64235000  1.00000000  1
  N  N95  1  0.41156000  0.11698000  0.55750000  1
  N  N96  1  0.41156000  0.55750000  0.11698000  1
  N  N97  1  0.70542000  0.11698000  0.55948000  1
  N  N98  1  0.70542000  0.55948000  0.11698000  1
  N  N99  1  0.90110000  0.35765000  0.35765000  1
  N  N100  1  0.60342000  0.91173000  0.91173000  1
  N  N101  1  0.30831000  0.00000000  0.91173000  1
  N  N102  1  0.30831000  0.91173000  0.00000000  1
  N  N103  1  0.14594000  0.55750000  0.44052000  1
  N  N104  1  0.14594000  0.44052000  0.55750000  1
