# generated using pymatgen
data_NiPC3NO3
_symmetry_space_group_name_H-M   'P 1'
_cell_length_a   6.23020000
_cell_length_b   16.26922151
_cell_length_c   16.26922151
_cell_angle_alpha   118.39575193
_cell_angle_beta   97.33369938
_cell_angle_gamma   97.33369938
_symmetry_Int_Tables_number   1
_chemical_formula_structural   NiPC3NO3
_chemical_formula_sum   'Ni6 P6 C18 N6 O18'
_cell_volume   1404.85493583
_cell_formula_units_Z   6
loop_
 _symmetry_equiv_pos_site_id
 _symmetry_equiv_pos_as_xyz
  1  'x, y, z'
loop_
 _atom_site_type_symbol
 _atom_site_label
 _atom_site_symmetry_multiplicity
 _atom_site_fract_x
 _atom_site_fract_y
 _atom_site_fract_z
 _atom_site_occupancy
  C  C0  1  0.74150000  0.46470000  0.56980000  1
  C  C1  1  0.12270000  0.52070000  0.59540000  1
  C  C2  1  0.07080000  0.60050000  0.56990000  1
  C  C3  1  0.17170000  0.43020000  0.89490000  1
  C  C4  1  0.52730000  0.40460000  0.92530000  1
  C  C5  1  0.72320000  0.89490000  0.46470000  1
  C  C6  1  0.47030000  0.96940000  0.39950000  1
  C  C7  1  0.39800000  0.92530000  0.52070000  1
  C  C8  1  0.50090000  0.43010000  0.03060000  1
  C  C9  1  0.49910000  0.56990000  0.96940000  1
  C  C10  1  0.60200000  0.07470000  0.47930000  1
  C  C11  1  0.52970000  0.03060000  0.60050000  1
  C  C12  1  0.27680000  0.10510000  0.53530000  1
  C  C13  1  0.47270000  0.59540000  0.07470000  1
  C  C14  1  0.82830000  0.56980000  0.10510000  1
  C  C15  1  0.92920000  0.39950000  0.43010000  1
  C  C16  1  0.87730000  0.47930000  0.40460000  1
  C  C17  1  0.25850000  0.53530000  0.43020000  1
  N  N18  1  0.03560000  0.56290000  0.45570000  1
  N  N19  1  0.47270000  0.89280000  0.43710000  1
  N  N20  1  0.42010000  0.45570000  0.89280000  1
  N  N21  1  0.57990000  0.54430000  0.10720000  1
  N  N22  1  0.52730000  0.10720000  0.56290000  1
  N  N23  1  0.96440000  0.43710000  0.54430000  1
  Ni  Ni24  1  0.97670000  0.66626000  0.41894000  1
  Ni  Ni25  1  0.31044000  0.75268000  0.33374000  1
  Ni  Ni26  1  0.44224000  0.41894000  0.75268000  1
  Ni  Ni27  1  0.55776000  0.58106000  0.24732000  1
  Ni  Ni28  1  0.68956000  0.24732000  0.66626000  1
  Ni  Ni29  1  0.02330000  0.33374000  0.58106000  1
  O  O30  1  0.61010000  0.72500000  0.29170000  1
  O  O31  1  0.64120000  0.64100000  0.39020000  1
  O  O32  1  0.00020000  0.74920000  0.35900000  1
  O  O33  1  0.74900000  0.39020000  0.74920000  1
  O  O34  1  0.31840000  0.70830000  0.43330000  1
  O  O35  1  0.86740000  0.86650000  0.29120000  1
  O  O36  1  0.11490000  0.43330000  0.72500000  1
  O  O37  1  0.57620000  0.70880000  0.57530000  1
  O  O38  1  0.99910000  0.57530000  0.86650000  1
  O  O39  1  0.00090000  0.42470000  0.13350000  1
  O  O40  1  0.42380000  0.29120000  0.42470000  1
  O  O41  1  0.88510000  0.56670000  0.27500000  1
  O  O42  1  0.13260000  0.13350000  0.70880000  1
  O  O43  1  0.68160000  0.29170000  0.56670000  1
  O  O44  1  0.25100000  0.60980000  0.25080000  1
  O  O45  1  0.99980000  0.25080000  0.64100000  1
  O  O46  1  0.35880000  0.35900000  0.60980000  1
  O  O47  1  0.38990000  0.27500000  0.70830000  1
  P  P48  1  0.46669000  0.65314000  0.46563000  1
  P  P49  1  0.81355000  0.81249000  0.34686000  1
  P  P50  1  0.99894000  0.46563000  0.81249000  1
  P  P51  1  0.00106000  0.53437000  0.18751000  1
  P  P52  1  0.18645000  0.18751000  0.65314000  1
  P  P53  1  0.53331000  0.34686000  0.53437000  1
