# generated using pymatgen
data_Cu2H9C17NO8
_symmetry_space_group_name_H-M   'P 1'
_cell_length_a   14.94165874
_cell_length_b   14.94165874
_cell_length_c   14.94165874
_cell_angle_alpha   102.82197990
_cell_angle_beta   102.82197990
_cell_angle_gamma   102.82197990
_symmetry_Int_Tables_number   1
_chemical_formula_structural   Cu2H9C17NO8
_chemical_formula_sum   'Cu6 H27 C51 N3 O24'
_cell_volume   3039.75088929
_cell_formula_units_Z   3
loop_
 _symmetry_equiv_pos_site_id
 _symmetry_equiv_pos_as_xyz
  1  'x, y, z'
loop_
 _atom_site_type_symbol
 _atom_site_label
 _atom_site_symmetry_multiplicity
 _atom_site_fract_x
 _atom_site_fract_y
 _atom_site_fract_z
 _atom_site_occupancy
  C  C0  1  0.48920000  0.18390000  0.79080000  1
  C  C1  1  0.49050000  0.79290000  0.18380000  1
  C  C2  1  0.48900000  0.06300000  0.90800000  1
  C  C3  1  0.91990000  0.31720000  0.47970000  1
  C  C4  1  0.91780000  0.47040000  0.31480000  1
  C  C5  1  0.21440000  0.47930000  0.88360000  1
  C  C6  1  0.21300000  0.88070000  0.47580000  1
  C  C7  1  0.88070000  0.47580000  0.21300000  1
  C  C8  1  0.88360000  0.21440000  0.47930000  1
  C  C9  1  0.18380000  0.49050000  0.79290000  1
  C  C10  1  0.18390000  0.79080000  0.48920000  1
  C  C11  1  0.81810000  0.50250000  0.03380000  1
  C  C12  1  0.81660000  0.02980000  0.49180000  1
  C  C13  1  0.49180000  0.81660000  0.02980000  1
  C  C14  1  0.49670000  0.75930000  0.09150000  1
  C  C15  1  0.50260000  0.09430000  0.75960000  1
  C  C16  1  0.50250000  0.03380000  0.81810000  1
  C  C17  1  0.31720000  0.47970000  0.91990000  1
  C  C18  1  0.31480000  0.91780000  0.47040000  1
  C  C19  1  0.93920000  0.47570000  0.15250000  1
  C  C20  1  0.94080000  0.15270000  0.47450000  1
  C  C21  1  0.90800000  0.48900000  0.06300000  1
  C  C22  1  0.90720000  0.06040000  0.48070000  1
  C  C23  1  0.50060000  0.65840000  0.05200000  1
  C  C24  1  0.51220000  0.05600000  0.66080000  1
  C  C25  1  0.94700000  0.98700000  0.43600000  1
  C  C26  1  0.98700000  0.43600000  0.94700000  1
  C  C27  1  0.47040000  0.31480000  0.91780000  1
  C  C28  1  0.47970000  0.91990000  0.31720000  1
  C  C29  1  0.06300000  0.90800000  0.48900000  1
  C  C30  1  0.06040000  0.48070000  0.90720000  1
  C  C31  1  0.03380000  0.81810000  0.50250000  1
  C  C32  1  0.02980000  0.49180000  0.81660000  1
  C  C33  1  0.66080000  0.51220000  0.05600000  1
  C  C34  1  0.65840000  0.05200000  0.50060000  1
  C  C35  1  0.47450000  0.94080000  0.15270000  1
  C  C36  1  0.47580000  0.21300000  0.88070000  1
  C  C37  1  0.47570000  0.15250000  0.93920000  1
  C  C38  1  0.47930000  0.88360000  0.21440000  1
  C  C39  1  0.15250000  0.93920000  0.47570000  1
  C  C40  1  0.15270000  0.47450000  0.94080000  1
  C  C41  1  0.79080000  0.48920000  0.18390000  1
  C  C42  1  0.79290000  0.18380000  0.49050000  1
  C  C43  1  0.75960000  0.50260000  0.09430000  1
  C  C44  1  0.09430000  0.75960000  0.50260000  1
  C  C45  1  0.09150000  0.49670000  0.75930000  1
  C  C46  1  0.75930000  0.09150000  0.49670000  1
  C  C47  1  0.43600000  0.94700000  0.98700000  1
  C  C48  1  0.05600000  0.66080000  0.51220000  1
  C  C49  1  0.05200000  0.50060000  0.65840000  1
  C  C50  1  0.48070000  0.90720000  0.06040000  1
  Cu  Cu51  1  0.06494889  0.46767889  0.46724889  1
  Cu  Cu52  1  0.46724889  0.06494889  0.46767889  1
  Cu  Cu53  1  0.46767889  0.46724889  0.06494889  1
  Cu  Cu54  1  0.50561000  0.90814000  0.50585000  1
  Cu  Cu55  1  0.50585000  0.50561000  0.90814000  1
  Cu  Cu56  1  0.90814000  0.50585000  0.50561000  1
  H  H57  1  0.48920000  0.22510000  0.75080000  1
  H  H58  1  0.49390000  0.75390000  0.22600000  1
  H  H59  1  0.79670000  0.51180000  0.97270000  1
  H  H60  1  0.79360000  0.96670000  0.49600000  1
  H  H61  1  0.56770000  0.00490000  0.99000000  1
  H  H62  1  0.22600000  0.49390000  0.75390000  1
  H  H63  1  0.22510000  0.75080000  0.48920000  1
  H  H64  1  0.49600000  0.79360000  0.96670000  1
  H  H65  1  0.51180000  0.97270000  0.79670000  1
  H  H66  1  0.00070000  0.46650000  0.17250000  1
  H  H67  1  0.00280000  0.17360000  0.46690000  1
  H  H68  1  0.99000000  0.56770000  0.00490000  1
  H  H69  1  0.00490000  0.99000000  0.56770000  1
  H  H70  1  0.89480000  0.92920000  0.39510000  1
  H  H71  1  0.98450000  0.01160000  0.39460000  1
  H  H72  1  0.92920000  0.39510000  0.89480000  1
  H  H73  1  0.97270000  0.79670000  0.51180000  1
  H  H74  1  0.96670000  0.49600000  0.79360000  1
  H  H75  1  0.01160000  0.39460000  0.98450000  1
  H  H76  1  0.46690000  0.00280000  0.17360000  1
  H  H77  1  0.46650000  0.17250000  0.00070000  1
  H  H78  1  0.75080000  0.48920000  0.22510000  1
  H  H79  1  0.75390000  0.22600000  0.49390000  1
  H  H80  1  0.39460000  0.98450000  0.01160000  1
  H  H81  1  0.17360000  0.46690000  0.00280000  1
  H  H82  1  0.17250000  0.00070000  0.46650000  1
  H  H83  1  0.39510000  0.89480000  0.92920000  1
  N  N84  1  0.50770000  0.00430000  0.96600000  1
  N  N85  1  0.96600000  0.50770000  0.00430000  1
  N  N86  1  0.00430000  0.96600000  0.50770000  1
  O  O87  1  0.10690000  0.48890000  0.60410000  1
  O  O88  1  0.10780000  0.60630000  0.48760000  1
  O  O89  1  0.99790000  0.45950000  0.33740000  1
  O  O90  1  0.99630000  0.33410000  0.45540000  1
  O  O91  1  0.33410000  0.45540000  0.99630000  1
  O  O92  1  0.33740000  0.99790000  0.45950000  1
  O  O93  1  0.48760000  0.10780000  0.60630000  1
  O  O94  1  0.48890000  0.60410000  0.10690000  1
  O  O95  1  0.36460000  0.86740000  0.48870000  1
  O  O96  1  0.36820000  0.48420000  0.86440000  1
  O  O97  1  0.51750000  0.63950000  0.97720000  1
  O  O98  1  0.51640000  0.97420000  0.63640000  1
  O  O99  1  0.45540000  0.99630000  0.33410000  1
  O  O100  1  0.45950000  0.33740000  0.99790000  1
  O  O101  1  0.60410000  0.10690000  0.48890000  1
  O  O102  1  0.60630000  0.48760000  0.10780000  1
  O  O103  1  0.48420000  0.86440000  0.36820000  1
  O  O104  1  0.48870000  0.36460000  0.86740000  1
  O  O105  1  0.63640000  0.51640000  0.97420000  1
  O  O106  1  0.63950000  0.97720000  0.51750000  1
  O  O107  1  0.97420000  0.63640000  0.51640000  1
  O  O108  1  0.97720000  0.51750000  0.63950000  1
  O  O109  1  0.86440000  0.36820000  0.48420000  1
  O  O110  1  0.86740000  0.48870000  0.36460000  1
