# generated using pymatgen
data_Mg5Al4(PO4)9
_symmetry_space_group_name_H-M   'P 1'
_cell_length_a   13.23850000
_cell_length_b   13.23850000
_cell_length_c   17.24642396
_cell_angle_alpha   67.43047625
_cell_angle_beta   67.43047625
_cell_angle_gamma   60.00000000
_symmetry_Int_Tables_number   1
_chemical_formula_structural   Mg5Al4(PO4)9
_chemical_formula_sum   'Mg10 Al8 P18 O72'
_cell_volume   2346.52492569
_cell_formula_units_Z   2
loop_
 _symmetry_equiv_pos_site_id
 _symmetry_equiv_pos_as_xyz
  1  'x, y, z'
loop_
 _atom_site_type_symbol
 _atom_site_label
 _atom_site_symmetry_multiplicity
 _atom_site_fract_x
 _atom_site_fract_y
 _atom_site_fract_z
 _atom_site_occupancy
  Al  Al0  1  0.22804333  0.69943333  0.60043000  1
  Al  Al1  1  0.69943333  0.47209333  0.60043000  1
  Al  Al2  1  0.97209333  0.19943333  0.10043000  1
  Al  Al3  1  0.27195667  0.02790667  0.89957000  1
  Al  Al4  1  0.72804333  0.97209333  0.10043000  1
  Al  Al5  1  0.02790667  0.80056667  0.89957000  1
  Al  Al6  1  0.30056667  0.52790667  0.39957000  1
  Al  Al7  1  0.77195667  0.30056667  0.39957000  1
  Mg  Mg8  1  0.19943333  0.72804333  0.10043000  1
  Mg  Mg9  1  0.49387000  0.25000000  0.25000000  1
  Mg  Mg10  1  0.75000000  0.99387000  0.75000000  1
  Mg  Mg11  1  0.52790667  0.77195667  0.39957000  1
  Mg  Mg12  1  0.47209333  0.22804333  0.60043000  1
  Mg  Mg13  1  0.25000000  0.00613000  0.25000000  1
  Mg  Mg14  1  0.50613000  0.75000000  0.75000000  1
  Mg  Mg15  1  0.80056667  0.27195667  0.89957000  1
  Mg  Mg16  1  0.99387000  0.50613000  0.75000000  1
  Mg  Mg17  1  0.00613000  0.49387000  0.25000000  1
  O  O18  1  0.53360000  0.23210000  0.34280000  1
  O  O19  1  0.73210000  0.03360000  0.84280000  1
  O  O20  1  0.22199000  0.77591000  0.49193000  1
  O  O21  1  0.27591000  0.72199000  0.99193000  1
  O  O22  1  0.41057000  0.02417000  0.83059000  1
  O  O23  1  0.52417000  0.91057000  0.33059000  1
  O  O24  1  0.89150000  0.53360000  0.34280000  1
  O  O25  1  0.03360000  0.39150000  0.84280000  1
  O  O26  1  0.60850000  0.26790000  0.15720000  1
  O  O27  1  0.76790000  0.10850000  0.65720000  1
  O  O28  1  0.02417000  0.73467000  0.83059000  1
  O  O29  1  0.23467000  0.52417000  0.33059000  1
  O  O30  1  0.08943000  0.76533000  0.66941000  1
  O  O31  1  0.26533000  0.58943000  0.16941000  1
  O  O32  1  0.77591000  0.51017000  0.49193000  1
  O  O33  1  0.01017000  0.27591000  0.99193000  1
  O  O34  1  0.27801000  0.98983000  0.00807000  1
  O  O35  1  0.48983000  0.77801000  0.50807000  1
  O  O36  1  0.67543000  0.66463000  0.37466000  1
  O  O37  1  0.16463000  0.17543000  0.87466000  1
  O  O38  1  0.76101000  0.07775000  0.11298000  1
  O  O39  1  0.57775000  0.26101000  0.61298000  1
  O  O40  1  0.87695000  0.85975000  0.73865000  1
  O  O41  1  0.35975000  0.37695000  0.23865000  1
  O  O42  1  0.52465000  0.87695000  0.73865000  1
  O  O43  1  0.37695000  0.02465000  0.23865000  1
  O  O44  1  0.26101000  0.54826000  0.61298000  1
  O  O45  1  0.04826000  0.76101000  0.11298000  1
  O  O46  1  0.28528000  0.67543000  0.37466000  1
  O  O47  1  0.17543000  0.78528000  0.87466000  1
  O  O48  1  0.02465000  0.35975000  0.23865000  1
  O  O49  1  0.85975000  0.52465000  0.73865000  1
  O  O50  1  0.07775000  0.04826000  0.11298000  1
  O  O51  1  0.54826000  0.57775000  0.61298000  1
  O  O52  1  0.78528000  0.16463000  0.87466000  1
  O  O53  1  0.66463000  0.28528000  0.37466000  1
  O  O54  1  0.21472000  0.83537000  0.12534000  1
  O  O55  1  0.33537000  0.71472000  0.62534000  1
  O  O56  1  0.45174000  0.42225000  0.38702000  1
  O  O57  1  0.92225000  0.95174000  0.88702000  1
  O  O58  1  0.97535000  0.64025000  0.76135000  1
  O  O59  1  0.14025000  0.47535000  0.26135000  1
  O  O60  1  0.71472000  0.32457000  0.62534000  1
  O  O61  1  0.82457000  0.21472000  0.12534000  1
  O  O62  1  0.73899000  0.45174000  0.38702000  1
  O  O63  1  0.95174000  0.23899000  0.88702000  1
  O  O64  1  0.47535000  0.12305000  0.26135000  1
  O  O65  1  0.62305000  0.97535000  0.76135000  1
  O  O66  1  0.64025000  0.62305000  0.76135000  1
  O  O67  1  0.12305000  0.14025000  0.26135000  1
  O  O68  1  0.23899000  0.92225000  0.88702000  1
  O  O69  1  0.42225000  0.73899000  0.38702000  1
  O  O70  1  0.83537000  0.82457000  0.12534000  1
  O  O71  1  0.32457000  0.33537000  0.62534000  1
  O  O72  1  0.72199000  0.01017000  0.99193000  1
  O  O73  1  0.51017000  0.22199000  0.49193000  1
  O  O74  1  0.98983000  0.72409000  0.00807000  1
  O  O75  1  0.22409000  0.48983000  0.50807000  1
  O  O76  1  0.91057000  0.23467000  0.33059000  1
  O  O77  1  0.73467000  0.41057000  0.83059000  1
  O  O78  1  0.76533000  0.47583000  0.66941000  1
  O  O79  1  0.97583000  0.26533000  0.16941000  1
  O  O80  1  0.39150000  0.73210000  0.84280000  1
  O  O81  1  0.23210000  0.89150000  0.34280000  1
  O  O82  1  0.10850000  0.46640000  0.65720000  1
  O  O83  1  0.96640000  0.60850000  0.15720000  1
  O  O84  1  0.58943000  0.97583000  0.16941000  1
  O  O85  1  0.47583000  0.08943000  0.66941000  1
  O  O86  1  0.77801000  0.22409000  0.50807000  1
  O  O87  1  0.72409000  0.27801000  0.00807000  1
  O  O88  1  0.26790000  0.96640000  0.15720000  1
  O  O89  1  0.46640000  0.76790000  0.65720000  1
  P  P90  1  0.50856000  0.99144000  0.75000000  1
  P  P91  1  0.49144000  0.00856000  0.25000000  1
  P  P92  1  0.29139667  0.77026667  0.39912000  1
  P  P93  1  0.27026667  0.79139667  0.89912000  1
  P  P94  1  0.77026667  0.53921667  0.39912000  1
  P  P95  1  0.03921667  0.27026667  0.89912000  1
  P  P96  1  0.99144000  0.75000000  0.75000000  1
  P  P97  1  0.25000000  0.49144000  0.25000000  1
  P  P98  1  0.20860333  0.96078333  0.10088000  1
  P  P99  1  0.46078333  0.70860333  0.60088000  1
  P  P100  1  0.79139667  0.03921667  0.89912000  1
  P  P101  1  0.53921667  0.29139667  0.39912000  1
  P  P102  1  0.75000000  0.50856000  0.75000000  1
  P  P103  1  0.00856000  0.25000000  0.25000000  1
  P  P104  1  0.96078333  0.72973333  0.10088000  1
  P  P105  1  0.22973333  0.46078333  0.60088000  1
  P  P106  1  0.70860333  0.22973333  0.60088000  1
  P  P107  1  0.72973333  0.20860333  0.10088000  1
