# generated using pymatgen
data_AlPO4
_symmetry_space_group_name_H-M   'P 1'
_cell_length_a   10.00981556
_cell_length_b   10.00981556
_cell_length_c   10.16580000
_cell_angle_alpha   90.00000000
_cell_angle_beta   90.00000000
_cell_angle_gamma   92.64362450
_symmetry_Int_Tables_number   1
_chemical_formula_structural   AlPO4
_chemical_formula_sum   'Al8 P8 O32'
_cell_volume   1017.49261009
_cell_formula_units_Z   8
loop_
 _symmetry_equiv_pos_site_id
 _symmetry_equiv_pos_as_xyz
  1  'x, y, z'
loop_
 _atom_site_type_symbol
 _atom_site_label
 _atom_site_symmetry_multiplicity
 _atom_site_fract_x
 _atom_site_fract_y
 _atom_site_fract_z
 _atom_site_occupancy
  Al  Al0  1  0.91030000  0.08970000  0.25000000  1
  Al  Al1  1  0.61570000  0.38430000  0.25000000  1
  Al  Al2  1  0.38430000  0.61570000  0.75000000  1
  Al  Al3  1  0.08970000  0.91030000  0.75000000  1
  Al  Al4  1  0.41080000  0.11640000  0.96730000  1
  Al  Al5  1  0.11640000  0.41080000  0.03270000  1
  Al  Al6  1  0.58920000  0.88360000  0.46730000  1
  Al  Al7  1  0.88360000  0.58920000  0.53270000  1
  O  O8  1  0.54330000  0.45030000  0.10460000  1
  O  O9  1  0.45030000  0.54330000  0.89540000  1
  O  O10  1  0.95330000  0.98430000  0.38450000  1
  O  O11  1  0.98430000  0.95330000  0.61550000  1
  O  O12  1  0.74380000  0.05420000  0.19360000  1
  O  O13  1  0.05420000  0.74380000  0.80640000  1
  O  O14  1  0.57630000  0.20610000  0.27510000  1
  O  O15  1  0.20610000  0.57630000  0.72490000  1
  O  O16  1  0.43940000  0.29900000  0.93020000  1
  O  O17  1  0.29900000  0.43940000  0.06980000  1
  O  O18  1  0.75860000  0.92760000  0.52040000  1
  O  O19  1  0.92760000  0.75860000  0.47960000  1
  O  O20  1  0.52780000  0.04800000  0.08940000  1
  O  O21  1  0.04800000  0.52780000  0.91060000  1
  O  O22  1  0.54060000  0.96700000  0.30960000  1
  O  O23  1  0.96700000  0.54060000  0.69040000  1
  O  O24  1  0.45940000  0.03300000  0.80960000  1
  O  O25  1  0.03300000  0.45940000  0.19040000  1
  O  O26  1  0.47220000  0.95200000  0.58940000  1
  O  O27  1  0.95200000  0.47220000  0.41060000  1
  O  O28  1  0.24140000  0.07240000  0.02040000  1
  O  O29  1  0.07240000  0.24140000  0.97960000  1
  O  O30  1  0.56060000  0.70100000  0.43020000  1
  O  O31  1  0.70100000  0.56060000  0.56980000  1
  O  O32  1  0.42370000  0.79390000  0.77510000  1
  O  O33  1  0.79390000  0.42370000  0.22490000  1
  O  O34  1  0.25620000  0.94580000  0.69360000  1
  O  O35  1  0.94580000  0.25620000  0.30640000  1
  O  O36  1  0.04670000  0.01570000  0.88450000  1
  O  O37  1  0.01570000  0.04670000  0.11550000  1
  O  O38  1  0.45670000  0.54970000  0.60460000  1
  O  O39  1  0.54970000  0.45670000  0.39540000  1
  P  P40  1  0.43160000  0.43160000  0.00000000  1
  P  P41  1  0.90500000  0.90500000  0.50000000  1
  P  P42  1  0.59570000  0.06970000  0.21580000  1
  P  P43  1  0.06970000  0.59570000  0.78420000  1
  P  P44  1  0.40430000  0.93030000  0.71580000  1
  P  P45  1  0.93030000  0.40430000  0.28420000  1
  P  P46  1  0.09500000  0.09500000  1.00000000  1
  P  P47  1  0.56840000  0.56840000  0.50000000  1
