# generated using pymatgen
data_AgH8(CN)2
_symmetry_space_group_name_H-M   'P 1'
_cell_length_a   6.24950000
_cell_length_b   7.39324075
_cell_length_c   7.39324075
_cell_angle_alpha   91.52126546
_cell_angle_beta   106.99716384
_cell_angle_gamma   106.99716384
_symmetry_Int_Tables_number   1
_chemical_formula_structural   AgH8(CN)2
_chemical_formula_sum   'Ag2 H16 C4 N4'
_cell_volume   310.05538545
_cell_formula_units_Z   2
loop_
 _symmetry_equiv_pos_site_id
 _symmetry_equiv_pos_as_xyz
  1  'x, y, z'
loop_
 _atom_site_type_symbol
 _atom_site_label
 _atom_site_symmetry_multiplicity
 _atom_site_fract_x
 _atom_site_fract_y
 _atom_site_fract_z
 _atom_site_occupancy
  Ag  Ag0  1  1.00000000  0.50000000  0.50000000  1
  Ag  Ag1  1  0.50000000  0.50000000  0.50000000  1
  C  C2  1  0.54590000  0.52830000  0.10650000  1
  C  C3  1  0.04590000  0.10650000  0.52830000  1
  C  C4  1  0.45410000  0.47170000  0.89350000  1
  C  C5  1  0.95410000  0.89350000  0.47170000  1
  H  H6  1  0.57220000  0.66490000  0.13350000  1
  H  H7  1  0.07220000  0.13350000  0.66490000  1
  H  H8  1  0.69760000  0.50520000  0.15800000  1
  H  H9  1  0.19760000  0.15800000  0.50520000  1
  H  H10  1  0.23930000  0.44060000  0.15160000  1
  H  H11  1  0.73930000  0.15160000  0.44060000  1
  H  H12  1  0.64120000  0.70550000  0.82190000  1
  H  H13  1  0.14120000  0.82190000  0.70550000  1
  H  H14  1  0.35880000  0.29450000  0.17810000  1
  H  H15  1  0.85880000  0.17810000  0.29450000  1
  H  H16  1  0.76070000  0.55940000  0.84840000  1
  H  H17  1  0.26070000  0.84840000  0.55940000  1
  H  H18  1  0.30240000  0.49480000  0.84200000  1
  H  H19  1  0.80240000  0.84200000  0.49480000  1
  H  H20  1  0.42780000  0.33510000  0.86650000  1
  H  H21  1  0.92780000  0.86650000  0.33510000  1
  N  N22  1  0.38100000  0.42110000  0.20190000  1
  N  N23  1  0.88100000  0.20190000  0.42110000  1
  N  N24  1  0.61900000  0.57890000  0.79810000  1
  N  N25  1  0.11900000  0.79810000  0.57890000  1
