# generated using pymatgen
data_NiH4C4N3O2
_symmetry_space_group_name_H-M   'P 1'
_cell_length_a   8.35670000
_cell_length_b   9.04340000
_cell_length_c   12.05500000
_cell_angle_alpha   90.00000000
_cell_angle_beta   90.00000000
_cell_angle_gamma   90.00000000
_symmetry_Int_Tables_number   1
_chemical_formula_structural   NiH4C4N3O2
_chemical_formula_sum   'Ni4 H16 C16 N12 O8'
_cell_volume   911.03228330
_cell_formula_units_Z   4
loop_
 _symmetry_equiv_pos_site_id
 _symmetry_equiv_pos_as_xyz
  1  'x, y, z'
loop_
 _atom_site_type_symbol
 _atom_site_label
 _atom_site_symmetry_multiplicity
 _atom_site_fract_x
 _atom_site_fract_y
 _atom_site_fract_z
 _atom_site_occupancy
  Ni  Ni0  1  0.12879000  0.81024000  0.68074000  1
  Ni  Ni1  1  0.37121000  0.18976000  0.18074000  1
  Ni  Ni2  1  0.62879000  0.68976000  0.31926000  1
  Ni  Ni3  1  0.87121000  0.31024000  0.81926000  1
  H  H4  1  0.02500000  0.03790000  0.48480000  1
  H  H5  1  0.07800000  0.12020000  0.00110000  1
  H  H6  1  0.12670000  0.49100000  0.26830000  1
  H  H7  1  0.13990000  0.61710000  0.17980000  1
  H  H8  1  0.36010000  0.38290000  0.67980000  1
  H  H9  1  0.37330000  0.50900000  0.76830000  1
  H  H10  1  0.42200000  0.87980000  0.50110000  1
  H  H11  1  0.47500000  0.96210000  0.98480000  1
  H  H12  1  0.52500000  0.46210000  0.51520000  1
  H  H13  1  0.57800000  0.37980000  0.99890000  1
  H  H14  1  0.62670000  0.00900000  0.73170000  1
  H  H15  1  0.63990000  0.88290000  0.82020000  1
  H  H16  1  0.86010000  0.11710000  0.32020000  1
  H  H17  1  0.87330000  0.99100000  0.23170000  1
  H  H18  1  0.92200000  0.62020000  0.49890000  1
  H  H19  1  0.97500000  0.53790000  0.01520000  1
  C  C20  1  0.01800000  0.44520000  0.03035000  1
  C  C21  1  0.07520000  0.21832000  0.02402000  1
  C  C22  1  0.14210000  0.47855000  0.71404000  1
  C  C23  1  0.17590000  0.51820000  0.19830000  1
  C  C24  1  0.32410000  0.48180000  0.69830000  1
  C  C25  1  0.35790000  0.52145000  0.21404000  1
  C  C26  1  0.42480000  0.78168000  0.52402000  1
  C  C27  1  0.48200000  0.55480000  0.53035000  1
  C  C28  1  0.51800000  0.05480000  0.96965000  1
  C  C29  1  0.57520000  0.28168000  0.97598000  1
  C  C30  1  0.64210000  0.02145000  0.28596000  1
  C  C31  1  0.67590000  0.98180000  0.80170000  1
  C  C32  1  0.82410000  0.01820000  0.30170000  1
  C  C33  1  0.85790000  0.97855000  0.78596000  1
  C  C34  1  0.92480000  0.71832000  0.47598000  1
  C  C35  1  0.98200000  0.94520000  0.46965000  1
  N  N36  1  0.01345000  0.82308000  0.52695000  1
  N  N37  1  0.11949000  0.41616000  0.11242000  1
  N  N38  1  0.15781000  0.26872000  0.10980000  1
  N  N39  1  0.34219000  0.73128000  0.60980000  1
  N  N40  1  0.38051000  0.58384000  0.61242000  1
  N  N41  1  0.48655000  0.17692000  0.02695000  1
  N  N42  1  0.51345000  0.67692000  0.47305000  1
  N  N43  1  0.61949000  0.08384000  0.88758000  1
  N  N44  1  0.65781000  0.23128000  0.89020000  1
  N  N45  1  0.84219000  0.76872000  0.39020000  1
  N  N46  1  0.88051000  0.91616000  0.38758000  1
  N  N47  1  0.98655000  0.32308000  0.97305000  1
  O  O48  1  0.05948000  0.59132000  0.69370000  1
  O  O49  1  0.09179000  0.35828000  0.75230000  1
  O  O50  1  0.40821000  0.64172000  0.25230000  1
  O  O51  1  0.44052000  0.40868000  0.19370000  1
  O  O52  1  0.55948000  0.90868000  0.30630000  1
  O  O53  1  0.59179000  0.14172000  0.24770000  1
  O  O54  1  0.90821000  0.85828000  0.74770000  1
  O  O55  1  0.94052000  0.09132000  0.80630000  1
