# generated using pymatgen
data_U2H14C15(NO2)6
_symmetry_space_group_name_H-M   'P 1'
_cell_length_a   11.46000000
_cell_length_b   14.94900000
_cell_length_c   19.96800000
_cell_angle_alpha   90.00000000
_cell_angle_beta   90.00000000
_cell_angle_gamma   99.62800000
_symmetry_Int_Tables_number   1
_chemical_formula_structural   U2H14C15(NO2)6
_chemical_formula_sum   'U8 H56 C60 N24 O48'
_cell_volume   3372.64434893
_cell_formula_units_Z   4
loop_
 _symmetry_equiv_pos_site_id
 _symmetry_equiv_pos_as_xyz
  1  'x, y, z'
loop_
 _atom_site_type_symbol
 _atom_site_label
 _atom_site_symmetry_multiplicity
 _atom_site_fract_x
 _atom_site_fract_y
 _atom_site_fract_z
 _atom_site_occupancy
  U  U0  1  0.76705000  0.64409000  0.03271000  1
  U  U1  1  0.75448000  0.41290000  0.38653000  1
  U  U2  1  0.74552000  0.08709000  0.88653000  1
  U  U3  1  0.73295000  0.85591000  0.53271000  1
  U  U4  1  0.26705000  0.14409000  0.46729000  1
  U  U5  1  0.25448000  0.91290000  0.11347000  1
  U  U6  1  0.24552000  0.58710000  0.61347000  1
  U  U7  1  0.23295000  0.35591000  0.96729000  1
  H  H8  1  0.97860000  0.90940000  0.38620000  1
  H  H9  1  0.97750000  0.37490000  0.71590000  1
  H  H10  1  0.97750000  0.49500000  0.10680000  1
  H  H11  1  0.95020000  0.23230000  0.71970000  1
  H  H12  1  0.94060000  0.39620000  0.25700000  1
  H  H13  1  0.93840000  0.99810000  0.77780000  1
  H  H14  1  0.91920000  0.51800000  0.60160000  1
  H  H15  1  0.91880000  0.95320000  0.09640000  1
  H  H16  1  0.89880000  0.44670000  0.87790000  1
  H  H17  1  0.89580000  0.98180000  0.39660000  1
  H  H18  1  0.89560000  0.60570000  0.56420000  1
  H  H19  1  0.87860000  0.43280000  0.19550000  1
  H  H20  1  0.86480000  0.99780000  0.71170000  1
  H  H21  1  0.85180000  0.96250000  0.02890000  1
  H  H22  1  0.64820000  0.53750000  0.52890000  1
  H  H23  1  0.63520000  0.50220000  0.21170000  1
  H  H24  1  0.62140000  0.06720000  0.69550000  1
  H  H25  1  0.60440000  0.89430000  0.06420000  1
  H  H26  1  0.60420000  0.51820000  0.89660000  1
  H  H27  1  0.60120000  0.05330000  0.37790000  1
  H  H28  1  0.58120000  0.54680000  0.59640000  1
  H  H29  1  0.58080000  0.98200000  0.10160000  1
  H  H30  1  0.56160000  0.50190000  0.27780000  1
  H  H31  1  0.55940000  0.10380000  0.75700000  1
  H  H32  1  0.54980000  0.26770000  0.21970000  1
  H  H33  1  0.52250000  0.00500000  0.60680000  1
  H  H34  1  0.52250000  0.12510000  0.21590000  1
  H  H35  1  0.52140000  0.59060000  0.88620000  1
  H  H36  1  0.47860000  0.40940000  0.11380000  1
  H  H37  1  0.47750000  0.87490000  0.78410000  1
  H  H38  1  0.47750000  0.99500000  0.39320000  1
  H  H39  1  0.45020000  0.73230000  0.78030000  1
  H  H40  1  0.44060000  0.89620000  0.24300000  1
  H  H41  1  0.43840000  0.49810000  0.72220000  1
  H  H42  1  0.41920000  0.01800000  0.89840000  1
  H  H43  1  0.41880000  0.45320000  0.40360000  1
  H  H44  1  0.39880000  0.94670000  0.62210000  1
  H  H45  1  0.39580000  0.48180000  0.10340000  1
  H  H46  1  0.39560000  0.10570000  0.93580000  1
  H  H47  1  0.37860000  0.93280000  0.30450000  1
  H  H48  1  0.36480000  0.49780000  0.78830000  1
  H  H49  1  0.35180000  0.46250000  0.47110000  1
  H  H50  1  0.14820000  0.03750000  0.97110000  1
  H  H51  1  0.13520000  0.00220000  0.28830000  1
  H  H52  1  0.12140000  0.56720000  0.80450000  1
  H  H53  1  0.10440000  0.39430000  0.43580000  1
  H  H54  1  0.10420000  0.01820000  0.60340000  1
  H  H55  1  0.10120000  0.55330000  0.12210000  1
  H  H56  1  0.08120000  0.04680000  0.90360000  1
  H  H57  1  0.08080000  0.48200000  0.39840000  1
  H  H58  1  0.06160000  0.00190000  0.22220000  1
  H  H59  1  0.05940000  0.60380000  0.74300000  1
  H  H60  1  0.04980000  0.76770000  0.28030000  1
  H  H61  1  0.02250000  0.50500000  0.89320000  1
  H  H62  1  0.02250000  0.62510000  0.28410000  1
  H  H63  1  0.02140000  0.09060000  0.61380000  1
  C  C64  1  0.96930000  0.97140000  0.37640000  1
  C  C65  1  0.94440000  0.44690000  0.22640000  1
  C  C66  1  0.94220000  0.50820000  0.87920000  1
  C  C67  1  0.93460000  0.02820000  0.73500000  1
  C  C68  1  0.93080000  0.96570000  0.59290000  1
  C  C69  1  0.92810000  0.53030000  0.26640000  1
  C  C70  1  0.92080000  0.12570000  0.74770000  1
  C  C71  1  0.88650000  0.56050000  0.93110000  1
  C  C72  1  0.86310000  0.54280000  0.57370000  1
  C  C73  1  0.85440000  0.97080000  0.27340000  1
  C  C74  1  0.84530000  0.93340000  0.07250000  1
  C  C75  1  0.84490000  0.49070000  0.50970000  1
  C  C76  1  0.84290000  0.53900000  0.77630000  1
  C  C77  1  0.82810000  0.83220000  0.06320000  1
  C  C78  1  0.75050000  0.53980000  0.67790000  1
  C  C79  1  0.74950000  0.96020000  0.17790000  1
  C  C80  1  0.67190000  0.66780000  0.56320000  1
  C  C81  1  0.65710000  0.96100000  0.27630000  1
  C  C82  1  0.65510000  0.00930000  0.00970000  1
  C  C83  1  0.65470000  0.56660000  0.57250000  1
  C  C84  1  0.64560000  0.52920000  0.77340000  1
  C  C85  1  0.63690000  0.95720000  0.07370000  1
  C  C86  1  0.61350000  0.93950000  0.43110000  1
  C  C87  1  0.57920000  0.37430000  0.24770000  1
  C  C88  1  0.57190000  0.96970000  0.76640000  1
  C  C89  1  0.56920000  0.53430000  0.09290000  1
  C  C90  1  0.56540000  0.47180000  0.23500000  1
  C  C91  1  0.55780000  0.99180000  0.37920000  1
  C  C92  1  0.55560000  0.05310000  0.72640000  1
  C  C93  1  0.53070000  0.52860000  0.87640000  1
  C  C94  1  0.46930000  0.47140000  0.12360000  1
  C  C95  1  0.44440000  0.94690000  0.27360000  1
  C  C96  1  0.44220000  0.00820000  0.62080000  1
  C  C97  1  0.43460000  0.52820000  0.76500000  1
  C  C98  1  0.43080000  0.46570000  0.90710000  1
  C  C99  1  0.42810000  0.03030000  0.23360000  1
  C  C100  1  0.42080000  0.62570000  0.75230000  1
  C  C101  1  0.38650000  0.06050000  0.56890000  1
  C  C102  1  0.36310000  0.04280000  0.92630000  1
  C  C103  1  0.35440000  0.47080000  0.22660000  1
  C  C104  1  0.34530000  0.43340000  0.42750000  1
  C  C105  1  0.34490000  0.99070000  0.99030000  1
  C  C106  1  0.34290000  0.03900000  0.72370000  1
  C  C107  1  0.32810000  0.33220000  0.43680000  1
  C  C108  1  0.25050000  0.03980000  0.82210000  1
  C  C109  1  0.24950000  0.46020000  0.32210000  1
  C  C110  1  0.17190000  0.16780000  0.93680000  1
  C  C111  1  0.15710000  0.46100000  0.22370000  1
  C  C112  1  0.15510000  0.50930000  0.49030000  1
  C  C113  1  0.15470000  0.06660000  0.92750000  1
  C  C114  1  0.14560000  0.02920000  0.72660000  1
  C  C115  1  0.13690000  0.45720000  0.42630000  1
  C  C116  1  0.11350000  0.43950000  0.06890000  1
  C  C117  1  0.07920000  0.87430000  0.25230000  1
  C  C118  1  0.07190000  0.46970000  0.73360000  1
  C  C119  1  0.06920000  0.03430000  0.40710000  1
  C  C120  1  0.06540000  0.97180000  0.26500000  1
  C  C121  1  0.05780000  0.49180000  0.12080000  1
  C  C122  1  0.05560000  0.55310000  0.77360000  1
  C  C123  1  0.03070000  0.02860000  0.62360000  1
  N  N124  1  0.96190000  0.98240000  0.30380000  1
  N  N125  1  0.94620000  0.54540000  0.81150000  1
  N  N126  1  0.85590000  0.96350000  0.20660000  1
  N  N127  1  0.85330000  0.54310000  0.70910000  1
  N  N128  1  0.75810000  0.97000000  0.31150000  1
  N  N129  1  0.75110000  0.53810000  0.60930000  1
  N  N130  1  0.74890000  0.96190000  0.10930000  1
  N  N131  1  0.74190000  0.53000000  0.81150000  1
  N  N132  1  0.64670000  0.95690000  0.20910000  1
  N  N133  1  0.64410000  0.53650000  0.70660000  1
  N  N134  1  0.55380000  0.95460000  0.31150000  1
  N  N135  1  0.53810000  0.51760000  0.80380000  1
  N  N136  1  0.46190000  0.48240000  0.19620000  1
  N  N137  1  0.44620000  0.04540000  0.68850000  1
  N  N138  1  0.35590000  0.46350000  0.29340000  1
  N  N139  1  0.35330000  0.04310000  0.79090000  1
  N  N140  1  0.25810000  0.47000000  0.18850000  1
  N  N141  1  0.25110000  0.03810000  0.89070000  1
  N  N142  1  0.24890000  0.46190000  0.39070000  1
  N  N143  1  0.24190000  0.03000000  0.68850000  1
  N  N144  1  0.14670000  0.45690000  0.29090000  1
  N  N145  1  0.14410000  0.03650000  0.79340000  1
  N  N146  1  0.05380000  0.45460000  0.18850000  1
  N  N147  1  0.03810000  0.01760000  0.69620000  1
  O  O148  1  0.98270000  0.60400000  0.25190000  1
  O  O149  1  0.98150000  0.18680000  0.71820000  1
  O  O150  1  0.91140000  0.64450000  0.93766000  1
  O  O151  1  0.90260000  0.88420000  0.61120000  1
  O  O152  1  0.89600000  0.79770000  0.02415000  1
  O  O153  1  0.88570000  0.52640000  0.45555000  1
  O  O154  1  0.87320000  0.99560000  0.54710000  1
  O  O155  1  0.85080000  0.51640000  0.31342000  1
  O  O156  1  0.83800000  0.13680000  0.78970000  1
  O  O157  1  0.81620000  0.51540000  0.97210000  1
  O  O158  1  0.78470000  0.41260000  0.50920000  1
  O  O159  1  0.75540000  0.71770000  0.59300000  1
  O  O160  1  0.74460000  0.78230000  0.09300000  1
  O  O161  1  0.71530000  0.08740000  0.00920000  1
  O  O162  1  0.68380000  0.98460000  0.47210000  1
  O  O163  1  0.66200000  0.36320000  0.28970000  1
  O  O164  1  0.64920000  0.98360000  0.81342000  1
  O  O165  1  0.62680000  0.50440000  0.04710000  1
  O  O166  1  0.61430000  0.97360000  0.95555000  1
  O  O167  1  0.60400000  0.70230000  0.52415000  1
  O  O168  1  0.59740000  0.61580000  0.11120000  1
  O  O169  1  0.58860000  0.85550000  0.43766000  1
  O  O170  1  0.51850000  0.31320000  0.21820000  1
  O  O171  1  0.51730000  0.89600000  0.75190000  1
  O  O172  1  0.48270000  0.10400000  0.24810000  1
  O  O173  1  0.48150000  0.68680000  0.78180000  1
  O  O174  1  0.41140000  0.14450000  0.56234000  1
  O  O175  1  0.40260000  0.38420000  0.88880000  1
  O  O176  1  0.39600000  0.29770000  0.47585000  1
  O  O177  1  0.38570000  0.02640000  0.04445000  1
  O  O178  1  0.37320000  0.49560000  0.95290000  1
  O  O179  1  0.35080000  0.01640000  0.18658000  1
  O  O180  1  0.33800000  0.63680000  0.71030000  1
  O  O181  1  0.31620000  0.01540000  0.52790000  1
  O  O182  1  0.28470000  0.91260000  0.99080000  1
  O  O183  1  0.25540000  0.21770000  0.90700000  1
  O  O184  1  0.24460000  0.28230000  0.40700000  1
  O  O185  1  0.21530000  0.58740000  0.49080000  1
  O  O186  1  0.18380000  0.48460000  0.02790000  1
  O  O187  1  0.16200000  0.86320000  0.21030000  1
  O  O188  1  0.14920000  0.48360000  0.68658000  1
  O  O189  1  0.12680000  0.00440000  0.45290000  1
  O  O190  1  0.11430000  0.47360000  0.54445000  1
  O  O191  1  0.10400000  0.20230000  0.97585000  1
  O  O192  1  0.09740000  0.11580000  0.38880000  1
  O  O193  1  0.08860000  0.35550000  0.06234000  1
  O  O194  1  0.01850000  0.81320000  0.28180000  1
  O  O195  1  0.01730000  0.39600000  0.74810000  1
