# generated using pymatgen
data_Na6EuH24C40S8N8ClO36
_symmetry_space_group_name_H-M   'P 1'
_cell_length_a   12.26500000
_cell_length_b   12.26500000
_cell_length_c   12.42100000
_cell_angle_alpha   90.00000000
_cell_angle_beta   90.00000000
_cell_angle_gamma   90.00000000
_symmetry_Int_Tables_number   1
_chemical_formula_structural   Na6EuH24C40S8N8ClO36
_chemical_formula_sum   'Na6 Eu1 H24 C40 S8 N8 Cl1 O36'
_cell_volume   1868.49382472
_cell_formula_units_Z   1
loop_
 _symmetry_equiv_pos_site_id
 _symmetry_equiv_pos_as_xyz
  1  'x, y, z'
loop_
 _atom_site_type_symbol
 _atom_site_label
 _atom_site_symmetry_multiplicity
 _atom_site_fract_x
 _atom_site_fract_y
 _atom_site_fract_z
 _atom_site_occupancy
  Na  Na0  1  0.00000000  0.50000000  0.48800000  1
  Na  Na1  1  0.27240000  0.47110000  0.50920000  1
  Na  Na2  1  0.47110000  0.72760000  0.49080000  1
  Na  Na3  1  0.50000000  0.00000000  0.51200000  1
  Na  Na4  1  0.52890000  0.27240000  0.49080000  1
  Na  Na5  1  0.72760000  0.52890000  0.50920000  1
  Eu  Eu6  1  0.00000000  0.00000000  0.00000000  1
  H  H7  1  0.02040000  0.60850000  0.26740000  1
  H  H8  1  0.05550000  0.22210000  0.40220000  1
  H  H9  1  0.10720000  0.71990000  0.87680000  1
  H  H10  1  0.11710000  0.64940000  0.70500000  1
  H  H11  1  0.15440000  0.27640000  0.87610000  1
  H  H12  1  0.22210000  0.94450000  0.59780000  1
  H  H13  1  0.27640000  0.84560000  0.12390000  1
  H  H14  1  0.28010000  0.10720000  0.12320000  1
  H  H15  1  0.32550000  0.66630000  0.16180000  1
  H  H16  1  0.33370000  0.32550000  0.83820000  1
  H  H17  1  0.35060000  0.11710000  0.29500000  1
  H  H18  1  0.39150000  0.02040000  0.73260000  1
  H  H19  1  0.60850000  0.97960000  0.73260000  1
  H  H20  1  0.64940000  0.88290000  0.29500000  1
  H  H21  1  0.66630000  0.67450000  0.83820000  1
  H  H22  1  0.67450000  0.33370000  0.16180000  1
  H  H23  1  0.71990000  0.89280000  0.12320000  1
  H  H24  1  0.72360000  0.15440000  0.12390000  1
  H  H25  1  0.77790000  0.05550000  0.59780000  1
  H  H26  1  0.84560000  0.72360000  0.87610000  1
  H  H27  1  0.88290000  0.35060000  0.70500000  1
  H  H28  1  0.89280000  0.28010000  0.87680000  1
  H  H29  1  0.94450000  0.77790000  0.40220000  1
  H  H30  1  0.97960000  0.39150000  0.26740000  1
  C  C31  1  0.04440000  0.76340000  0.21330000  1
  C  C32  1  0.06480000  0.19520000  0.24060000  1
  C  C33  1  0.07370000  0.65680000  0.23900000  1
  C  C34  1  0.10250000  0.19970000  0.34560000  1
  C  C35  1  0.13210000  0.76470000  0.81940000  1
  C  C36  1  0.13680000  0.72320000  0.71800000  1
  C  C37  1  0.17090000  0.78980000  0.63270000  1
  C  C38  1  0.17890000  0.62050000  0.22370000  1
  C  C39  1  0.19520000  0.93520000  0.75940000  1
  C  C40  1  0.19970000  0.89750000  0.65440000  1
  C  C41  1  0.20290000  0.22390000  0.84650000  1
  C  C42  1  0.21020000  0.17090000  0.36730000  1
  C  C43  1  0.22390000  0.79710000  0.15350000  1
  C  C44  1  0.23530000  0.13210000  0.18060000  1
  C  C45  1  0.23660000  0.04440000  0.78670000  1
  C  C46  1  0.25380000  0.69090000  0.17730000  1
  C  C47  1  0.27680000  0.13680000  0.28200000  1
  C  C48  1  0.30910000  0.25380000  0.82270000  1
  C  C49  1  0.34320000  0.07370000  0.76100000  1
  C  C50  1  0.37950000  0.17890000  0.77630000  1
  C  C51  1  0.62050000  0.82110000  0.77630000  1
  C  C52  1  0.65680000  0.92630000  0.76100000  1
  C  C53  1  0.69090000  0.74620000  0.82270000  1
  C  C54  1  0.72320000  0.86320000  0.28200000  1
  C  C55  1  0.74620000  0.30910000  0.17730000  1
  C  C56  1  0.76340000  0.95560000  0.78670000  1
  C  C57  1  0.76470000  0.86790000  0.18060000  1
  C  C58  1  0.77610000  0.20290000  0.15350000  1
  C  C59  1  0.78980000  0.82910000  0.36730000  1
  C  C60  1  0.79710000  0.77610000  0.84650000  1
  C  C61  1  0.80030000  0.10250000  0.65440000  1
  C  C62  1  0.80480000  0.06480000  0.75940000  1
  C  C63  1  0.82110000  0.37950000  0.22370000  1
  C  C64  1  0.82910000  0.21020000  0.63270000  1
  C  C65  1  0.86320000  0.27680000  0.71800000  1
  C  C66  1  0.86790000  0.23530000  0.81940000  1
  C  C67  1  0.89750000  0.80030000  0.34560000  1
  C  C68  1  0.92630000  0.34320000  0.23900000  1
  C  C69  1  0.93520000  0.80480000  0.24060000  1
  C  C70  1  0.95560000  0.23660000  0.21330000  1
  S  S71  1  0.18276000  0.73529000  0.50030000  1
  S  S72  1  0.21272000  0.48511000  0.26130000  1
  S  S73  1  0.26471000  0.18276000  0.49970000  1
  S  S74  1  0.48511000  0.78728000  0.73870000  1
  S  S75  1  0.51489000  0.21272000  0.73870000  1
  S  S76  1  0.73529000  0.81724000  0.49970000  1
  S  S77  1  0.78728000  0.51489000  0.26130000  1
  S  S78  1  0.81724000  0.26471000  0.50030000  1
  N  N79  1  0.12190000  0.83250000  0.17170000  1
  N  N80  1  0.13180000  0.16200000  0.16050000  1
  N  N81  1  0.16200000  0.86820000  0.83950000  1
  N  N82  1  0.16750000  0.12190000  0.82830000  1
  N  N83  1  0.83250000  0.87810000  0.82830000  1
  N  N84  1  0.83800000  0.13180000  0.83950000  1
  N  N85  1  0.86820000  0.83800000  0.16050000  1
  N  N86  1  0.87810000  0.16750000  0.17170000  1
  Cl  Cl87  1  0.50000000  0.50000000  0.50000000  1
  O  O88  1  0.06610000  0.09670000  0.84520000  1
  O  O89  1  0.08590000  0.66980000  0.48680000  1
  O  O90  1  0.09520000  0.15740000  0.06020000  1
  O  O91  1  0.09670000  0.93390000  0.15480000  1
  O  O92  1  0.11600000  0.41560000  0.61550000  1
  O  O93  1  0.14070000  0.45900000  0.34950000  1
  O  O94  1  0.15740000  0.90480000  0.93980000  1
  O  O95  1  0.17210000  0.18980000  0.57150000  1
  O  O96  1  0.18980000  0.82790000  0.42850000  1
  O  O97  1  0.19520000  0.41760000  0.16820000  1
  O  O98  1  0.28220000  0.66970000  0.50200000  1
  O  O99  1  0.32490000  0.49090000  0.29600000  1
  O  O100  1  0.33020000  0.08590000  0.51320000  1
  O  O101  1  0.33030000  0.28220000  0.49800000  1
  O  O102  1  0.41560000  0.88400000  0.38450000  1
  O  O103  1  0.41760000  0.80480000  0.83180000  1
  O  O104  1  0.45900000  0.85930000  0.65050000  1
  O  O105  1  0.49090000  0.67510000  0.70400000  1
  O  O106  1  0.50910000  0.32490000  0.70400000  1
  O  O107  1  0.54100000  0.14070000  0.65050000  1
  O  O108  1  0.58240000  0.19520000  0.83180000  1
  O  O109  1  0.58440000  0.11600000  0.38450000  1
  O  O110  1  0.66970000  0.71780000  0.49800000  1
  O  O111  1  0.66980000  0.91410000  0.51320000  1
  O  O112  1  0.67510000  0.50910000  0.29600000  1
  O  O113  1  0.71780000  0.33030000  0.50200000  1
  O  O114  1  0.80480000  0.58240000  0.16820000  1
  O  O115  1  0.81020000  0.17210000  0.42850000  1
  O  O116  1  0.82790000  0.81020000  0.57150000  1
  O  O117  1  0.84260000  0.09520000  0.93980000  1
  O  O118  1  0.85930000  0.54100000  0.34950000  1
  O  O119  1  0.88400000  0.58440000  0.61550000  1
  O  O120  1  0.90330000  0.06610000  0.15480000  1
  O  O121  1  0.90480000  0.84260000  0.06020000  1
  O  O122  1  0.91410000  0.33020000  0.48680000  1
  O  O123  1  0.93390000  0.90330000  0.84520000  1
