# generated using pymatgen
data_CdH18C18(NO)4
_symmetry_space_group_name_H-M   'P 1'
_cell_length_a   12.12290000
_cell_length_b   12.60990000
_cell_length_c   14.28190000
_cell_angle_alpha   98.41000000
_cell_angle_beta   90.00000000
_cell_angle_gamma   90.00000000
_symmetry_Int_Tables_number   1
_chemical_formula_structural   CdH18C18(NO)4
_chemical_formula_sum   'Cd4 H72 C72 N16 O16'
_cell_volume   2159.77652634
_cell_formula_units_Z   4
loop_
 _symmetry_equiv_pos_site_id
 _symmetry_equiv_pos_as_xyz
  1  'x, y, z'
loop_
 _atom_site_type_symbol
 _atom_site_label
 _atom_site_symmetry_multiplicity
 _atom_site_fract_x
 _atom_site_fract_y
 _atom_site_fract_z
 _atom_site_occupancy
  Cd  Cd0  1  0.04634000  0.53475000  0.88046000  1
  Cd  Cd1  1  0.45366000  0.53475000  0.38046000  1
  Cd  Cd2  1  0.54634000  0.46525000  0.61954000  1
  Cd  Cd3  1  0.95366000  0.46525000  0.11954000  1
  H  H4  1  0.02830000  0.79170000  0.88850000  1
  H  H5  1  0.06530000  0.27710000  0.86600000  1
  H  H6  1  0.06710000  0.34960000  0.34940000  1
  H  H7  1  0.10030000  0.86460000  0.08990000  1
  H  H8  1  0.12280000  0.17360000  0.34750000  1
  H  H9  1  0.15760000  0.26910000  0.60430000  1
  H  H10  1  0.16210000  0.77230000  0.68910000  1
  H  H11  1  0.16390000  0.92700000  0.01940000  1
  H  H12  1  0.19680000  0.48280000  0.35770000  1
  H  H13  1  0.20000000  0.01780000  0.40760000  1
  H  H14  1  0.20290000  0.00090000  0.29670000  1
  H  H15  1  0.20310000  0.61280000  0.57980000  1
  H  H16  1  0.20570000  0.93140000  0.12370000  1
  H  H17  1  0.21460000  0.93820000  0.85300000  1
  H  H18  1  0.21780000  0.40600000  0.10590000  1
  H  H19  1  0.22020000  0.09620000  0.60670000  1
  H  H20  1  0.22200000  0.75970000  0.23470000  1
  H  H21  1  0.22810000  0.71420000  0.06500000  1
  H  H22  1  0.27190000  0.71420000  0.56500000  1
  H  H23  1  0.27800000  0.75970000  0.73470000  1
  H  H24  1  0.27980000  0.09620000  0.10670000  1
  H  H25  1  0.28220000  0.40600000  0.60590000  1
  H  H26  1  0.28540000  0.93820000  0.35300000  1
  H  H27  1  0.29430000  0.93140000  0.62370000  1
  H  H28  1  0.29690000  0.61280000  0.07980000  1
  H  H29  1  0.29710000  0.00090000  0.79670000  1
  H  H30  1  0.30000000  0.01780000  0.90760000  1
  H  H31  1  0.30320000  0.48280000  0.85770000  1
  H  H32  1  0.33610000  0.92700000  0.51940000  1
  H  H33  1  0.33790000  0.77230000  0.18910000  1
  H  H34  1  0.34240000  0.26910000  0.10430000  1
  H  H35  1  0.37720000  0.17360000  0.84750000  1
  H  H36  1  0.39970000  0.86460000  0.58990000  1
  H  H37  1  0.43290000  0.34960000  0.84940000  1
  H  H38  1  0.43470000  0.27710000  0.36600000  1
  H  H39  1  0.47170000  0.79170000  0.38850000  1
  H  H40  1  0.52830000  0.20830000  0.61150000  1
  H  H41  1  0.56530000  0.72290000  0.63400000  1
  H  H42  1  0.56710000  0.65040000  0.15060000  1
  H  H43  1  0.60030000  0.13540000  0.41010000  1
  H  H44  1  0.62280000  0.82640000  0.15250000  1
  H  H45  1  0.65760000  0.73090000  0.89570000  1
  H  H46  1  0.66210000  0.22770000  0.81090000  1
  H  H47  1  0.66390000  0.07300000  0.48060000  1
  H  H48  1  0.69680000  0.51720000  0.14230000  1
  H  H49  1  0.70000000  0.98220000  0.09240000  1
  H  H50  1  0.70290000  0.99910000  0.20330000  1
  H  H51  1  0.70310000  0.38720000  0.92020000  1
  H  H52  1  0.70570000  0.06860000  0.37630000  1
  H  H53  1  0.71460000  0.06180000  0.64700000  1
  H  H54  1  0.71780000  0.59400000  0.39410000  1
  H  H55  1  0.72020000  0.90380000  0.89330000  1
  H  H56  1  0.72200000  0.24030000  0.26530000  1
  H  H57  1  0.72810000  0.28580000  0.43500000  1
  H  H58  1  0.77190000  0.28580000  0.93500000  1
  H  H59  1  0.77800000  0.24030000  0.76530000  1
  H  H60  1  0.77980000  0.90380000  0.39330000  1
  H  H61  1  0.78220000  0.59400000  0.89410000  1
  H  H62  1  0.78540000  0.06180000  0.14700000  1
  H  H63  1  0.79430000  0.06860000  0.87630000  1
  H  H64  1  0.79690000  0.38720000  0.42020000  1
  H  H65  1  0.79710000  0.99910000  0.70330000  1
  H  H66  1  0.80000000  0.98220000  0.59240000  1
  H  H67  1  0.80320000  0.51720000  0.64230000  1
  H  H68  1  0.83610000  0.07300000  0.98060000  1
  H  H69  1  0.83790000  0.22770000  0.31090000  1
  H  H70  1  0.84240000  0.73090000  0.39570000  1
  H  H71  1  0.87720000  0.82640000  0.65250000  1
  H  H72  1  0.89970000  0.13540000  0.91010000  1
  H  H73  1  0.93290000  0.65040000  0.65060000  1
  H  H74  1  0.93470000  0.72290000  0.13400000  1
  H  H75  1  0.97170000  0.20830000  0.11150000  1
  C  C76  1  0.04733000  0.22045000  0.11071000  1
  C  C77  1  0.07118000  0.02478000  0.11386000  1
  C  C78  1  0.11731000  0.13353000  0.11103000  1
  C  C79  1  0.13544000  0.60092000  0.11688000  1
  C  C80  1  0.14037000  0.29125000  0.86255000  1
  C  C81  1  0.14160000  0.92829000  0.08410000  1
  C  C82  1  0.14165000  0.33299000  0.35242000  1
  C  C83  1  0.16738000  0.64804000  0.76585000  1
  C  C84  1  0.17125000  0.09411000  0.85548000  1
  C  C85  1  0.17479000  0.22829000  0.35131000  1
  C  C86  1  0.19181000  0.33675000  0.10695000  1
  C  C87  1  0.21349000  0.20519000  0.85599000  1
  C  C88  1  0.21724000  0.72040000  0.70167000  1
  C  C89  1  0.21979000  0.41250000  0.35807000  1
  C  C90  1  0.22998000  0.15245000  0.10772000  1
  C  C91  1  0.23281000  0.25502000  0.60602000  1
  C  C92  1  0.24063000  0.66225000  0.10768000  1
  C  C93  1  0.24690000  0.00470000  0.35300000  1
  C  C94  1  0.25310000  0.00470000  0.85300000  1
  C  C95  1  0.25937000  0.66225000  0.60768000  1
  C  C96  1  0.26719000  0.25502000  0.10602000  1
  C  C97  1  0.27002000  0.15245000  0.60772000  1
  C  C98  1  0.28021000  0.41250000  0.85807000  1
  C  C99  1  0.28276000  0.72040000  0.20167000  1
  C  C100  1  0.28651000  0.20519000  0.35599000  1
  C  C101  1  0.30819000  0.33675000  0.60695000  1
  C  C102  1  0.32521000  0.22829000  0.85131000  1
  C  C103  1  0.32875000  0.09411000  0.35548000  1
  C  C104  1  0.33262000  0.64804000  0.26585000  1
  C  C105  1  0.35835000  0.33299000  0.85242000  1
  C  C106  1  0.35840000  0.92829000  0.58410000  1
  C  C107  1  0.35963000  0.29125000  0.36255000  1
  C  C108  1  0.36456000  0.60092000  0.61688000  1
  C  C109  1  0.38269000  0.13353000  0.61103000  1
  C  C110  1  0.42882000  0.02478000  0.61386000  1
  C  C111  1  0.45267000  0.22045000  0.61071000  1
  C  C112  1  0.54733000  0.77955000  0.38929000  1
  C  C113  1  0.57118000  0.97522000  0.38614000  1
  C  C114  1  0.61731000  0.86647000  0.38897000  1
  C  C115  1  0.63544000  0.39908000  0.38312000  1
  C  C116  1  0.64037000  0.70875000  0.63745000  1
  C  C117  1  0.64160000  0.07171000  0.41590000  1
  C  C118  1  0.64165000  0.66701000  0.14758000  1
  C  C119  1  0.66738000  0.35196000  0.73415000  1
  C  C120  1  0.67125000  0.90589000  0.64452000  1
  C  C121  1  0.67479000  0.77171000  0.14869000  1
  C  C122  1  0.69181000  0.66325000  0.39305000  1
  C  C123  1  0.71349000  0.79481000  0.64401000  1
  C  C124  1  0.71724000  0.27960000  0.79833000  1
  C  C125  1  0.71979000  0.58750000  0.14193000  1
  C  C126  1  0.72998000  0.84755000  0.39228000  1
  C  C127  1  0.73281000  0.74498000  0.89398000  1
  C  C128  1  0.74063000  0.33775000  0.39232000  1
  C  C129  1  0.74690000  0.99530000  0.14700000  1
  C  C130  1  0.75310000  0.99530000  0.64700000  1
  C  C131  1  0.75937000  0.33775000  0.89232000  1
  C  C132  1  0.76719000  0.74498000  0.39398000  1
  C  C133  1  0.77002000  0.84755000  0.89228000  1
  C  C134  1  0.78021000  0.58750000  0.64193000  1
  C  C135  1  0.78276000  0.27960000  0.29833000  1
  C  C136  1  0.78651000  0.79481000  0.14401000  1
  C  C137  1  0.80819000  0.66325000  0.89305000  1
  C  C138  1  0.82521000  0.77171000  0.64869000  1
  C  C139  1  0.82875000  0.90589000  0.14452000  1
  C  C140  1  0.83262000  0.35196000  0.23415000  1
  C  C141  1  0.85835000  0.66701000  0.64758000  1
  C  C142  1  0.85840000  0.07171000  0.91590000  1
  C  C143  1  0.85963000  0.70875000  0.13745000  1
  C  C144  1  0.86456000  0.39908000  0.88312000  1
  C  C145  1  0.88269000  0.86647000  0.88897000  1
  C  C146  1  0.92882000  0.97522000  0.88614000  1
  C  C147  1  0.95267000  0.77955000  0.88929000  1
  N  N148  1  0.02932000  0.97903000  0.85983000  1
  N  N149  1  0.06754000  0.08442000  0.85954000  1
  N  N150  1  0.08232000  0.32089000  0.10925000  1
  N  N151  1  0.17195000  0.39267000  0.86410000  1
  N  N152  1  0.32805000  0.39267000  0.36410000  1
  N  N153  1  0.41768000  0.32089000  0.60925000  1
  N  N154  1  0.43246000  0.08442000  0.35954000  1
  N  N155  1  0.47068000  0.97903000  0.35983000  1
  N  N156  1  0.52932000  0.02097000  0.64017000  1
  N  N157  1  0.56754000  0.91558000  0.64046000  1
  N  N158  1  0.58232000  0.67911000  0.39075000  1
  N  N159  1  0.67195000  0.60733000  0.63590000  1
  N  N160  1  0.82805000  0.60733000  0.13590000  1
  N  N161  1  0.91768000  0.67911000  0.89075000  1
  N  N162  1  0.93246000  0.91558000  0.14046000  1
  N  N163  1  0.97068000  0.02097000  0.14017000  1
  O  O164  1  0.08304000  0.56448000  0.04255000  1
  O  O165  1  0.10204000  0.58343000  0.19551000  1
  O  O166  1  0.10360000  0.57415000  0.73103000  1
  O  O167  1  0.18516000  0.66666667  0.85342000  1
  O  O168  1  0.31484000  0.66666667  0.35342000  1
  O  O169  1  0.39640000  0.57415000  0.23103000  1
  O  O170  1  0.39796000  0.58343000  0.69551000  1
  O  O171  1  0.41696000  0.56448000  0.54255000  1
  O  O172  1  0.58304000  0.43552000  0.45745000  1
  O  O173  1  0.60204000  0.41657000  0.30449000  1
  O  O174  1  0.60360000  0.42585000  0.76897000  1
  O  O175  1  0.68516000  0.33333333  0.64658000  1
  O  O176  1  0.81484000  0.33333333  0.14658000  1
  O  O177  1  0.89640000  0.42585000  0.26897000  1
  O  O178  1  0.89796000  0.41657000  0.80449000  1
  O  O179  1  0.91696000  0.43552000  0.95745000  1
