# generated using pymatgen
data_Dy2H12C15(NO2)6
_symmetry_space_group_name_H-M   'P 1'
_cell_length_a   10.56210000
_cell_length_b   10.56210000
_cell_length_c   14.80200000
_cell_angle_alpha   90.59680000
_cell_angle_beta   90.59680000
_cell_angle_gamma   105.76100000
_symmetry_Int_Tables_number   1
_chemical_formula_structural   Dy2H12C15(NO2)6
_chemical_formula_sum   'Dy4 H24 C30 N12 O24'
_cell_volume   1588.96110941
_cell_formula_units_Z   2
loop_
 _symmetry_equiv_pos_site_id
 _symmetry_equiv_pos_as_xyz
  1  'x, y, z'
loop_
 _atom_site_type_symbol
 _atom_site_label
 _atom_site_symmetry_multiplicity
 _atom_site_fract_x
 _atom_site_fract_y
 _atom_site_fract_z
 _atom_site_occupancy
  Dy  Dy0  1  0.42673000  0.82357000  0.44291000  1
  Dy  Dy1  1  0.17643000  0.57327000  0.05709000  1
  Dy  Dy2  1  0.82357000  0.42673000  0.94291000  1
  Dy  Dy3  1  0.57327000  0.17643000  0.55709000  1
  H  H4  1  0.35340000  0.94700000  0.74560000  1
  H  H5  1  0.20920000  0.93900000  0.71360000  1
  H  H6  1  0.67530000  0.88770000  0.75280000  1
  H  H7  1  0.79330000  0.86110000  0.69990000  1
  H  H8  1  0.65640000  0.80200000  0.17010000  1
  H  H9  1  0.86110000  0.79330000  0.19990000  1
  H  H10  1  0.06100000  0.79080000  0.78640000  1
  H  H11  1  0.88770000  0.67530000  0.25280000  1
  H  H12  1  0.53990000  0.67410000  0.15990000  1
  H  H13  1  0.80200000  0.65640000  0.67010000  1
  H  H14  1  0.05300000  0.64660000  0.75440000  1
  H  H15  1  0.67410000  0.53990000  0.65990000  1
  H  H16  1  0.32590000  0.46010000  0.34010000  1
  H  H17  1  0.94700000  0.35340000  0.24560000  1
  H  H18  1  0.19800000  0.34360000  0.32990000  1
  H  H19  1  0.46010000  0.32590000  0.84010000  1
  H  H20  1  0.11230000  0.32470000  0.74720000  1
  H  H21  1  0.93900000  0.20920000  0.21360000  1
  H  H22  1  0.13890000  0.20670000  0.80010000  1
  H  H23  1  0.34360000  0.19800000  0.82990000  1
  H  H24  1  0.20670000  0.13890000  0.30010000  1
  H  H25  1  0.32470000  0.11230000  0.24720000  1
  H  H26  1  0.79080000  0.06100000  0.28640000  1
  H  H27  1  0.64660000  0.05300000  0.25440000  1
  C  C28  1  0.65320000  0.89800000  0.61650000  1
  C  C29  1  0.27840000  0.89480000  0.71110000  1
  C  C30  1  0.31850000  0.88270000  0.61140000  1
  C  C31  1  0.69820000  0.84280000  0.70060000  1
  C  C32  1  0.55410000  0.75470000  0.28600000  1
  C  C33  1  0.10520000  0.72160000  0.78890000  1
  C  C34  1  0.61130000  0.72090000  0.19960000  1
  C  C35  1  0.84280000  0.69820000  0.20060000  1
  C  C36  1  0.31270000  0.68730000  0.75000000  1
  C  C37  1  0.11730000  0.68150000  0.88860000  1
  C  C38  1  0.51360000  0.65500000  0.73150000  1
  C  C39  1  0.89800000  0.65320000  0.11650000  1
  C  C40  1  0.72090000  0.61130000  0.69960000  1
  C  C41  1  0.75470000  0.55410000  0.78600000  1
  C  C42  1  0.65500000  0.51360000  0.23150000  1
  C  C43  1  0.34500000  0.48640000  0.76850000  1
  C  C44  1  0.24530000  0.44590000  0.21400000  1
  C  C45  1  0.27910000  0.38870000  0.30040000  1
  C  C46  1  0.10200000  0.34680000  0.88350000  1
  C  C47  1  0.48640000  0.34500000  0.26850000  1
  C  C48  1  0.88270000  0.31850000  0.11140000  1
  C  C49  1  0.68730000  0.31270000  0.25000000  1
  C  C50  1  0.15720000  0.30180000  0.79940000  1
  C  C51  1  0.38870000  0.27910000  0.80040000  1
  C  C52  1  0.89480000  0.27840000  0.21110000  1
  C  C53  1  0.44590000  0.24530000  0.71400000  1
  C  C54  1  0.30180000  0.15720000  0.29940000  1
  C  C55  1  0.68150000  0.11730000  0.38860000  1
  C  C56  1  0.72160000  0.10520000  0.28890000  1
  C  C57  1  0.34680000  0.10200000  0.38350000  1
  N  N58  1  0.23310000  0.76690000  0.75000000  1
  N  N59  1  0.44040000  0.74200000  0.73080000  1
  N  N60  1  0.64190000  0.70210000  0.71050000  1
  N  N61  1  0.70210000  0.64190000  0.21050000  1
  N  N62  1  0.25800000  0.55960000  0.76920000  1
  N  N63  1  0.47250000  0.52750000  0.75000000  1
  N  N64  1  0.52750000  0.47250000  0.25000000  1
  N  N65  1  0.74200000  0.44040000  0.23080000  1
  N  N66  1  0.29790000  0.35810000  0.78950000  1
  N  N67  1  0.35810000  0.29790000  0.28950000  1
  N  N68  1  0.55960000  0.25800000  0.26920000  1
  N  N69  1  0.76690000  0.23310000  0.25000000  1
  O  O70  1  0.31790000  0.97650000  0.38490000  1
  O  O71  1  0.40910000  0.97530000  0.58010000  1
  O  O72  1  0.59420000  0.82360000  0.55430000  1
  O  O73  1  0.45150000  0.79530000  0.27920000  1
  O  O74  1  0.26050000  0.78790000  0.56510000  1
  O  O75  1  0.60400000  0.74940000  0.36070000  1
  O  O76  1  0.21210000  0.73950000  0.93490000  1
  O  O77  1  0.02350000  0.68210000  0.11510000  1
  O  O78  1  0.74940000  0.60400000  0.86070000  1
  O  O79  1  0.82360000  0.59420000  0.05430000  1
  O  O80  1  0.02470000  0.59090000  0.91990000  1
  O  O81  1  0.20470000  0.54850000  0.22080000  1
  O  O82  1  0.79530000  0.45150000  0.77920000  1
  O  O83  1  0.97530000  0.40910000  0.08010000  1
  O  O84  1  0.17640000  0.40580000  0.94570000  1
  O  O85  1  0.25060000  0.39600000  0.13930000  1
  O  O86  1  0.97650000  0.31790000  0.88490000  1
  O  O87  1  0.78790000  0.26050000  0.06510000  1
  O  O88  1  0.39600000  0.25060000  0.63930000  1
  O  O89  1  0.73950000  0.21210000  0.43490000  1
  O  O90  1  0.54850000  0.20470000  0.72080000  1
  O  O91  1  0.40580000  0.17640000  0.44570000  1
  O  O92  1  0.59090000  0.02470000  0.41990000  1
  O  O93  1  0.68210000  0.02350000  0.61510000  1
