# generated using pymatgen
data_CoH14C17O6
_symmetry_space_group_name_H-M   'P 1'
_cell_length_a   10.53050000
_cell_length_b   13.84200000
_cell_length_c   14.13610705
_cell_angle_alpha   60.68584909
_cell_angle_beta   82.60514942
_cell_angle_gamma   74.75890000
_symmetry_Int_Tables_number   1
_chemical_formula_structural   CoH14C17O6
_chemical_formula_sum   'Co4 H56 C68 O24'
_cell_volume   1733.47831033
_cell_formula_units_Z   4
loop_
 _symmetry_equiv_pos_site_id
 _symmetry_equiv_pos_as_xyz
  1  'x, y, z'
loop_
 _atom_site_type_symbol
 _atom_site_label
 _atom_site_symmetry_multiplicity
 _atom_site_fract_x
 _atom_site_fract_y
 _atom_site_fract_z
 _atom_site_occupancy
  Co  Co0  1  0.75000000  0.58283000  0.83434000  1
  Co  Co1  1  0.50000000  0.50000000  0.00000000  1
  Co  Co2  1  0.25000000  0.41717000  0.16566000  1
  Co  Co3  1  1.00000000  0.50000000  0.00000000  1
  H  H4  1  0.98510000  0.20110000  0.70600000  1
  H  H5  1  0.96540000  0.80720000  0.18920000  1
  H  H6  1  0.95780000  0.07200000  0.59800000  1
  H  H7  1  0.94440000  0.73630000  0.02060000  1
  H  H8  1  0.92010000  0.81930000  0.54400000  1
  H  H9  1  0.88840000  0.36690000  0.72740000  1
  H  H10  1  0.84910000  0.97040000  0.20620000  1
  H  H11  1  0.83950000  0.92320000  0.70460000  1
  H  H12  1  0.83180000  0.92420000  0.95860000  1
  H  H13  1  0.82440000  0.45790000  0.38580000  1
  H  H14  1  0.81890000  0.29030000  0.83260000  1
  H  H15  1  0.79810000  0.26580000  0.24700000  1
  H  H16  1  0.78630000  0.03540000  0.71460000  1
  H  H17  1  0.76520000  0.70010000  0.14000000  1
  H  H18  1  0.73480000  0.15990000  0.14000000  1
  H  H19  1  0.71370000  0.25000000  0.71460000  1
  H  H20  1  0.70190000  0.48720000  0.24700000  1
  H  H21  1  0.68110000  0.87710000  0.83260000  1
  H  H22  1  0.67560000  0.15630000  0.38580000  1
  H  H23  1  0.66820000  0.11720000  0.95860000  1
  H  H24  1  0.66050000  0.37220000  0.70460000  1
  H  H25  1  0.65090000  0.82340000  0.20620000  1
  H  H26  1  0.61160000  0.90570000  0.72740000  1
  H  H27  1  0.57990000  0.63670000  0.54400000  1
  H  H28  1  0.55560000  0.24310000  0.02060000  1
  H  H29  1  0.54220000  0.33000000  0.59800000  1
  H  H30  1  0.53460000  0.00360000  0.18920000  1
  H  H31  1  0.51490000  0.09290000  0.70600000  1
  H  H32  1  0.48510000  0.90710000  0.29400000  1
  H  H33  1  0.46540000  0.99640000  0.81080000  1
  H  H34  1  0.45780000  0.67000000  0.40200000  1
  H  H35  1  0.44440000  0.75690000  0.97940000  1
  H  H36  1  0.42010000  0.36330000  0.45600000  1
  H  H37  1  0.38840000  0.09430000  0.27260000  1
  H  H38  1  0.34910000  0.17660000  0.79380000  1
  H  H39  1  0.33950000  0.62780000  0.29540000  1
  H  H40  1  0.33180000  0.88280000  0.04140000  1
  H  H41  1  0.32440000  0.84370000  0.61420000  1
  H  H42  1  0.31890000  0.12290000  0.16740000  1
  H  H43  1  0.29810000  0.51280000  0.75300000  1
  H  H44  1  0.28630000  0.75000000  0.28540000  1
  H  H45  1  0.26520000  0.84010000  0.86000000  1
  H  H46  1  0.23480000  0.29990000  0.86000000  1
  H  H47  1  0.21370000  0.96460000  0.28540000  1
  H  H48  1  0.20190000  0.73420000  0.75300000  1
  H  H49  1  0.18110000  0.70970000  0.16740000  1
  H  H50  1  0.17560000  0.54210000  0.61420000  1
  H  H51  1  0.16820000  0.07580000  0.04140000  1
  H  H52  1  0.16050000  0.07680000  0.29540000  1
  H  H53  1  0.15090000  0.02960000  0.79380000  1
  H  H54  1  0.11160000  0.63310000  0.27260000  1
  H  H55  1  0.07990000  0.18070000  0.45600000  1
  H  H56  1  0.05560000  0.26370000  0.97940000  1
  H  H57  1  0.04220000  0.92800000  0.40200000  1
  H  H58  1  0.03460000  0.19280000  0.81080000  1
  H  H59  1  0.01490000  0.79890000  0.29400000  1
  C  C60  1  0.99810000  0.17640000  0.44220000  1
  C  C61  1  0.98690000  0.79462000  0.97676000  1
  C  C62  1  0.98020000  0.99410000  0.87280000  1
  C  C63  1  0.97410000  0.68869000  0.75282000  1
  C  C64  1  0.95840000  0.19709000  0.77582000  1
  C  C65  1  0.95190000  0.23487000  0.33726000  1
  C  C66  1  0.92510000  0.11106000  0.52768000  1
  C  C67  1  0.91920000  0.90732000  0.93896000  1
  C  C68  1  0.88980000  0.02908000  0.15944000  1
  C  C69  1  0.88150000  0.23104000  0.05112000  1
  C  C70  1  0.85120000  0.30026000  0.76168000  1
  C  C71  1  0.83010000  0.22671000  0.31758000  1
  C  C72  1  0.82200000  0.14304000  0.11972000  1
  C  C73  1  0.80690000  0.35119000  0.00302000  1
  C  C74  1  0.80440000  0.10437000  0.50766000  1
  C  C75  1  0.76320000  0.98473000  0.69414000  1
  C  C76  1  0.75620000  0.16207000  0.40026000  1
  C  C77  1  0.74380000  0.43767000  0.40026000  1
  C  C78  1  0.73680000  0.32113000  0.69414000  1
  C  C79  1  0.69560000  0.38797000  0.50766000  1
  C  C80  1  0.69310000  0.64579000  0.00302000  1
  C  C81  1  0.67800000  0.73724000  0.11972000  1
  C  C82  1  0.66990000  0.45571000  0.31758000  1
  C  C83  1  0.64880000  0.93806000  0.76168000  1
  C  C84  1  0.61850000  0.71784000  0.05112000  1
  C  C85  1  0.61020000  0.81148000  0.15944000  1
  C  C86  1  0.58080000  0.15372000  0.93896000  1
  C  C87  1  0.57490000  0.36126000  0.52768000  1
  C  C88  1  0.54810000  0.42787000  0.33726000  1
  C  C89  1  0.54160000  0.02709000  0.77582000  1
  C  C90  1  0.52590000  0.55849000  0.75282000  1
  C  C91  1  0.51980000  0.13310000  0.87280000  1
  C  C92  1  0.51310000  0.22862000  0.97676000  1
  C  C93  1  0.50190000  0.38140000  0.44220000  1
  C  C94  1  0.49810000  0.61860000  0.55780000  1
  C  C95  1  0.48690000  0.77138000  0.02324000  1
  C  C96  1  0.48020000  0.86690000  0.12720000  1
  C  C97  1  0.47410000  0.44151000  0.24718000  1
  C  C98  1  0.45840000  0.97291000  0.22418000  1
  C  C99  1  0.45190000  0.57213000  0.66274000  1
  C  C100  1  0.42510000  0.63874000  0.47232000  1
  C  C101  1  0.41920000  0.84628000  0.06104000  1
  C  C102  1  0.38980000  0.18852000  0.84056000  1
  C  C103  1  0.38150000  0.28216000  0.94888000  1
  C  C104  1  0.35120000  0.06194000  0.23832000  1
  C  C105  1  0.33010000  0.54429000  0.68242000  1
  C  C106  1  0.32200000  0.26276000  0.88028000  1
  C  C107  1  0.30690000  0.35421000  0.99698000  1
  C  C108  1  0.30440000  0.61203000  0.49234000  1
  C  C109  1  0.26320000  0.67887000  0.30586000  1
  C  C110  1  0.25620000  0.56233000  0.59974000  1
  C  C111  1  0.24380000  0.83793000  0.59974000  1
  C  C112  1  0.23680000  0.01527000  0.30586000  1
  C  C113  1  0.19560000  0.89563000  0.49234000  1
  C  C114  1  0.19310000  0.64881000  0.99698000  1
  C  C115  1  0.17800000  0.85696000  0.88028000  1
  C  C116  1  0.16990000  0.77329000  0.68242000  1
  C  C117  1  0.14880000  0.69974000  0.23832000  1
  C  C118  1  0.11850000  0.76896000  0.94888000  1
  C  C119  1  0.11020000  0.97092000  0.84056000  1
  C  C120  1  0.08080000  0.09268000  0.06104000  1
  C  C121  1  0.07490000  0.88894000  0.47232000  1
  C  C122  1  0.04810000  0.76513000  0.66274000  1
  C  C123  1  0.04160000  0.80291000  0.22418000  1
  C  C124  1  0.02590000  0.31131000  0.24718000  1
  C  C125  1  0.01980000  0.00590000  0.12720000  1
  C  C126  1  0.01310000  0.20538000  0.02324000  1
  C  C127  1  0.00190000  0.82360000  0.55780000  1
  O  O128  1  0.97270000  0.37587000  0.15646000  1
  O  O129  1  0.90450000  0.10095000  0.84130000  1
  O  O130  1  0.86990000  0.42912000  0.94188000  1
  O  O131  1  0.86010000  0.69137000  0.73206000  1
  O  O132  1  0.81440000  0.60827000  0.01810000  1
  O  O133  1  0.77900000  0.37088000  0.58364000  1
  O  O134  1  0.72100000  0.04548000  0.58364000  1
  O  O135  1  0.68560000  0.37363000  0.01810000  1
  O  O136  1  0.63990000  0.57657000  0.73206000  1
  O  O137  1  0.63010000  0.62900000  0.94188000  1
  O  O138  1  0.59550000  0.05775000  0.84130000  1
  O  O139  1  0.52730000  0.46767000  0.15646000  1
  O  O140  1  0.47270000  0.53233000  0.84354000  1
  O  O141  1  0.40450000  0.94225000  0.15870000  1
  O  O142  1  0.36990000  0.37100000  0.05812000  1
  O  O143  1  0.36010000  0.42343000  0.26794000  1
  O  O144  1  0.31440000  0.62637000  0.98190000  1
  O  O145  1  0.27900000  0.95452000  0.41636000  1
  O  O146  1  0.22100000  0.62912000  0.41636000  1
  O  O147  1  0.18560000  0.39173000  0.98190000  1
  O  O148  1  0.13990000  0.30863000  0.26794000  1
  O  O149  1  0.13010000  0.57088000  0.05812000  1
  O  O150  1  0.09550000  0.89905000  0.15870000  1
  O  O151  1  0.02730000  0.62413000  0.84354000  1
