# generated using pymatgen
data_FeAg2H8(C2N)8
_symmetry_space_group_name_H-M   'P 1'
_cell_length_a   9.96960000
_cell_length_b   15.73890000
_cell_length_c   15.73882065
_cell_angle_alpha   115.66594603
_cell_angle_beta   102.18905549
_cell_angle_gamma   102.19000000
_symmetry_Int_Tables_number   1
_chemical_formula_structural   FeAg2H8(C2N)8
_chemical_formula_sum   'Fe3 Ag6 H24 C48 N24'
_cell_volume   2043.37836790
_cell_formula_units_Z   3
loop_
 _symmetry_equiv_pos_site_id
 _symmetry_equiv_pos_as_xyz
  1  'x, y, z'
loop_
 _atom_site_type_symbol
 _atom_site_label
 _atom_site_symmetry_multiplicity
 _atom_site_fract_x
 _atom_site_fract_y
 _atom_site_fract_z
 _atom_site_occupancy
  Fe  Fe0  1  0.50000000  1.00000000  0.50000000  1
  Fe  Fe1  1  1.00000000  0.50000000  0.50000000  1
  Fe  Fe2  1  0.50000000  0.50000000  1.00000000  1
  Ag  Ag3  1  0.29662000  0.59324000  0.29662000  1
  Ag  Ag4  1  0.70338000  0.40676000  0.70338000  1
  Ag  Ag5  1  0.70338000  0.70338000  0.40676000  1
  Ag  Ag6  1  1.00000000  0.29662000  0.70338000  1
  Ag  Ag7  1  1.00000000  0.70338000  0.29662000  1
  Ag  Ag8  1  0.29662000  0.29662000  0.59324000  1
  H  H9  1  0.38460000  0.85370000  0.27330000  1
  H  H10  1  0.53090000  0.14630000  0.41960000  1
  H  H11  1  0.33360000  0.85040000  0.12240000  1
  H  H12  1  0.48320000  0.14960000  0.27200000  1
  H  H13  1  0.48320000  0.27200000  0.14960000  1
  H  H14  1  0.21120000  0.72800000  0.87760000  1
  H  H15  1  0.53090000  0.41960000  0.14630000  1
  H  H16  1  0.11130000  0.58040000  0.72670000  1
  H  H17  1  0.61540000  0.72670000  0.14630000  1
  H  H18  1  0.88870000  0.27330000  0.41960000  1
  H  H19  1  0.21120000  0.87760000  0.72800000  1
  H  H20  1  0.33360000  0.12240000  0.85040000  1
  H  H21  1  0.66640000  0.87760000  0.14960000  1
  H  H22  1  0.78880000  0.12240000  0.27200000  1
  H  H23  1  0.11130000  0.72670000  0.58040000  1
  H  H24  1  0.38460000  0.27330000  0.85370000  1
  H  H25  1  0.88870000  0.41960000  0.27330000  1
  H  H26  1  0.46910000  0.58040000  0.85370000  1
  H  H27  1  0.78880000  0.27200000  0.12240000  1
  H  H28  1  0.51680000  0.72800000  0.85040000  1
  H  H29  1  0.51680000  0.85040000  0.72800000  1
  H  H30  1  0.66640000  0.14960000  0.87760000  1
  H  H31  1  0.46910000  0.85370000  0.58040000  1
  H  H32  1  0.61540000  0.14630000  0.72670000  1
  C  C33  1  0.40300000  0.91410000  0.27290000  1
  C  C34  1  0.48890000  0.08590000  0.35880000  1
  C  C35  1  0.37180000  0.91140000  0.18230000  1
  C  C36  1  0.46040000  0.08860000  0.27090000  1
  C  C37  1  0.37290000  0.57800000  0.18230000  1
  C  C38  1  0.79490000  0.42200000  0.60430000  1
  C  C39  1  0.62710000  0.81770000  0.42200000  1
  C  C40  1  0.80940000  0.18230000  0.60430000  1
  C  C41  1  0.39785000  1.00000000  0.18145000  1
  C  C42  1  0.36550000  1.00000000  0.08320000  1
  C  C43  1  0.28230000  0.91680000  0.91680000  1
  C  C44  1  0.36550000  0.08320000  1.00000000  1
  C  C45  1  0.46040000  0.27090000  0.08860000  1
  C  C46  1  0.18950000  0.72910000  0.81770000  1
  C  C47  1  0.79490000  0.60430000  0.42200000  1
  C  C48  1  0.19060000  0.39570000  0.81770000  1
  C  C49  1  0.21640000  0.81855000  0.81855000  1
  C  C50  1  0.39785000  0.18145000  1.00000000  1
  C  C51  1  0.48890000  0.35880000  0.08590000  1
  C  C52  1  0.13010000  0.64120000  0.72710000  1
  C  C53  1  0.18950000  0.81770000  0.72910000  1
  C  C54  1  0.37180000  0.18230000  0.91140000  1
  C  C55  1  0.13010000  0.72710000  0.64120000  1
  C  C56  1  0.40300000  0.27290000  0.91410000  1
  C  C57  1  0.59700000  0.72710000  0.08590000  1
  C  C58  1  0.86990000  0.27290000  0.35880000  1
  C  C59  1  0.62820000  0.81770000  0.08860000  1
  C  C60  1  0.81050000  0.18230000  0.27090000  1
  C  C61  1  0.86990000  0.35880000  0.27290000  1
  C  C62  1  0.51110000  0.64120000  0.91410000  1
  C  C63  1  0.60215000  0.81855000  1.00000000  1
  C  C64  1  0.78360000  0.18145000  0.18145000  1
  C  C65  1  0.80940000  0.60430000  0.18230000  1
  C  C66  1  0.20510000  0.39570000  0.57800000  1
  C  C67  1  0.81050000  0.27090000  0.18230000  1
  C  C68  1  0.53960000  0.72910000  0.91140000  1
  C  C69  1  0.71770000  0.08320000  0.08320000  1
  C  C70  1  0.63450000  0.91680000  1.00000000  1
  C  C71  1  0.63450000  1.00000000  0.91680000  1
  C  C72  1  0.60215000  0.00000000  0.81855000  1
  C  C73  1  0.19060000  0.81770000  0.39570000  1
  C  C74  1  0.37290000  0.18230000  0.57800000  1
  C  C75  1  0.20510000  0.57800000  0.39570000  1
  C  C76  1  0.62710000  0.42200000  0.81770000  1
  C  C77  1  0.53960000  0.91140000  0.72910000  1
  C  C78  1  0.62820000  0.08860000  0.81770000  1
  C  C79  1  0.51110000  0.91410000  0.64120000  1
  C  C80  1  0.59700000  0.08590000  0.72710000  1
  N  N81  1  0.45850000  1.00000000  0.36010000  1
  N  N82  1  0.58790000  0.88580000  0.44450000  1
  N  N83  1  0.70210000  0.11420000  0.55870000  1
  N  N84  1  0.41210000  0.55550000  0.11420000  1
  N  N85  1  0.85660000  0.44450000  0.55870000  1
  N  N86  1  0.39458000  0.08822000  0.08822000  1
  N  N87  1  0.30636000  0.91178000  1.00000000  1
  N  N88  1  0.30636000  1.00000000  0.91178000  1
  N  N89  1  0.85660000  0.55870000  0.44450000  1
  N  N90  1  0.29790000  0.44130000  0.88580000  1
  N  N91  1  0.09840000  0.63990000  0.63990000  1
  N  N92  1  0.45850000  0.36010000  1.00000000  1
  N  N93  1  0.54150000  0.63990000  1.00000000  1
  N  N94  1  0.90160000  0.36010000  0.36010000  1
  N  N95  1  0.70210000  0.55870000  0.11420000  1
  N  N96  1  0.14340000  0.44130000  0.55550000  1
  N  N97  1  0.69364000  0.00000000  0.08822000  1
  N  N98  1  0.60542000  0.91178000  0.91178000  1
  N  N99  1  0.69364000  0.08822000  1.00000000  1
  N  N100  1  0.14340000  0.55550000  0.44130000  1
  N  N101  1  0.58790000  0.44450000  0.88580000  1
  N  N102  1  0.29790000  0.88580000  0.44130000  1
  N  N103  1  0.41210000  0.11420000  0.55550000  1
  N  N104  1  0.54150000  1.00000000  0.63990000  1
