# generated using pymatgen
data_CoH30(C22N3)2
_symmetry_space_group_name_H-M   'P 1'
_cell_length_a   9.31600000
_cell_length_b   19.14500045
_cell_length_c   19.14500045
_cell_angle_alpha   117.42172438
_cell_angle_beta   99.33465847
_cell_angle_gamma   99.33465847
_symmetry_Int_Tables_number   1
_chemical_formula_structural   CoH30(C22N3)2
_chemical_formula_sum   'Co3 H90 C132 N18'
_cell_volume   2879.33364863
_cell_formula_units_Z   3
loop_
 _symmetry_equiv_pos_site_id
 _symmetry_equiv_pos_as_xyz
  1  'x, y, z'
loop_
 _atom_site_type_symbol
 _atom_site_label
 _atom_site_symmetry_multiplicity
 _atom_site_fract_x
 _atom_site_fract_y
 _atom_site_fract_z
 _atom_site_occupancy
  C  C0  1  0.49945000  0.75929000  0.24916000  1
  C  C1  1  0.34193000  0.60181000  0.42438000  1
  C  C2  1  0.40719000  0.24014000  0.80013000  1
  C  C3  1  0.23025000  0.60584000  0.46931000  1
  C  C4  1  0.22783000  0.46604000  0.61765000  1
  C  C5  1  0.64462000  0.47476000  0.60900000  1
  C  C6  1  0.60425000  0.31418000  0.77607000  1
  C  C7  1  0.26846000  0.84160000  0.24878000  1
  C  C8  1  0.74778000  0.51923000  0.58571000  1
  C  C9  1  0.29007000  0.46189000  0.68582000  1
  C  C10  1  0.17575000  0.89008000  0.26807000  1
  C  C11  1  0.50605000  0.83533000  0.32522000  1
  C  C12  1  0.58690000  0.19504000  0.97346000  1
  C  C13  1  0.85571000  0.21007000  0.96146000  1
  C  C14  1  0.42194000  0.31155000  0.87137000  1
  C  C15  1  0.18083000  0.67478000  0.51011000  1
  C  C16  1  0.39017000  0.87207000  0.32094000  1
  C  C17  1  0.77264000  0.60268000  0.61344000  1
  C  C18  1  0.99240000  0.25585000  0.96455000  1
  C  C19  1  0.74012000  0.82257000  0.39819000  1
  C  C20  1  0.73755000  0.24467000  0.97888000  1
  C  C21  1  0.06923000  0.67906000  0.55113000  1
  C  C22  1  0.61018000  0.38235000  0.84839000  1
  C  C23  1  0.17182000  0.77607000  0.46189000  1
  C  C24  1  0.88513000  0.64657000  0.59802000  1
  C  C25  1  0.08245000  0.42438000  0.82257000  1
  C  C26  1  0.61344000  0.02654000  0.22158000  1
  C  C27  1  0.11039000  0.55982000  0.68845000  1
  C  C28  1  0.03562000  0.39100000  0.86576000  1
  C  C29  1  0.62441000  0.86347000  0.39416000  1
  C  C30  1  0.52152000  0.63060000  0.62896000  1
  C  C31  1  0.25029000  0.75084000  0.51013000  1
  C  C32  1  0.25984000  0.51013000  0.75929000  1
  C  C33  1  0.75867000  0.02112000  0.26579000  1
  C  C34  1  0.89425000  0.03854000  0.24861000  1
  C  C35  1  0.23856000  0.95145000  0.35343000  1
  C  C36  1  0.67570000  0.64799000  0.66341000  1
  C  C37  1  0.23821000  0.84839000  0.46604000  1
  C  C38  1  0.16705000  0.55999000  0.75986000  1
  C  C39  1  0.01229000  0.33659000  0.98458000  1
  C  C40  1  0.75823000  0.32557000  0.99902000  1
  C  C41  1  0.02785000  0.03545000  0.29130000  1
  C  C42  1  0.75921000  0.00098000  0.32655000  1
  C  C43  1  0.23906000  0.46931000  0.86347000  1
  C  C44  1  0.83014000  0.86576000  0.47476000  1
  C  C45  1  0.01968000  0.75122000  0.59282000  1
  C  C46  1  0.32928000  0.51011000  0.83533000  1
  C  C47  1  0.16207000  0.41429000  0.93352000  1
  C  C48  1  0.43266000  0.67345000  0.67443000  1
  C  C49  1  0.90768000  0.73193000  0.62201000  1
  C  C50  1  0.39294000  0.80013000  0.55999000  1
  C  C51  1  0.02771000  0.01542000  0.35201000  1
  C  C52  1  0.89092000  0.99836000  0.36940000  1
  C  C53  1  0.89256000  0.37104000  0.00164000  1
  C  C54  1  0.15920000  0.38656000  0.98924000  1
  C  C55  1  0.16996000  0.01076000  0.39732000  1
  C  C56  1  0.60814000  0.22158000  0.19504000  1
  C  C57  1  0.48190000  0.55113000  0.87207000  1
  C  C58  1  0.44943000  0.87137000  0.55982000  1
  C  C59  1  0.57314000  0.59282000  0.84160000  1
  C  C60  1  0.28711000  0.40198000  0.04855000  1
  C  C61  1  0.77145000  0.93352000  0.51923000  1
  C  C62  1  0.73655000  0.70870000  0.74415000  1
  C  C63  1  0.35436000  0.24861000  0.21007000  1
  C  C64  1  0.28567000  0.37799000  0.10992000  1
  C  C65  1  0.49288000  0.73421000  0.75533000  1
  C  C66  1  0.50712000  0.26579000  0.24467000  1
  C  C67  1  0.71433000  0.62201000  0.89008000  1
  C  C68  1  0.64564000  0.75139000  0.78993000  1
  C  C69  1  0.26345000  0.29130000  0.25585000  1
  C  C70  1  0.22855000  0.06648000  0.48077000  1
  C  C71  1  0.71289000  0.59802000  0.95145000  1
  C  C72  1  0.42686000  0.40718000  0.15840000  1
  C  C73  1  0.55057000  0.12863000  0.44018000  1
  C  C74  1  0.51810000  0.44887000  0.12793000  1
  C  C75  1  0.39186000  0.77842000  0.80496000  1
  C  C76  1  0.83004000  0.98924000  0.60268000  1
  C  C77  1  0.84080000  0.61344000  0.01076000  1
  C  C78  1  0.10744000  0.62896000  0.99836000  1
  C  C79  1  0.10908000  0.00164000  0.63060000  1
  C  C80  1  0.97229000  0.98458000  0.64799000  1
  C  C81  1  0.60706000  0.19987000  0.44001000  1
  C  C82  1  0.09232000  0.26807000  0.37799000  1
  C  C83  1  0.56734000  0.32655000  0.32557000  1
  C  C84  1  0.83793000  0.58571000  0.06648000  1
  C  C85  1  0.67072000  0.48989000  0.16467000  1
  C  C86  1  0.98032000  0.24878000  0.40718000  1
  C  C87  1  0.16986000  0.13424000  0.52524000  1
  C  C88  1  0.76094000  0.53069000  0.13653000  1
  C  C89  1  0.24079000  0.99902000  0.67345000  1
  C  C90  1  0.97215000  0.96455000  0.70870000  1
  C  C91  1  0.24177000  0.67443000  0.00098000  1
  C  C92  1  0.98771000  0.66341000  0.01542000  1
  C  C93  1  0.83295000  0.44001000  0.24014000  1
  C  C94  1  0.76179000  0.15161000  0.53396000  1
  C  C95  1  0.32430000  0.35201000  0.33659000  1
  C  C96  1  0.76144000  0.04855000  0.64657000  1
  C  C97  1  0.10575000  0.96146000  0.75139000  1
  C  C98  1  0.24133000  0.97888000  0.73421000  1
  C  C99  1  0.74016000  0.48987000  0.24071000  1
  C  C100  1  0.74971000  0.24916000  0.48987000  1
  C  C101  1  0.47848000  0.36940000  0.37104000  1
  C  C102  1  0.37559000  0.13653000  0.60584000  1
  C  C103  1  0.96438000  0.60900000  0.13424000  1
  C  C104  1  0.88961000  0.44018000  0.31155000  1
  C  C105  1  0.38656000  0.97346000  0.77842000  1
  C  C106  1  0.91755000  0.57562000  0.17743000  1
  C  C107  1  0.11487000  0.35343000  0.40198000  1
  C  C108  1  0.82818000  0.22393000  0.53811000  1
  C  C109  1  0.38982000  0.61765000  0.15161000  1
  C  C110  1  0.93077000  0.32094000  0.44887000  1
  C  C111  1  0.26245000  0.75533000  0.02112000  1
  C  C112  1  0.25988000  0.17743000  0.60181000  1
  C  C113  1  0.00760000  0.74415000  0.03545000  1
  C  C114  1  0.22736000  0.39732000  0.38656000  1
  C  C115  1  0.60983000  0.12793000  0.67906000  1
  C  C116  1  0.81917000  0.32522000  0.48989000  1
  C  C117  1  0.57806000  0.68845000  0.12863000  1
  C  C118  1  0.14429000  0.78993000  0.03854000  1
  C  C119  1  0.41310000  0.80496000  0.02654000  1
  C  C120  1  0.49395000  0.16467000  0.67478000  1
  C  C121  1  0.82425000  0.10992000  0.73193000  1
  C  C122  1  0.70993000  0.53811000  0.31418000  1
  C  C123  1  0.25222000  0.48077000  0.41429000  1
  C  C124  1  0.73154000  0.15840000  0.75122000  1
  C  C125  1  0.39575000  0.68582000  0.22393000  1
  C  C126  1  0.35538000  0.52524000  0.39100000  1
  C  C127  1  0.77217000  0.53396000  0.38235000  1
  C  C128  1  0.76975000  0.39416000  0.53069000  1
  C  C129  1  0.59281000  0.75986000  0.19987000  1
  C  C130  1  0.65807000  0.39819000  0.57562000  1
  C  C131  1  0.50055000  0.24071000  0.75084000  1
  Co  Co132  1  1.00000000  0.50000000  0.50000000  1
  Co  Co133  1  0.50000000  0.00000000  0.50000000  1
  Co  Co134  1  0.50000000  0.50000000  0.00000000  1
  H  H135  1  0.24980000  0.43280000  0.56800000  1
  H  H136  1  0.74380000  0.20450000  0.80310000  1
  H  H137  1  0.66590000  0.80870000  0.21490000  1
  H  H138  1  0.67030000  0.31750000  0.74410000  1
  H  H139  1  0.39560000  0.64520000  0.41930000  1
  H  H140  1  0.52220000  0.16760000  0.91750000  1
  H  H141  1  0.84400000  0.15460000  0.94730000  1
  H  H142  1  0.35280000  0.42660000  0.68250000  1
  H  H143  1  0.08590000  0.88500000  0.23250000  1
  H  H144  1  0.75040000  0.77410000  0.35480000  1
  H  H145  1  0.57910000  0.49580000  0.64190000  1
  H  H146  1  0.60400000  0.15420000  0.98880000  1
  H  H147  1  0.47710000  0.58890000  0.57370000  1
  H  H148  1  0.07380000  0.74410000  0.42660000  1
  H  H149  1  0.61520000  0.01120000  0.16540000  1
  H  H150  1  0.07240000  0.23110000  0.95270000  1
  H  H151  1  0.02370000  0.41930000  0.77410000  1
  H  H152  1  0.52680000  0.98920000  0.22070000  1
  H  H153  1  0.93720000  0.35810000  0.85390000  1
  H  H154  1  0.35720000  0.31000000  0.90460000  1
  H  H155  1  0.53760000  0.23150000  0.01080000  1
  H  H156  1  0.89670000  0.05270000  0.20730000  1
  H  H157  1  0.04720000  0.59460000  0.69000000  1
  H  H158  1  0.68180000  0.43200000  0.86480000  1
  H  H159  1  0.18300000  0.86480000  0.43280000  1
  H  H160  1  0.32800000  0.66090000  0.64960000  1
  H  H161  1  0.55020000  0.16540000  0.15420000  1
  H  H162  1  0.11970000  0.04730000  0.27840000  1
  H  H163  1  0.66710000  0.98870000  0.33910000  1
  H  H164  1  0.60470000  0.08250000  0.25010000  1
  H  H165  1  0.91670000  0.85390000  0.49580000  1
  H  H166  1  0.67840000  0.35040000  0.01130000  1
  H  H167  1  0.31060000  0.20730000  0.15460000  1
  H  H168  1  0.45100000  0.78510000  0.59380000  1
  H  H169  1  0.53930000  0.59860000  0.79550000  1
  H  H170  1  0.88820000  0.98480000  0.41110000  1
  H  H171  1  0.05930000  0.80310000  0.59860000  1
  H  H172  1  0.14280000  0.59380000  0.80870000  1
  H  H173  1  0.64540000  0.25010000  0.16760000  1
  H  H174  1  0.85340000  0.76750000  0.65250000  1
  H  H175  1  0.90340000  0.42630000  0.01520000  1
  H  H176  1  0.69390000  0.22070000  0.23150000  1
  H  H177  1  0.20090000  0.34750000  0.11500000  1
  H  H178  1  0.84130000  0.72160000  0.76890000  1
  H  H179  1  0.54740000  0.90460000  0.59460000  1
  H  H180  1  0.45260000  0.09540000  0.40540000  1
  H  H181  1  0.15870000  0.27840000  0.23110000  1
  H  H182  1  0.79910000  0.65250000  0.88500000  1
  H  H183  1  0.30610000  0.77930000  0.76850000  1
  H  H184  1  0.09660000  0.57370000  0.98480000  1
  H  H185  1  0.14660000  0.23250000  0.34750000  1
  H  H186  1  0.35460000  0.74990000  0.83240000  1
  H  H187  1  0.85720000  0.40620000  0.19130000  1
  H  H188  1  0.94070000  0.19690000  0.40140000  1
  H  H189  1  0.11180000  0.01520000  0.58890000  1
  H  H190  1  0.46070000  0.40140000  0.20450000  1
  H  H191  1  0.54900000  0.21490000  0.40620000  1
  H  H192  1  0.68940000  0.79270000  0.84540000  1
  H  H193  1  0.32160000  0.64960000  0.98870000  1
  H  H194  1  0.08330000  0.14610000  0.50420000  1
  H  H195  1  0.39530000  0.91750000  0.74990000  1
  H  H196  1  0.33290000  0.01130000  0.66090000  1
  H  H197  1  0.88030000  0.95270000  0.72160000  1
  H  H198  1  0.44980000  0.83460000  0.84580000  1
  H  H199  1  0.67200000  0.33910000  0.35040000  1
  H  H200  1  0.81700000  0.13520000  0.56720000  1
  H  H201  1  0.31820000  0.56800000  0.13520000  1
  H  H202  1  0.95280000  0.40540000  0.31000000  1
  H  H203  1  0.10330000  0.94730000  0.79270000  1
  H  H204  1  0.46240000  0.76850000  0.98920000  1
  H  H205  1  0.64280000  0.69000000  0.09540000  1
  H  H206  1  0.06280000  0.64190000  0.14610000  1
  H  H207  1  0.47320000  0.01080000  0.77930000  1
  H  H208  1  0.97630000  0.58070000  0.22590000  1
  H  H209  1  0.92760000  0.76890000  0.04730000  1
  H  H210  1  0.38480000  0.98880000  0.83460000  1
  H  H211  1  0.92620000  0.25590000  0.57340000  1
  H  H212  1  0.52290000  0.41110000  0.42630000  1
  H  H213  1  0.39600000  0.84580000  0.01120000  1
  H  H214  1  0.42090000  0.50420000  0.35810000  1
  H  H215  1  0.24960000  0.22590000  0.64520000  1
  H  H216  1  0.91410000  0.11500000  0.76750000  1
  H  H217  1  0.64720000  0.57340000  0.31750000  1
  H  H218  1  0.15600000  0.84540000  0.05270000  1
  H  H219  1  0.47780000  0.83240000  0.08250000  1
  H  H220  1  0.60440000  0.35480000  0.58070000  1
  H  H221  1  0.32970000  0.68250000  0.25590000  1
  H  H222  1  0.33410000  0.19130000  0.78510000  1
  H  H223  1  0.25620000  0.79550000  0.19690000  1
  H  H224  1  0.75020000  0.56720000  0.43200000  1
  N  N225  1  0.82334000  0.46898000  0.53744000  1
  N  N226  1  0.13904000  0.51403000  0.61769000  1
  N  N227  1  0.98585000  0.61501000  0.55524000  1
  N  N228  1  0.52135000  0.38231000  0.89634000  1
  N  N229  1  0.37084000  0.94023000  0.38499000  1
  N  N230  1  0.28590000  0.46256000  0.93154000  1
  N  N231  1  0.64564000  0.93154000  0.46898000  1
  N  N232  1  0.37499000  0.89634000  0.51403000  1
  N  N233  1  0.56939000  0.55524000  0.94023000  1
  N  N234  1  0.43061000  0.44476000  0.05977000  1
  N  N235  1  0.62501000  0.10366000  0.48597000  1
  N  N236  1  0.35436000  0.06846000  0.53102000  1
  N  N237  1  0.71410000  0.53744000  0.06846000  1
  N  N238  1  0.62916000  0.05977000  0.61501000  1
  N  N239  1  0.47865000  0.61769000  0.10366000  1
  N  N240  1  0.01415000  0.38499000  0.44476000  1
  N  N241  1  0.86096000  0.48597000  0.38231000  1
  N  N242  1  0.17666000  0.53102000  0.46256000  1
