# generated using pymatgen
data_EuH2C7(NO3)2
_symmetry_space_group_name_H-M   'P 1'
_cell_length_a   6.10090000
_cell_length_b   9.97580000
_cell_length_c   13.38250000
_cell_angle_alpha   68.87100000
_cell_angle_beta   81.03300000
_cell_angle_gamma   76.75000000
_symmetry_Int_Tables_number   1
_chemical_formula_structural   EuH2C7(NO3)2
_chemical_formula_sum   'Eu2 H4 C14 N4 O12'
_cell_volume   737.08620084
_cell_formula_units_Z   2
loop_
 _symmetry_equiv_pos_site_id
 _symmetry_equiv_pos_as_xyz
  1  'x, y, z'
loop_
 _atom_site_type_symbol
 _atom_site_label
 _atom_site_symmetry_multiplicity
 _atom_site_fract_x
 _atom_site_fract_y
 _atom_site_fract_z
 _atom_site_occupancy
  Eu  Eu0  1  0.16836000  0.38563000  0.80400000  1
  Eu  Eu1  1  0.83164000  0.61437000  0.19600000  1
  H  H2  1  0.29400000  0.67470000  0.37110000  1
  H  H3  1  0.32480000  0.04640000  0.02880000  1
  H  H4  1  0.67520000  0.95360000  0.97120000  1
  H  H5  1  0.70600000  0.32530000  0.62890000  1
  C  C6  1  0.04930000  0.61640000  0.56020000  1
  C  C7  1  0.08760000  0.43930000  0.03450000  1
  C  C8  1  0.13250000  0.89500000  0.06810000  1
  C  C9  1  0.19050000  0.02940000  0.01540000  1
  C  C10  1  0.28660000  0.76780000  0.14160000  1
  C  C11  1  0.29030000  0.55620000  0.52700000  1
  C  C12  1  0.38160000  0.60250000  0.42300000  1
  C  C13  1  0.61840000  0.39750000  0.57700000  1
  C  C14  1  0.70970000  0.44380000  0.47300000  1
  C  C15  1  0.71340000  0.23220000  0.85840000  1
  C  C16  1  0.80950000  0.97060000  0.98460000  1
  C  C17  1  0.86750000  0.10500000  0.93190000  1
  C  C18  1  0.91240000  0.56070000  0.96550000  1
  C  C19  1  0.95070000  0.38360000  0.43980000  1
  N  N20  1  0.06050000  0.13560000  0.94580000  1
  N  N21  1  0.40610000  0.45300000  0.60640000  1
  N  N22  1  0.59390000  0.54700000  0.39360000  1
  N  N23  1  0.93950000  0.86440000  0.05420000  1
  O  O24  1  0.01420000  0.43030000  0.34260000  1
  O  O25  1  0.06820000  0.29040000  0.51020000  1
  O  O26  1  0.08440000  0.42930000  0.13010000  1
  O  O27  1  0.21440000  0.65020000  0.18430000  1
  O  O28  1  0.22350000  0.36250000  0.98670000  1
  O  O29  1  0.47850000  0.78430000  0.15090000  1
  O  O30  1  0.52150000  0.21570000  0.84910000  1
  O  O31  1  0.77650000  0.63750000  0.01330000  1
  O  O32  1  0.78560000  0.34980000  0.81570000  1
  O  O33  1  0.91560000  0.57070000  0.86990000  1
  O  O34  1  0.93180000  0.70960000  0.48980000  1
  O  O35  1  0.98580000  0.56970000  0.65740000  1
