# generated using pymatgen
data_ZnH33(C4O)9
_symmetry_space_group_name_H-M   'P 1'
_cell_length_a   8.74230000
_cell_length_b   18.77700000
_cell_length_c   29.73300000
_cell_angle_alpha   90.22500000
_cell_angle_beta   90.00000000
_cell_angle_gamma   90.00000000
_symmetry_Int_Tables_number   1
_chemical_formula_structural   ZnH33(C4O)9
_chemical_formula_sum   'Zn4 H132 C144 O36'
_cell_volume   4880.75821643
_cell_formula_units_Z   4
loop_
 _symmetry_equiv_pos_site_id
 _symmetry_equiv_pos_as_xyz
  1  'x, y, z'
loop_
 _atom_site_type_symbol
 _atom_site_label
 _atom_site_symmetry_multiplicity
 _atom_site_fract_x
 _atom_site_fract_y
 _atom_site_fract_z
 _atom_site_occupancy
  Zn  Zn0  1  0.27931000  0.81733000  0.75066000  1
  Zn  Zn1  1  0.77931000  0.68267000  0.74934000  1
  Zn  Zn2  1  0.22069000  0.31733000  0.25066000  1
  Zn  Zn3  1  0.72069000  0.18267000  0.24934000  1
  H  H4  1  0.55070000  0.99980000  0.83900000  1
  H  H5  1  0.05100000  0.97710000  0.28610000  1
  H  H6  1  0.00460000  0.97290000  0.82770000  1
  H  H7  1  0.38340000  0.96830000  0.74040000  1
  H  H8  1  0.41620000  0.94430000  0.26520000  1
  H  H9  1  0.41860000  0.94120000  0.31780000  1
  H  H10  1  0.82980000  0.93170000  0.18370000  1
  H  H11  1  0.89360000  0.92200000  0.75290000  1
  H  H12  1  0.94700000  0.90200000  0.70400000  1
  H  H13  1  0.56710000  0.89390000  0.86470000  1
  H  H14  1  0.55710000  0.89060000  0.14810000  1
  H  H15  1  0.59590000  0.88620000  0.38600000  1
  H  H16  1  0.41880000  0.88360000  0.61260000  1
  H  H17  1  0.85850000  0.88010000  0.14300000  1
  H  H18  1  0.11260000  0.87320000  0.32360000  1
  H  H19  1  0.44360000  0.87150000  0.28950000  1
  H  H20  1  0.78060000  0.85780000  0.46200000  1
  H  H21  1  0.89470000  0.85510000  0.19210000  1
  H  H22  1  0.98930000  0.84020000  0.35570000  1
  H  H23  1  0.57480000  0.83820000  0.55370000  1
  H  H24  1  0.79610000  0.83370000  0.51220000  1
  H  H25  1  0.48380000  0.83350000  0.17980000  1
  H  H26  1  0.45380000  0.83020000  0.12790000  1
  H  H27  1  0.05600000  0.82360000  0.09070000  1
  H  H28  1  0.63380000  0.82010000  0.84970000  1
  H  H29  1  0.01370000  0.80830000  0.30740000  1
  H  H30  1  0.25280000  0.80180000  0.39090000  1
  H  H31  1  0.45450000  0.80160000  0.61370000  1
  H  H32  1  0.16100000  0.79640000  0.50050000  1
  H  H33  1  0.76030000  0.77800000  0.09400000  1
  H  H34  1  0.79610000  0.77670000  0.47350000  1
  H  H35  1  0.12830000  0.77140000  0.42360000  1
  H  H36  1  0.24980000  0.75490000  0.20520000  1
  H  H37  1  0.74980000  0.74510000  0.29480000  1
  H  H38  1  0.62830000  0.72860000  0.07640000  1
  H  H39  1  0.29610000  0.72330000  0.02650000  1
  H  H40  1  0.26030000  0.72200000  0.40600000  1
  H  H41  1  0.66100000  0.70360000  0.99950000  1
  H  H42  1  0.95450000  0.69840000  0.88630000  1
  H  H43  1  0.75280000  0.69820000  0.10910000  1
  H  H44  1  0.51370000  0.69170000  0.19260000  1
  H  H45  1  0.13380000  0.67990000  0.65030000  1
  H  H46  1  0.55600000  0.67640000  0.40930000  1
  H  H47  1  0.95380000  0.66980000  0.37210000  1
  H  H48  1  0.98380000  0.66650000  0.32020000  1
  H  H49  1  0.29610000  0.66630000  0.98780000  1
  H  H50  1  0.07480000  0.66180000  0.94630000  1
  H  H51  1  0.48930000  0.65980000  0.14430000  1
  H  H52  1  0.39470000  0.64490000  0.30790000  1
  H  H53  1  0.28060000  0.64220000  0.03800000  1
  H  H54  1  0.94360000  0.62850000  0.21050000  1
  H  H55  1  0.61260000  0.62680000  0.17640000  1
  H  H56  1  0.35850000  0.61990000  0.35700000  1
  H  H57  1  0.91880000  0.61640000  0.88740000  1
  H  H58  1  0.09590000  0.61380000  0.11400000  1
  H  H59  1  0.05710000  0.60940000  0.35190000  1
  H  H60  1  0.06710000  0.60610000  0.63530000  1
  H  H61  1  0.44700000  0.59800000  0.79600000  1
  H  H62  1  0.39360000  0.57800000  0.74710000  1
  H  H63  1  0.32980000  0.56830000  0.31630000  1
  H  H64  1  0.91860000  0.55880000  0.18220000  1
  H  H65  1  0.91620000  0.55570000  0.23480000  1
  H  H66  1  0.88340000  0.53170000  0.75960000  1
  H  H67  1  0.50460000  0.52710000  0.67230000  1
  H  H68  1  0.55100000  0.52290000  0.21390000  1
  H  H69  1  0.05070000  0.50020000  0.66100000  1
  H  H70  1  0.94930000  0.49980000  0.33900000  1
  H  H71  1  0.44900000  0.47710000  0.78610000  1
  H  H72  1  0.49540000  0.47290000  0.32770000  1
  H  H73  1  0.11660000  0.46830000  0.24040000  1
  H  H74  1  0.08380000  0.44430000  0.76520000  1
  H  H75  1  0.08140000  0.44120000  0.81780000  1
  H  H76  1  0.67020000  0.43170000  0.68370000  1
  H  H77  1  0.60640000  0.42200000  0.25290000  1
  H  H78  1  0.55300000  0.40200000  0.20400000  1
  H  H79  1  0.93290000  0.39390000  0.36470000  1
  H  H80  1  0.94290000  0.39060000  0.64810000  1
  H  H81  1  0.90410000  0.38620000  0.88600000  1
  H  H82  1  0.08120000  0.38360000  0.11260000  1
  H  H83  1  0.64150000  0.38010000  0.64300000  1
  H  H84  1  0.38740000  0.37320000  0.82360000  1
  H  H85  1  0.05640000  0.37150000  0.78950000  1
  H  H86  1  0.71940000  0.35780000  0.96200000  1
  H  H87  1  0.60530000  0.35510000  0.69210000  1
  H  H88  1  0.51070000  0.34020000  0.85570000  1
  H  H89  1  0.92520000  0.33820000  0.05370000  1
  H  H90  1  0.70390000  0.33370000  0.01220000  1
  H  H91  1  0.01620000  0.33350000  0.67980000  1
  H  H92  1  0.04620000  0.33020000  0.62790000  1
  H  H93  1  0.44400000  0.32360000  0.59070000  1
  H  H94  1  0.86620000  0.32010000  0.34970000  1
  H  H95  1  0.48630000  0.30830000  0.80740000  1
  H  H96  1  0.24720000  0.30180000  0.89090000  1
  H  H97  1  0.04550000  0.30160000  0.11370000  1
  H  H98  1  0.33900000  0.29640000  0.00050000  1
  H  H99  1  0.73970000  0.27800000  0.59400000  1
  H  H100  1  0.70390000  0.27670000  0.97350000  1
  H  H101  1  0.37170000  0.27140000  0.92360000  1
  H  H102  1  0.25020000  0.25490000  0.70520000  1
  H  H103  1  0.75020000  0.24510000  0.79480000  1
  H  H104  1  0.87170000  0.22860000  0.57640000  1
  H  H105  1  0.20390000  0.22330000  0.52650000  1
  H  H106  1  0.23970000  0.22200000  0.90600000  1
  H  H107  1  0.83900000  0.20360000  0.49950000  1
  H  H108  1  0.54550000  0.19840000  0.38630000  1
  H  H109  1  0.74720000  0.19820000  0.60910000  1
  H  H110  1  0.98630000  0.19170000  0.69260000  1
  H  H111  1  0.36620000  0.17990000  0.15030000  1
  H  H112  1  0.94400000  0.17640000  0.90930000  1
  H  H113  1  0.54620000  0.16980000  0.87210000  1
  H  H114  1  0.51620000  0.16650000  0.82020000  1
  H  H115  1  0.20390000  0.16630000  0.48780000  1
  H  H116  1  0.42520000  0.16180000  0.44630000  1
  H  H117  1  0.01070000  0.15980000  0.64430000  1
  H  H118  1  0.10530000  0.14490000  0.80790000  1
  H  H119  1  0.21940000  0.14220000  0.53800000  1
  H  H120  1  0.55640000  0.12850000  0.71050000  1
  H  H121  1  0.88740000  0.12680000  0.67640000  1
  H  H122  1  0.14150000  0.11990000  0.85700000  1
  H  H123  1  0.58120000  0.11640000  0.38740000  1
  H  H124  1  0.40410000  0.11380000  0.61400000  1
  H  H125  1  0.44290000  0.10940000  0.85190000  1
  H  H126  1  0.43290000  0.10610000  0.13530000  1
  H  H127  1  0.05300000  0.09800000  0.29600000  1
  H  H128  1  0.10640000  0.07800000  0.24710000  1
  H  H129  1  0.17020000  0.06830000  0.81630000  1
  H  H130  1  0.58140000  0.05880000  0.68220000  1
  H  H131  1  0.58380000  0.05570000  0.73480000  1
  H  H132  1  0.61660000  0.03170000  0.25960000  1
  H  H133  1  0.99540000  0.02710000  0.17230000  1
  H  H134  1  0.94900000  0.02290000  0.71390000  1
  H  H135  1  0.44930000  0.00020000  0.16100000  1
  C  C136  1  0.68590000  0.99950000  0.27170000  1
  C  C137  1  0.07900000  0.99700000  0.16880000  1
  C  C138  1  0.15860000  0.98560000  0.72860000  1
  C  C139  1  0.35110000  0.98120000  0.16150000  1
  C  C140  1  0.77410000  0.97410000  0.83520000  1
  C  C141  1  0.94700000  0.96690000  0.28760000  1
  C  C142  1  0.63410000  0.93560000  0.29040000  1
  C  C143  1  0.05690000  0.92340000  0.16750000  1
  C  C144  1  0.46220000  0.92190000  0.29080000  1
  C  C145  1  0.33100000  0.90760000  0.15900000  1
  C  C146  1  0.89530000  0.90180000  0.30660000  1
  C  C147  1  0.96810000  0.89510000  0.73570000  1
  C  C148  1  0.89520000  0.89500000  0.17200000  1
  C  C149  1  0.73890000  0.88750000  0.30910000  1
  C  C150  1  0.18400000  0.87890000  0.16090000  1
  C  C151  1  0.52560000  0.87230000  0.79790000  1
  C  C152  1  0.62150000  0.86940000  0.84080000  1
  C  C153  1  0.46880000  0.86130000  0.15320000  1
  C  C154  1  0.01340000  0.85130000  0.32500000  1
  C  C155  1  0.61250000  0.83930000  0.37720000  1
  C  C156  1  0.37290000  0.83660000  0.61310000  1
  C  C157  1  0.27420000  0.82890000  0.65480000  1
  C  C158  1  0.51450000  0.82610000  0.52910000  1
  C  C159  1  0.68490000  0.82490000  0.33560000  1
  C  C160  1  0.75450000  0.82150000  0.48330000  1
  C  C161  1  0.35730000  0.81840000  0.53410000  1
  C  C162  1  0.95650000  0.81630000  0.74730000  1
  C  C163  1  0.58200000  0.81560000  0.48670000  1
  C  C164  1  0.15870000  0.80130000  0.15020000  1
  C  C165  1  0.26620000  0.80100000  0.49700000  1
  C  C166  1  0.49210000  0.79720000  0.45010000  1
  C  C167  1  0.33190000  0.79070000  0.45520000  1
  C  C168  1  0.08810000  0.78630000  0.10890000  1
  C  C169  1  0.56560000  0.78360000  0.40510000  1
  C  C170  1  0.23440000  0.76950000  0.41530000  1
  C  C171  1  0.70470000  0.75500000  0.32250000  1
  C  C172  1  0.20470000  0.74500000  0.17750000  1
  C  C173  1  0.73440000  0.73050000  0.08470000  1
  C  C174  1  0.06560000  0.71640000  0.09490000  1
  C  C175  1  0.58810000  0.71370000  0.39110000  1
  C  C176  1  0.83190000  0.70930000  0.04480000  1
  C  C177  1  0.99210000  0.70280000  0.04990000  1
  C  C178  1  0.76620000  0.69900000  0.00300000  1
  C  C179  1  0.65870000  0.69870000  0.34980000  1
  C  C180  1  0.08200000  0.68440000  0.01330000  1
  C  C181  1  0.45650000  0.68370000  0.75270000  1
  C  C182  1  0.85730000  0.68160000  0.96590000  1
  C  C183  1  0.25450000  0.67850000  0.01670000  1
  C  C184  1  0.18490000  0.67510000  0.16440000  1
  C  C185  1  0.01450000  0.67390000  0.97090000  1
  C  C186  1  0.77420000  0.67110000  0.84520000  1
  C  C187  1  0.87290000  0.66340000  0.88690000  1
  C  C188  1  0.11250000  0.66070000  0.12280000  1
  C  C189  1  0.51340000  0.64870000  0.17500000  1
  C  C190  1  0.96880000  0.63870000  0.34680000  1
  C  C191  1  0.12150000  0.63060000  0.65920000  1
  C  C192  1  0.02560000  0.62770000  0.70210000  1
  C  C193  1  0.68400000  0.62110000  0.33910000  1
  C  C194  1  0.23890000  0.61250000  0.19090000  1
  C  C195  1  0.39520000  0.60500000  0.32800000  1
  C  C196  1  0.46810000  0.60490000  0.76430000  1
  C  C197  1  0.39530000  0.59820000  0.19340000  1
  C  C198  1  0.83100000  0.59240000  0.34100000  1
  C  C199  1  0.96220000  0.57810000  0.20920000  1
  C  C200  1  0.55690000  0.57660000  0.33250000  1
  C  C201  1  0.13410000  0.56440000  0.20960000  1
  C  C202  1  0.44700000  0.53310000  0.21240000  1
  C  C203  1  0.27410000  0.52590000  0.66480000  1
  C  C204  1  0.85110000  0.51880000  0.33850000  1
  C  C205  1  0.65860000  0.51440000  0.77140000  1
  C  C206  1  0.57900000  0.50300000  0.33120000  1
  C  C207  1  0.18590000  0.50050000  0.22830000  1
  C  C208  1  0.81410000  0.49950000  0.77170000  1
  C  C209  1  0.42100000  0.49700000  0.66880000  1
  C  C210  1  0.34140000  0.48560000  0.22860000  1
  C  C211  1  0.14890000  0.48120000  0.66150000  1
  C  C212  1  0.72590000  0.47410000  0.33520000  1
  C  C213  1  0.55300000  0.46690000  0.78760000  1
  C  C214  1  0.86590000  0.43560000  0.79040000  1
  C  C215  1  0.44310000  0.42340000  0.66750000  1
  C  C216  1  0.03780000  0.42190000  0.79080000  1
  C  C217  1  0.16900000  0.40760000  0.65900000  1
  C  C218  1  0.60470000  0.40180000  0.80660000  1
  C  C219  1  0.53190000  0.39510000  0.23570000  1
  C  C220  1  0.60480000  0.39500000  0.67200000  1
  C  C221  1  0.76110000  0.38750000  0.80910000  1
  C  C222  1  0.31600000  0.37890000  0.66090000  1
  C  C223  1  0.97440000  0.37230000  0.29790000  1
  C  C224  1  0.87850000  0.36940000  0.34080000  1
  C  C225  1  0.03120000  0.36130000  0.65320000  1
  C  C226  1  0.48660000  0.35130000  0.82500000  1
  C  C227  1  0.88750000  0.33930000  0.87720000  1
  C  C228  1  0.12710000  0.33660000  0.11310000  1
  C  C229  1  0.22580000  0.32890000  0.15480000  1
  C  C230  1  0.98550000  0.32610000  0.02910000  1
  C  C231  1  0.81510000  0.32490000  0.83560000  1
  C  C232  1  0.74550000  0.32150000  0.98330000  1
  C  C233  1  0.14270000  0.31840000  0.03410000  1
  C  C234  1  0.54350000  0.31630000  0.24730000  1
  C  C235  1  0.91800000  0.31560000  0.98670000  1
  C  C236  1  0.34130000  0.30130000  0.65020000  1
  C  C237  1  0.23380000  0.30100000  0.99700000  1
  C  C238  1  0.00790000  0.29720000  0.95010000  1
  C  C239  1  0.16810000  0.29070000  0.95520000  1
  C  C240  1  0.41190000  0.28630000  0.60890000  1
  C  C241  1  0.93440000  0.28360000  0.90510000  1
  C  C242  1  0.26560000  0.26950000  0.91530000  1
  C  C243  1  0.79530000  0.25500000  0.82250000  1
  C  C244  1  0.29530000  0.24500000  0.67750000  1
  C  C245  1  0.76560000  0.23050000  0.58470000  1
  C  C246  1  0.43440000  0.21640000  0.59490000  1
  C  C247  1  0.91190000  0.21370000  0.89110000  1
  C  C248  1  0.66810000  0.20930000  0.54480000  1
  C  C249  1  0.50790000  0.20280000  0.54990000  1
  C  C250  1  0.73380000  0.19900000  0.50300000  1
  C  C251  1  0.84130000  0.19870000  0.84980000  1
  C  C252  1  0.41800000  0.18440000  0.51330000  1
  C  C253  1  0.04350000  0.18370000  0.25270000  1
  C  C254  1  0.64270000  0.18160000  0.46590000  1
  C  C255  1  0.24550000  0.17850000  0.51670000  1
  C  C256  1  0.31510000  0.17510000  0.66440000  1
  C  C257  1  0.48550000  0.17390000  0.47090000  1
  C  C258  1  0.72580000  0.17110000  0.34520000  1
  C  C259  1  0.62710000  0.16340000  0.38690000  1
  C  C260  1  0.38750000  0.16070000  0.62280000  1
  C  C261  1  0.98660000  0.14870000  0.67500000  1
  C  C262  1  0.53120000  0.13870000  0.84680000  1
  C  C263  1  0.37850000  0.13060000  0.15920000  1
  C  C264  1  0.47440000  0.12770000  0.20210000  1
  C  C265  1  0.81600000  0.12110000  0.83910000  1
  C  C266  1  0.26110000  0.11250000  0.69090000  1
  C  C267  1  0.10480000  0.10500000  0.82800000  1
  C  C268  1  0.03190000  0.10490000  0.26430000  1
  C  C269  1  0.10470000  0.09820000  0.69340000  1
  C  C270  1  0.66900000  0.09240000  0.84100000  1
  C  C271  1  0.53780000  0.07810000  0.70920000  1
  C  C272  1  0.94310000  0.07660000  0.83250000  1
  C  C273  1  0.36590000  0.06440000  0.70960000  1
  C  C274  1  0.05300000  0.03310000  0.71240000  1
  C  C275  1  0.22590000  0.02590000  0.16480000  1
  C  C276  1  0.64890000  0.01880000  0.83850000  1
  C  C277  1  0.84140000  0.01440000  0.27140000  1
  C  C278  1  0.92100000  0.00300000  0.83120000  1
  C  C279  1  0.31410000  0.00050000  0.72830000  1
  O  O280  1  0.11780000  0.91920000  0.74594000  1
  O  O281  1  0.76880000  0.90090000  0.83568000  1
  O  O282  1  0.58120000  0.89110000  0.76241000  1
  O  O283  1  0.38690000  0.85280000  0.80406000  1
  O  O284  1  0.35670000  0.83410000  0.69038000  1
  O  O285  1  0.28090000  0.82630000  0.57352000  1
  O  O286  1  0.13590000  0.81740000  0.65354000  1
  O  O287  1  0.82960000  0.78870000  0.73904000  1
  O  O288  1  0.06920000  0.78500000  0.76437000  1
  O  O289  1  0.56920000  0.71500000  0.73563000  1
  O  O290  1  0.32960000  0.71130000  0.76096000  1
  O  O291  1  0.63590000  0.68260000  0.84646000  1
  O  O292  1  0.78090000  0.67370000  0.92648000  1
  O  O293  1  0.85670000  0.66590000  0.80962000  1
  O  O294  1  0.88690000  0.64720000  0.69594000  1
  O  O295  1  0.08120000  0.60890000  0.73759000  1
  O  O296  1  0.26880000  0.59910000  0.66432000  1
  O  O297  1  0.61780000  0.58080000  0.75406000  1
  O  O298  1  0.38220000  0.41920000  0.24594000  1
  O  O299  1  0.73120000  0.40090000  0.33568000  1
  O  O300  1  0.91880000  0.39110000  0.26241000  1
  O  O301  1  0.11310000  0.35280000  0.30406000  1
  O  O302  1  0.14330000  0.33410000  0.19038000  1
  O  O303  1  0.21910000  0.32630000  0.07352000  1
  O  O304  1  0.36410000  0.31740000  0.15354000  1
  O  O305  1  0.67040000  0.28870000  0.23904000  1
  O  O306  1  0.43080000  0.28500000  0.26437000  1
  O  O307  1  0.93080000  0.21500000  0.23563000  1
  O  O308  1  0.17040000  0.21130000  0.26096000  1
  O  O309  1  0.86410000  0.18260000  0.34646000  1
  O  O310  1  0.71910000  0.17370000  0.42648000  1
  O  O311  1  0.64330000  0.16590000  0.30962000  1
  O  O312  1  0.61310000  0.14720000  0.19594000  1
  O  O313  1  0.41880000  0.10890000  0.23759000  1
  O  O314  1  0.23120000  0.09910000  0.16432000  1
  O  O315  1  0.88220000  0.08080000  0.25406000  1
