# generated using pymatgen
data_Co8H36C48N8O21
_symmetry_space_group_name_H-M   'P 1'
_cell_length_a   13.81470000
_cell_length_b   13.81470000
_cell_length_c   19.49110000
_cell_angle_alpha   90.00000000
_cell_angle_beta   90.00000000
_cell_angle_gamma   90.00000000
_symmetry_Int_Tables_number   1
_chemical_formula_structural   Co8H36C48N8O21
_chemical_formula_sum   'Co16 H72 C96 N16 O42'
_cell_volume   3719.79722492
_cell_formula_units_Z   2
loop_
 _symmetry_equiv_pos_site_id
 _symmetry_equiv_pos_as_xyz
  1  'x, y, z'
loop_
 _atom_site_type_symbol
 _atom_site_label
 _atom_site_symmetry_multiplicity
 _atom_site_fract_x
 _atom_site_fract_y
 _atom_site_fract_z
 _atom_site_occupancy
  Co  Co0  1  0.04313000  0.15017000  0.01164000  1
  Co  Co1  1  0.15017000  0.95687000  0.98836000  1
  Co  Co2  1  0.17966000  0.78445000  0.09570000  1
  Co  Co3  1  0.21555000  0.17966000  0.90430000  1
  Co  Co4  1  0.28445000  0.67966000  0.59570000  1
  Co  Co5  1  0.32034000  0.28445000  0.40430000  1
  Co  Co6  1  0.34983000  0.45687000  0.51164000  1
  Co  Co7  1  0.45687000  0.65017000  0.48836000  1
  Co  Co8  1  0.54313000  0.34983000  0.48836000  1
  Co  Co9  1  0.65017000  0.54313000  0.51164000  1
  Co  Co10  1  0.67966000  0.71555000  0.40430000  1
  Co  Co11  1  0.71555000  0.32034000  0.59570000  1
  Co  Co12  1  0.78445000  0.82034000  0.90430000  1
  Co  Co13  1  0.82034000  0.21555000  0.09570000  1
  Co  Co14  1  0.84983000  0.04313000  0.98836000  1
  Co  Co15  1  0.95687000  0.84983000  0.01164000  1
  H  H16  1  0.00150000  0.30280000  0.27020000  1
  H  H17  1  0.01670000  0.24900000  0.45470000  1
  H  H18  1  0.07210000  0.41190000  0.61780000  1
  H  H19  1  0.08730000  0.59980000  0.64980000  1
  H  H20  1  0.08810000  0.42790000  0.11780000  1
  H  H21  1  0.09980000  0.58730000  0.14980000  1
  H  H22  1  0.11330000  0.33810000  0.35450000  1
  H  H23  1  0.11350000  0.78150000  0.97520000  1
  H  H24  1  0.14060000  0.76220000  0.49220000  1
  H  H25  1  0.15170000  0.79030000  0.82680000  1
  H  H26  1  0.16190000  0.38670000  0.85450000  1
  H  H27  1  0.18500000  0.69370000  0.24050000  1
  H  H28  1  0.19370000  0.68500000  0.74050000  1
  H  H29  1  0.19720000  0.49850000  0.77020000  1
  H  H30  1  0.20970000  0.15170000  0.17320000  1
  H  H31  1  0.21850000  0.11350000  0.02480000  1
  H  H32  1  0.23780000  0.14060000  0.50780000  1
  H  H33  1  0.24900000  0.98330000  0.54530000  1
  H  H34  1  0.25100000  0.48330000  0.95470000  1
  H  H35  1  0.26220000  0.64060000  0.99220000  1
  H  H36  1  0.28150000  0.61350000  0.47520000  1
  H  H37  1  0.29030000  0.65170000  0.32680000  1
  H  H38  1  0.30280000  0.99850000  0.72980000  1
  H  H39  1  0.30630000  0.18500000  0.75950000  1
  H  H40  1  0.31500000  0.19370000  0.25950000  1
  H  H41  1  0.33810000  0.88670000  0.64550000  1
  H  H42  1  0.34830000  0.29030000  0.67320000  1
  H  H43  1  0.35940000  0.26220000  0.00780000  1
  H  H44  1  0.38650000  0.28150000  0.52480000  1
  H  H45  1  0.38670000  0.83810000  0.14550000  1
  H  H46  1  0.40020000  0.08730000  0.35020000  1
  H  H47  1  0.41190000  0.92790000  0.38220000  1
  H  H48  1  0.41270000  0.09980000  0.85020000  1
  H  H49  1  0.42790000  0.91190000  0.88220000  1
  H  H50  1  0.48330000  0.74900000  0.04530000  1
  H  H51  1  0.49850000  0.80280000  0.22980000  1
  H  H52  1  0.50150000  0.19720000  0.22980000  1
  H  H53  1  0.51670000  0.25100000  0.04530000  1
  H  H54  1  0.57210000  0.08810000  0.88220000  1
  H  H55  1  0.58730000  0.90020000  0.85020000  1
  H  H56  1  0.58810000  0.07210000  0.38220000  1
  H  H57  1  0.59980000  0.91270000  0.35020000  1
  H  H58  1  0.61330000  0.16190000  0.14550000  1
  H  H59  1  0.61350000  0.71850000  0.52480000  1
  H  H60  1  0.64060000  0.73780000  0.00780000  1
  H  H61  1  0.65170000  0.70970000  0.67320000  1
  H  H62  1  0.66190000  0.11330000  0.64550000  1
  H  H63  1  0.68500000  0.80630000  0.25950000  1
  H  H64  1  0.69370000  0.81500000  0.75950000  1
  H  H65  1  0.69720000  0.00150000  0.72980000  1
  H  H66  1  0.70970000  0.34830000  0.32680000  1
  H  H67  1  0.71850000  0.38650000  0.47520000  1
  H  H68  1  0.73780000  0.35940000  0.99220000  1
  H  H69  1  0.74900000  0.51670000  0.95470000  1
  H  H70  1  0.75100000  0.01670000  0.54530000  1
  H  H71  1  0.76220000  0.85940000  0.50780000  1
  H  H72  1  0.78150000  0.88650000  0.02480000  1
  H  H73  1  0.79030000  0.84830000  0.17320000  1
  H  H74  1  0.80280000  0.50150000  0.77020000  1
  H  H75  1  0.80630000  0.31500000  0.74050000  1
  H  H76  1  0.81500000  0.30630000  0.24050000  1
  H  H77  1  0.83810000  0.61330000  0.85450000  1
  H  H78  1  0.84830000  0.20970000  0.82680000  1
  H  H79  1  0.85940000  0.23780000  0.49220000  1
  H  H80  1  0.88650000  0.21850000  0.97520000  1
  H  H81  1  0.88670000  0.66190000  0.35450000  1
  H  H82  1  0.90020000  0.41270000  0.14980000  1
  H  H83  1  0.91190000  0.57210000  0.11780000  1
  H  H84  1  0.91270000  0.40020000  0.64980000  1
  H  H85  1  0.92790000  0.58810000  0.61780000  1
  H  H86  1  0.98330000  0.75100000  0.45470000  1
  H  H87  1  0.99850000  0.69720000  0.27020000  1
  C  C88  1  0.00310000  0.71840000  0.49520000  1
  C  C89  1  0.01890000  0.18810000  0.15950000  1
  C  C90  1  0.02850000  0.37650000  0.58970000  1
  C  C91  1  0.06060000  0.33480000  0.53260000  1
  C  C92  1  0.06490000  0.27640000  0.26770000  1
  C  C93  1  0.06710000  0.63100000  0.60880000  1
  C  C94  1  0.09060000  0.21650000  0.21400000  1
  C  C95  1  0.09690000  0.72360000  0.51810000  1
  C  C96  1  0.12350000  0.47150000  0.08970000  1
  C  C97  1  0.13100000  0.56710000  0.10880000  1
  C  C98  1  0.13250000  0.29750000  0.31760000  1
  C  C99  1  0.14930000  0.33640000  0.00760000  1
  C  C100  1  0.16360000  0.35070000  0.50760000  1
  C  C101  1  0.16520000  0.43940000  0.03260000  1
  C  C102  1  0.18690000  0.18840000  0.21110000  1
  C  C103  1  0.18810000  0.98110000  0.84050000  1
  C  C104  1  0.18840000  0.81310000  0.78890000  1
  C  C105  1  0.20250000  0.36750000  0.81760000  1
  C  C106  1  0.21380000  0.75050000  0.73680000  1
  C  C107  1  0.21650000  0.90940000  0.78600000  1
  C  C108  1  0.21840000  0.50310000  0.99520000  1
  C  C109  1  0.22360000  0.43510000  0.76770000  1
  C  C110  1  0.22360000  0.59690000  0.01810000  1
  C  C111  1  0.24950000  0.21380000  0.26320000  1
  C  C112  1  0.25050000  0.71380000  0.23680000  1
  C  C113  1  0.27640000  0.09690000  0.48190000  1
  C  C114  1  0.27640000  0.93510000  0.73230000  1
  C  C115  1  0.28160000  0.00310000  0.50480000  1
  C  C116  1  0.28350000  0.40940000  0.71400000  1
  C  C117  1  0.28620000  0.25050000  0.76320000  1
  C  C118  1  0.29750000  0.86750000  0.68240000  1
  C  C119  1  0.31160000  0.31310000  0.71110000  1
  C  C120  1  0.31190000  0.48110000  0.65950000  1
  C  C121  1  0.31310000  0.68840000  0.28890000  1
  C  C122  1  0.33480000  0.93940000  0.46740000  1
  C  C123  1  0.33640000  0.85070000  0.99240000  1
  C  C124  1  0.35070000  0.83640000  0.49240000  1
  C  C125  1  0.36750000  0.79750000  0.18240000  1
  C  C126  1  0.36900000  0.06710000  0.39120000  1
  C  C127  1  0.37650000  0.97150000  0.41030000  1
  C  C128  1  0.40310000  0.22360000  0.98190000  1
  C  C129  1  0.40940000  0.71650000  0.28600000  1
  C  C130  1  0.43290000  0.13100000  0.89120000  1
  C  C131  1  0.43510000  0.77640000  0.23230000  1
  C  C132  1  0.43940000  0.83480000  0.96740000  1
  C  C133  1  0.47150000  0.87650000  0.91030000  1
  C  C134  1  0.48110000  0.68810000  0.34050000  1
  C  C135  1  0.49690000  0.21840000  0.00480000  1
  C  C136  1  0.50310000  0.78160000  0.00480000  1
  C  C137  1  0.51890000  0.31190000  0.34050000  1
  C  C138  1  0.52850000  0.12350000  0.91030000  1
  C  C139  1  0.56060000  0.16520000  0.96740000  1
  C  C140  1  0.56490000  0.22360000  0.23230000  1
  C  C141  1  0.56710000  0.86900000  0.89120000  1
  C  C142  1  0.59060000  0.28350000  0.28600000  1
  C  C143  1  0.59690000  0.77640000  0.98190000  1
  C  C144  1  0.62350000  0.02850000  0.41030000  1
  C  C145  1  0.63100000  0.93290000  0.39120000  1
  C  C146  1  0.63250000  0.20250000  0.18240000  1
  C  C147  1  0.64930000  0.16360000  0.49240000  1
  C  C148  1  0.66360000  0.14930000  0.99240000  1
  C  C149  1  0.66520000  0.06060000  0.46740000  1
  C  C150  1  0.68690000  0.31160000  0.28890000  1
  C  C151  1  0.68810000  0.51890000  0.65950000  1
  C  C152  1  0.68840000  0.68690000  0.71110000  1
  C  C153  1  0.70250000  0.13250000  0.68240000  1
  C  C154  1  0.71380000  0.74950000  0.76320000  1
  C  C155  1  0.71650000  0.59060000  0.71400000  1
  C  C156  1  0.71840000  0.99690000  0.50480000  1
  C  C157  1  0.72360000  0.06490000  0.73230000  1
  C  C158  1  0.72360000  0.90310000  0.48190000  1
  C  C159  1  0.74950000  0.28620000  0.23680000  1
  C  C160  1  0.75050000  0.78620000  0.26320000  1
  C  C161  1  0.77640000  0.40310000  0.01810000  1
  C  C162  1  0.77640000  0.56490000  0.76770000  1
  C  C163  1  0.78160000  0.49690000  0.99520000  1
  C  C164  1  0.78350000  0.09060000  0.78600000  1
  C  C165  1  0.78620000  0.24950000  0.73680000  1
  C  C166  1  0.79750000  0.63250000  0.81760000  1
  C  C167  1  0.81160000  0.18690000  0.78890000  1
  C  C168  1  0.81190000  0.01890000  0.84050000  1
  C  C169  1  0.81310000  0.81160000  0.21110000  1
  C  C170  1  0.83480000  0.56060000  0.03260000  1
  C  C171  1  0.83640000  0.64930000  0.50760000  1
  C  C172  1  0.85070000  0.66360000  0.00760000  1
  C  C173  1  0.86750000  0.70250000  0.31760000  1
  C  C174  1  0.86900000  0.43290000  0.10880000  1
  C  C175  1  0.87650000  0.52850000  0.08970000  1
  C  C176  1  0.90310000  0.27640000  0.51810000  1
  C  C177  1  0.90940000  0.78350000  0.21400000  1
  C  C178  1  0.93290000  0.36900000  0.60880000  1
  C  C179  1  0.93510000  0.72360000  0.26770000  1
  C  C180  1  0.93940000  0.66520000  0.53260000  1
  C  C181  1  0.97150000  0.62350000  0.58970000  1
  C  C182  1  0.98110000  0.81190000  0.15950000  1
  C  C183  1  0.99690000  0.28160000  0.49520000  1
  N  N184  1  0.13200000  0.67910000  0.57313000  1
  N  N185  1  0.17910000  0.63200000  0.07313000  1
  N  N186  1  0.22480000  0.26350000  0.31711000  1
  N  N187  1  0.23650000  0.27520000  0.81711000  1
  N  N188  1  0.26350000  0.77520000  0.68289000  1
  N  N189  1  0.27520000  0.76350000  0.18289000  1
  N  N190  1  0.32090000  0.13200000  0.42687000  1
  N  N191  1  0.36800000  0.17910000  0.92687000  1
  N  N192  1  0.63200000  0.82090000  0.92687000  1
  N  N193  1  0.67910000  0.86800000  0.42687000  1
  N  N194  1  0.72480000  0.23650000  0.18289000  1
  N  N195  1  0.73650000  0.22480000  0.68289000  1
  N  N196  1  0.76350000  0.72480000  0.81711000  1
  N  N197  1  0.77520000  0.73650000  0.31711000  1
  N  N198  1  0.82090000  0.36800000  0.07313000  1
  N  N199  1  0.86800000  0.32090000  0.57313000  1
  O  O200  1  0.00000000  0.00000000  0.00000000  1
  O  O201  1  0.04600000  0.12350000  0.11790000  1
  O  O202  1  0.06110000  0.77000000  0.16038000  1
  O  O203  1  0.08340000  0.28920000  0.03524000  1
  O  O204  1  0.10049000  0.81969000  0.00813000  1
  O  O205  1  0.12350000  0.95400000  0.88210000  1
  O  O206  1  0.18031000  0.10049000  0.99187000  1
  O  O207  1  0.19280000  0.29430000  0.46086000  1
  O  O208  1  0.20570000  0.30720000  0.96086000  1
  O  O209  1  0.21080000  0.41660000  0.53524000  1
  O  O210  1  0.23000000  0.06110000  0.83962000  1
  O  O211  1  0.27000000  0.56110000  0.66038000  1
  O  O212  1  0.28920000  0.91660000  0.96476000  1
  O  O213  1  0.29430000  0.80720000  0.53914000  1
  O  O214  1  0.30720000  0.79430000  0.03914000  1
  O  O215  1  0.31969000  0.60049000  0.50813000  1
  O  O216  1  0.37650000  0.45400000  0.61790000  1
  O  O217  1  0.39951000  0.31969000  0.49187000  1
  O  O218  1  0.41660000  0.78920000  0.46476000  1
  O  O219  1  0.43890000  0.27000000  0.33962000  1
  O  O220  1  0.45400000  0.62350000  0.38210000  1
  O  O221  1  0.50000000  0.50000000  0.50000000  1
  O  O222  1  0.54600000  0.37650000  0.38210000  1
  O  O223  1  0.56110000  0.73000000  0.33962000  1
  O  O224  1  0.58340000  0.21080000  0.46476000  1
  O  O225  1  0.60049000  0.68031000  0.49187000  1
  O  O226  1  0.62350000  0.54600000  0.61790000  1
  O  O227  1  0.68031000  0.39951000  0.50813000  1
  O  O228  1  0.69280000  0.20570000  0.03914000  1
  O  O229  1  0.70570000  0.19280000  0.53914000  1
  O  O230  1  0.71080000  0.08340000  0.96476000  1
  O  O231  1  0.73000000  0.43890000  0.66038000  1
  O  O232  1  0.77000000  0.93890000  0.83962000  1
  O  O233  1  0.78920000  0.58340000  0.53524000  1
  O  O234  1  0.79430000  0.69280000  0.96086000  1
  O  O235  1  0.80720000  0.70570000  0.46086000  1
  O  O236  1  0.81969000  0.89951000  0.99187000  1
  O  O237  1  0.87650000  0.04600000  0.88210000  1
  O  O238  1  0.89951000  0.18031000  0.00813000  1
  O  O239  1  0.91660000  0.71080000  0.03524000  1
  O  O240  1  0.93890000  0.23000000  0.16038000  1
  O  O241  1  0.95400000  0.87650000  0.11790000  1
