# generated using pymatgen
data_EuH18C24(NO3)2
_symmetry_space_group_name_H-M   'P 1'
_cell_length_a   10.05460000
_cell_length_b   17.74120000
_cell_length_c   19.81160000
_cell_angle_alpha   90.00000000
_cell_angle_beta   90.00000000
_cell_angle_gamma   90.00000000
_symmetry_Int_Tables_number   1
_chemical_formula_structural   EuH18C24(NO3)2
_chemical_formula_sum   'Eu4 H72 C96 N8 O24'
_cell_volume   3534.00647226
_cell_formula_units_Z   4
loop_
 _symmetry_equiv_pos_site_id
 _symmetry_equiv_pos_as_xyz
  1  'x, y, z'
loop_
 _atom_site_type_symbol
 _atom_site_label
 _atom_site_symmetry_multiplicity
 _atom_site_fract_x
 _atom_site_fract_y
 _atom_site_fract_z
 _atom_site_occupancy
  Eu  Eu0  1  0.03159000  0.75000000  0.75000000  1
  Eu  Eu1  1  0.46841000  0.25000000  0.25000000  1
  Eu  Eu2  1  0.53159000  0.75000000  0.75000000  1
  Eu  Eu3  1  0.96841000  0.25000000  0.25000000  1
  H  H4  1  0.01200000  0.72750000  0.44510000  1
  H  H5  1  0.01200000  0.77250000  0.05490000  1
  H  H6  1  0.02670000  0.24450000  0.05890000  1
  H  H7  1  0.02670000  0.25550000  0.44110000  1
  H  H8  1  0.05130000  0.06140000  0.18490000  1
  H  H9  1  0.05130000  0.43860000  0.31510000  1
  H  H10  1  0.12490000  0.50530000  0.40680000  1
  H  H11  1  0.12490000  0.99470000  0.09320000  1
  H  H12  1  0.12520000  0.63650000  0.95890000  1
  H  H13  1  0.12520000  0.86350000  0.54110000  1
  H  H14  1  0.13570000  0.15920000  0.88080000  1
  H  H15  1  0.13570000  0.34080000  0.61920000  1
  H  H16  1  0.17160000  0.61430000  0.07210000  1
  H  H17  1  0.17160000  0.88570000  0.42790000  1
  H  H18  1  0.19510000  0.56120000  0.49080000  1
  H  H19  1  0.19510000  0.93880000  0.00920000  1
  H  H20  1  0.23820000  0.12920000  0.41750000  1
  H  H21  1  0.23820000  0.37080000  0.08250000  1
  H  H22  1  0.26180000  0.62920000  0.58250000  1
  H  H23  1  0.26180000  0.87080000  0.91750000  1
  H  H24  1  0.30490000  0.06120000  0.50920000  1
  H  H25  1  0.30490000  0.43880000  0.99080000  1
  H  H26  1  0.32840000  0.11430000  0.92790000  1
  H  H27  1  0.32840000  0.38570000  0.57210000  1
  H  H28  1  0.36430000  0.65920000  0.11920000  1
  H  H29  1  0.36430000  0.84080000  0.38080000  1
  H  H30  1  0.37480000  0.13650000  0.04110000  1
  H  H31  1  0.37480000  0.36350000  0.45890000  1
  H  H32  1  0.37510000  0.00530000  0.59320000  1
  H  H33  1  0.37510000  0.49470000  0.90680000  1
  H  H34  1  0.44870000  0.56140000  0.81510000  1
  H  H35  1  0.44870000  0.93860000  0.68490000  1
  H  H36  1  0.47330000  0.74450000  0.94110000  1
  H  H37  1  0.47330000  0.75550000  0.55890000  1
  H  H38  1  0.48800000  0.22750000  0.55490000  1
  H  H39  1  0.48800000  0.27250000  0.94510000  1
  H  H40  1  0.51200000  0.72750000  0.05490000  1
  H  H41  1  0.51200000  0.77250000  0.44510000  1
  H  H42  1  0.52670000  0.24450000  0.44110000  1
  H  H43  1  0.52670000  0.25550000  0.05890000  1
  H  H44  1  0.55130000  0.06140000  0.31510000  1
  H  H45  1  0.55130000  0.43860000  0.18490000  1
  H  H46  1  0.62490000  0.50530000  0.09320000  1
  H  H47  1  0.62490000  0.99470000  0.40680000  1
  H  H48  1  0.62520000  0.63650000  0.54110000  1
  H  H49  1  0.62520000  0.86350000  0.95890000  1
  H  H50  1  0.63570000  0.15920000  0.61920000  1
  H  H51  1  0.63570000  0.34080000  0.88080000  1
  H  H52  1  0.67160000  0.61430000  0.42790000  1
  H  H53  1  0.67160000  0.88570000  0.07210000  1
  H  H54  1  0.69510000  0.56120000  0.00920000  1
  H  H55  1  0.69510000  0.93880000  0.49080000  1
  H  H56  1  0.73820000  0.12920000  0.08250000  1
  H  H57  1  0.73820000  0.37080000  0.41750000  1
  H  H58  1  0.76180000  0.62920000  0.91750000  1
  H  H59  1  0.76180000  0.87080000  0.58250000  1
  H  H60  1  0.80490000  0.06120000  0.99080000  1
  H  H61  1  0.80490000  0.43880000  0.50920000  1
  H  H62  1  0.82840000  0.11430000  0.57210000  1
  H  H63  1  0.82840000  0.38570000  0.92790000  1
  H  H64  1  0.86430000  0.65920000  0.38080000  1
  H  H65  1  0.86430000  0.84080000  0.11920000  1
  H  H66  1  0.87480000  0.13650000  0.45890000  1
  H  H67  1  0.87480000  0.36350000  0.04110000  1
  H  H68  1  0.87510000  0.00530000  0.90680000  1
  H  H69  1  0.87510000  0.49470000  0.59320000  1
  H  H70  1  0.94870000  0.56140000  0.68490000  1
  H  H71  1  0.94870000  0.93860000  0.81510000  1
  H  H72  1  0.97330000  0.74450000  0.55890000  1
  H  H73  1  0.97330000  0.75550000  0.94110000  1
  H  H74  1  0.98800000  0.22750000  0.94510000  1
  H  H75  1  0.98800000  0.27250000  0.55490000  1
  C  C76  1  0.00290000  0.06240000  0.14488000  1
  C  C77  1  0.00290000  0.43760000  0.35512000  1
  C  C78  1  0.02390000  0.52103000  0.52980000  1
  C  C79  1  0.02390000  0.97897000  0.97020000  1
  C  C80  1  0.04620000  0.02210000  0.08992000  1
  C  C81  1  0.04620000  0.47790000  0.41008000  1
  C  C82  1  0.06460000  0.20790000  0.96470000  1
  C  C83  1  0.06460000  0.29210000  0.53530000  1
  C  C84  1  0.08880000  0.21910000  0.03255000  1
  C  C85  1  0.08880000  0.28090000  0.46745000  1
  C  C86  1  0.14230000  0.56160000  0.52931000  1
  C  C87  1  0.14230000  0.93840000  0.97069000  1
  C  C88  1  0.15360000  0.16800000  0.92620000  1
  C  C89  1  0.15360000  0.33200000  0.57380000  1
  C  C90  1  0.18260000  0.60210000  0.58429000  1
  C  C91  1  0.18260000  0.89790000  0.91571000  1
  C  C92  1  0.20420000  0.65400000  0.97759000  1
  C  C93  1  0.20420000  0.84600000  0.52241000  1
  C  C94  1  0.20640000  0.19230000  0.06180000  1
  C  C95  1  0.20640000  0.30770000  0.43820000  1
  C  C96  1  0.22800000  0.20427000  0.13590000  1
  C  C97  1  0.22800000  0.29573000  0.36410000  1
  C  C98  1  0.23170000  0.64120000  0.04570000  1
  C  C99  1  0.23170000  0.85880000  0.45430000  1
  C  C100  1  0.26830000  0.14120000  0.95430000  1
  C  C101  1  0.26830000  0.35880000  0.54570000  1
  C  C102  1  0.27200000  0.70427000  0.86410000  1
  C  C103  1  0.27200000  0.79573000  0.63590000  1
  C  C104  1  0.29360000  0.69230000  0.93820000  1
  C  C105  1  0.29360000  0.80770000  0.56180000  1
  C  C106  1  0.29580000  0.15400000  0.02241000  1
  C  C107  1  0.29580000  0.34600000  0.47759000  1
  C  C108  1  0.31740000  0.10210000  0.41571000  1
  C  C109  1  0.31740000  0.39790000  0.08429000  1
  C  C110  1  0.34640000  0.66800000  0.07380000  1
  C  C111  1  0.34640000  0.83200000  0.42620000  1
  C  C112  1  0.35770000  0.06160000  0.47069000  1
  C  C113  1  0.35770000  0.43840000  0.02931000  1
  C  C114  1  0.41120000  0.71910000  0.96745000  1
  C  C115  1  0.41120000  0.78090000  0.53255000  1
  C  C116  1  0.43540000  0.70790000  0.03530000  1
  C  C117  1  0.43540000  0.79210000  0.46470000  1
  C  C118  1  0.45380000  0.52210000  0.91008000  1
  C  C119  1  0.45380000  0.97790000  0.58992000  1
  C  C120  1  0.47610000  0.02103000  0.47020000  1
  C  C121  1  0.47610000  0.47897000  0.02980000  1
  C  C122  1  0.49710000  0.56240000  0.85512000  1
  C  C123  1  0.49710000  0.93760000  0.64488000  1
  C  C124  1  0.50290000  0.06240000  0.35512000  1
  C  C125  1  0.50290000  0.43760000  0.14488000  1
  C  C126  1  0.52390000  0.52103000  0.97020000  1
  C  C127  1  0.52390000  0.97897000  0.52980000  1
  C  C128  1  0.54620000  0.02210000  0.41008000  1
  C  C129  1  0.54620000  0.47790000  0.08992000  1
  C  C130  1  0.56460000  0.20790000  0.53530000  1
  C  C131  1  0.56460000  0.29210000  0.96470000  1
  C  C132  1  0.58880000  0.21910000  0.46745000  1
  C  C133  1  0.58880000  0.28090000  0.03255000  1
  C  C134  1  0.64230000  0.56160000  0.97069000  1
  C  C135  1  0.64230000  0.93840000  0.52931000  1
  C  C136  1  0.65360000  0.16800000  0.57380000  1
  C  C137  1  0.65360000  0.33200000  0.92620000  1
  C  C138  1  0.68260000  0.60210000  0.91571000  1
  C  C139  1  0.68260000  0.89790000  0.58429000  1
  C  C140  1  0.70420000  0.65400000  0.52241000  1
  C  C141  1  0.70420000  0.84600000  0.97759000  1
  C  C142  1  0.70640000  0.19230000  0.43820000  1
  C  C143  1  0.70640000  0.30770000  0.06180000  1
  C  C144  1  0.72800000  0.20427000  0.36410000  1
  C  C145  1  0.72800000  0.29573000  0.13590000  1
  C  C146  1  0.73170000  0.64120000  0.45430000  1
  C  C147  1  0.73170000  0.85880000  0.04570000  1
  C  C148  1  0.76830000  0.14120000  0.54570000  1
  C  C149  1  0.76830000  0.35880000  0.95430000  1
  C  C150  1  0.77200000  0.70427000  0.63590000  1
  C  C151  1  0.77200000  0.79573000  0.86410000  1
  C  C152  1  0.79360000  0.69230000  0.56180000  1
  C  C153  1  0.79360000  0.80770000  0.93820000  1
  C  C154  1  0.79580000  0.15400000  0.47759000  1
  C  C155  1  0.79580000  0.34600000  0.02241000  1
  C  C156  1  0.81740000  0.10210000  0.08429000  1
  C  C157  1  0.81740000  0.39790000  0.41571000  1
  C  C158  1  0.84640000  0.66800000  0.42620000  1
  C  C159  1  0.84640000  0.83200000  0.07380000  1
  C  C160  1  0.85770000  0.06160000  0.02931000  1
  C  C161  1  0.85770000  0.43840000  0.47069000  1
  C  C162  1  0.91120000  0.71910000  0.53255000  1
  C  C163  1  0.91120000  0.78090000  0.96745000  1
  C  C164  1  0.93540000  0.70790000  0.46470000  1
  C  C165  1  0.93540000  0.79210000  0.03530000  1
  C  C166  1  0.95380000  0.52210000  0.58992000  1
  C  C167  1  0.95380000  0.97790000  0.91008000  1
  C  C168  1  0.97610000  0.02103000  0.02980000  1
  C  C169  1  0.97610000  0.47897000  0.47020000  1
  C  C170  1  0.99710000  0.56240000  0.64488000  1
  C  C171  1  0.99710000  0.93760000  0.85512000  1
  N  N172  1  0.10930000  0.60342000  0.64085000  1
  N  N173  1  0.10930000  0.89658000  0.85915000  1
  N  N174  1  0.39070000  0.10342000  0.35915000  1
  N  N175  1  0.39070000  0.39658000  0.14085000  1
  N  N176  1  0.60930000  0.60342000  0.85915000  1
  N  N177  1  0.60930000  0.89658000  0.64085000  1
  N  N178  1  0.89070000  0.10342000  0.14085000  1
  N  N179  1  0.89070000  0.39658000  0.35915000  1
  O  O180  1  0.12810000  0.21970000  0.17027000  1
  O  O181  1  0.12810000  0.28030000  0.32973000  1
  O  O182  1  0.14920000  0.64386000  0.69403000  1
  O  O183  1  0.14920000  0.85614000  0.80597000  1
  O  O184  1  0.15710000  0.69754000  0.84042000  1
  O  O185  1  0.15710000  0.80246000  0.65958000  1
  O  O186  1  0.34290000  0.19754000  0.15958000  1
  O  O187  1  0.34290000  0.30246000  0.34042000  1
  O  O188  1  0.35080000  0.14386000  0.30597000  1
  O  O189  1  0.35080000  0.35614000  0.19403000  1
  O  O190  1  0.37190000  0.71970000  0.82973000  1
  O  O191  1  0.37190000  0.78030000  0.67027000  1
  O  O192  1  0.62810000  0.21970000  0.32973000  1
  O  O193  1  0.62810000  0.28030000  0.17027000  1
  O  O194  1  0.64920000  0.64386000  0.80597000  1
  O  O195  1  0.64920000  0.85614000  0.69403000  1
  O  O196  1  0.65710000  0.69754000  0.65958000  1
  O  O197  1  0.65710000  0.80246000  0.84042000  1
  O  O198  1  0.84290000  0.19754000  0.34042000  1
  O  O199  1  0.84290000  0.30246000  0.15958000  1
  O  O200  1  0.85080000  0.14386000  0.19403000  1
  O  O201  1  0.85080000  0.35614000  0.30597000  1
  O  O202  1  0.87190000  0.71970000  0.67027000  1
  O  O203  1  0.87190000  0.78030000  0.82973000  1
