# generated using pymatgen
data_CaH6(C3O)4
_symmetry_space_group_name_H-M   'P 1'
_cell_length_a   6.70170000
_cell_length_b   14.39580000
_cell_length_c   14.94050000
_cell_angle_alpha   90.00000000
_cell_angle_beta   90.00000000
_cell_angle_gamma   90.00000000
_symmetry_Int_Tables_number   1
_chemical_formula_structural   CaH6(C3O)4
_chemical_formula_sum   'Ca4 H24 C48 O16'
_cell_volume   1441.40465109
_cell_formula_units_Z   4
loop_
 _symmetry_equiv_pos_site_id
 _symmetry_equiv_pos_as_xyz
  1  'x, y, z'
loop_
 _atom_site_type_symbol
 _atom_site_label
 _atom_site_symmetry_multiplicity
 _atom_site_fract_x
 _atom_site_fract_y
 _atom_site_fract_z
 _atom_site_occupancy
  Ca  Ca0  1  0.13673000  0.30386000  0.04193000  1
  Ca  Ca1  1  0.36327000  0.69614000  0.54193000  1
  Ca  Ca2  1  0.63673000  0.19614000  0.95807000  1
  Ca  Ca3  1  0.86327000  0.80386000  0.45807000  1
  H  H4  1  0.10870000  0.04860000  0.63750000  1
  H  H5  1  0.12160000  0.83880000  0.04830000  1
  H  H6  1  0.12420000  0.99310000  0.01180000  1
  H  H7  1  0.13130000  0.72630000  0.93640000  1
  H  H8  1  0.13510000  0.76750000  0.78990000  1
  H  H9  1  0.14660000  0.16020000  0.74880000  1
  H  H10  1  0.35340000  0.83980000  0.24880000  1
  H  H11  1  0.36490000  0.23250000  0.28990000  1
  H  H12  1  0.36870000  0.27370000  0.43640000  1
  H  H13  1  0.37580000  0.00690000  0.51180000  1
  H  H14  1  0.37840000  0.16120000  0.54830000  1
  H  H15  1  0.39130000  0.95140000  0.13750000  1
  H  H16  1  0.60870000  0.45140000  0.36250000  1
  H  H17  1  0.62160000  0.66120000  0.95170000  1
  H  H18  1  0.62420000  0.50690000  0.98820000  1
  H  H19  1  0.63130000  0.77370000  0.06360000  1
  H  H20  1  0.63510000  0.73250000  0.21010000  1
  H  H21  1  0.64660000  0.33980000  0.25120000  1
  H  H22  1  0.85340000  0.66020000  0.75120000  1
  H  H23  1  0.86490000  0.26750000  0.71010000  1
  H  H24  1  0.86870000  0.22630000  0.56360000  1
  H  H25  1  0.87580000  0.49310000  0.48820000  1
  H  H26  1  0.87840000  0.33880000  0.45170000  1
  H  H27  1  0.89130000  0.54860000  0.86250000  1
  C  C28  1  0.10860000  0.87012000  0.63829000  1
  C  C29  1  0.11910000  0.93773000  0.71649000  1
  C  C30  1  0.11940000  0.02986000  0.69694000  1
  C  C31  1  0.12500000  0.85666000  0.98849000  1
  C  C32  1  0.12540000  0.94867000  0.96656000  1
  C  C33  1  0.12750000  0.90853000  0.80747000  1
  C  C34  1  0.12780000  0.97751000  0.87633000  1
  C  C35  1  0.12950000  0.78883000  0.92088000  1
  C  C36  1  0.13130000  0.81344000  0.83362000  1
  C  C37  1  0.13440000  0.07299000  0.85208000  1
  C  C38  1  0.13530000  0.09784000  0.76444000  1
  C  C39  1  0.13680000  0.14910000  0.92122000  1
  C  C40  1  0.36320000  0.85090000  0.42122000  1
  C  C41  1  0.36470000  0.90216000  0.26444000  1
  C  C42  1  0.36560000  0.92701000  0.35208000  1
  C  C43  1  0.36870000  0.18656000  0.33362000  1
  C  C44  1  0.37050000  0.21117000  0.42088000  1
  C  C45  1  0.37220000  0.02249000  0.37633000  1
  C  C46  1  0.37250000  0.09147000  0.30747000  1
  C  C47  1  0.37460000  0.05133000  0.46656000  1
  C  C48  1  0.37500000  0.14334000  0.48849000  1
  C  C49  1  0.38060000  0.97014000  0.19694000  1
  C  C50  1  0.38090000  0.06227000  0.21649000  1
  C  C51  1  0.39140000  0.12988000  0.13829000  1
  C  C52  1  0.60860000  0.62988000  0.36171000  1
  C  C53  1  0.61910000  0.56227000  0.28351000  1
  C  C54  1  0.61940000  0.47014000  0.30306000  1
  C  C55  1  0.62500000  0.64334000  0.01151000  1
  C  C56  1  0.62540000  0.55133000  0.03344000  1
  C  C57  1  0.62750000  0.59147000  0.19253000  1
  C  C58  1  0.62780000  0.52249000  0.12367000  1
  C  C59  1  0.62950000  0.71117000  0.07912000  1
  C  C60  1  0.63130000  0.68656000  0.16638000  1
  C  C61  1  0.63440000  0.42701000  0.14792000  1
  C  C62  1  0.63530000  0.40216000  0.23556000  1
  C  C63  1  0.63680000  0.35090000  0.07878000  1
  C  C64  1  0.86320000  0.64910000  0.57878000  1
  C  C65  1  0.86470000  0.59784000  0.73556000  1
  C  C66  1  0.86560000  0.57299000  0.64792000  1
  C  C67  1  0.86870000  0.31344000  0.66638000  1
  C  C68  1  0.87050000  0.28883000  0.57912000  1
  C  C69  1  0.87220000  0.47751000  0.62367000  1
  C  C70  1  0.87250000  0.40853000  0.69253000  1
  C  C71  1  0.87460000  0.44867000  0.53344000  1
  C  C72  1  0.87500000  0.35666000  0.51151000  1
  C  C73  1  0.88060000  0.52986000  0.80306000  1
  C  C74  1  0.88090000  0.43773000  0.78351000  1
  C  C75  1  0.89140000  0.37012000  0.86171000  1
  O  O76  1  0.00760000  0.39130000  0.92411000  1
  O  O77  1  0.00807000  0.65653000  0.52528000  1
  O  O78  1  0.21720000  0.79948000  0.64109000  1
  O  O79  1  0.21874000  0.79547000  0.42152000  1
  O  O80  1  0.28126000  0.20453000  0.92152000  1
  O  O81  1  0.28280000  0.20052000  0.14109000  1
  O  O82  1  0.49193000  0.34347000  0.02528000  1
  O  O83  1  0.49240000  0.60870000  0.42411000  1
  O  O84  1  0.50760000  0.10870000  0.07589000  1
  O  O85  1  0.50807000  0.84347000  0.47472000  1
  O  O86  1  0.71720000  0.70052000  0.35891000  1
  O  O87  1  0.71874000  0.70453000  0.57848000  1
  O  O88  1  0.78126000  0.29547000  0.07848000  1
  O  O89  1  0.78280000  0.29948000  0.85891000  1
  O  O90  1  0.99193000  0.15653000  0.97472000  1
  O  O91  1  0.99240000  0.89130000  0.57589000  1
