# generated using pymatgen
data_ThPH12C21O8
_symmetry_space_group_name_H-M   'P 1'
_cell_length_a   11.79700000
_cell_length_b   12.88900000
_cell_length_c   14.03700000
_cell_angle_alpha   66.06500000
_cell_angle_beta   78.73100000
_cell_angle_gamma   69.92400000
_symmetry_Int_Tables_number   1
_chemical_formula_structural   ThPH12C21O8
_chemical_formula_sum   'Th2 P2 H24 C42 O16'
_cell_volume   1828.34839281
_cell_formula_units_Z   2
loop_
 _symmetry_equiv_pos_site_id
 _symmetry_equiv_pos_as_xyz
  1  'x, y, z'
loop_
 _atom_site_type_symbol
 _atom_site_label
 _atom_site_symmetry_multiplicity
 _atom_site_fract_x
 _atom_site_fract_y
 _atom_site_fract_z
 _atom_site_occupancy
  Th  Th0  1  0.46025000  0.44961000  0.39887000  1
  Th  Th1  1  0.53975000  0.55039000  0.60113000  1
  P  P2  1  0.27660000  0.34430000  0.27850000  1
  P  P3  1  0.72340000  0.65570000  0.72150000  1
  H  H4  1  0.06670000  0.30820000  0.23360000  1
  H  H5  1  0.08030000  0.46120000  0.56570000  1
  H  H6  1  0.12310000  0.49300000  0.37870000  1
  H  H7  1  0.13740000  0.63430000  0.71970000  1
  H  H8  1  0.18260000  0.15840000  0.42680000  1
  H  H9  1  0.26360000  0.95520000  0.51050000  1
  H  H10  1  0.30080000  0.55430000  0.11960000  1
  H  H11  1  0.32850000  0.23180000  0.12650000  1
  H  H12  1  0.35490000  0.61570000  0.94320000  1
  H  H13  1  0.38980000  0.29180000  0.94890000  1
  H  H14  1  0.42090000  0.02900000  0.65690000  1
  H  H15  1  0.49840000  0.82610000  0.73580000  1
  H  H16  1  0.50160000  0.17390000  0.26420000  1
  H  H17  1  0.57910000  0.97100000  0.34310000  1
  H  H18  1  0.61020000  0.70820000  0.05110000  1
  H  H19  1  0.64510000  0.38430000  0.05680000  1
  H  H20  1  0.67150000  0.76820000  0.87350000  1
  H  H21  1  0.69920000  0.44570000  0.88040000  1
  H  H22  1  0.73640000  0.04480000  0.48950000  1
  H  H23  1  0.81740000  0.84160000  0.57320000  1
  H  H24  1  0.86260000  0.36570000  0.28030000  1
  H  H25  1  0.87690000  0.50700000  0.62130000  1
  H  H26  1  0.91970000  0.53880000  0.43430000  1
  H  H27  1  0.93330000  0.69180000  0.76640000  1
  C  C28  1  0.03800000  0.35380000  0.27510000  1
  C  C29  1  0.05080000  0.50930000  0.60490000  1
  C  C30  1  0.07200000  0.46210000  0.36250000  1
  C  C31  1  0.08400000  0.61350000  0.69500000  1
  C  C32  1  0.11700000  0.38930000  0.30730000  1
  C  C33  1  0.12750000  0.55130000  0.63010000  1
  C  C34  1  0.25690000  0.52690000  0.58800000  1
  C  C35  1  0.26220000  0.12070000  0.41030000  1
  C  C36  1  0.31030000  0.38680000  0.14080000  1
  C  C37  1  0.31050000  0.99930000  0.46020000  1
  C  C38  1  0.31860000  0.50170000  0.08530000  1
  C  C39  1  0.33290000  0.18590000  0.33590000  1
  C  C40  1  0.33580000  0.30790000  0.09010000  1
  C  C41  1  0.35270000  0.53800000  0.98040000  1
  C  C42  1  0.37280000  0.34390000  0.98370000  1
  C  C43  1  0.38400000  0.45750000  0.93010000  1
  C  C44  1  0.42880000  0.94420000  0.43500000  1
  C  C45  1  0.43310000  0.49300000  0.81770000  1
  C  C46  1  0.45340000  0.12960000  0.31230000  1
  C  C47  1  0.47830000  0.81230000  0.48970000  1
  C  C48  1  0.50000000  0.00920000  0.36040000  1
  C  C49  1  0.50000000  0.99080000  0.63960000  1
  C  C50  1  0.52170000  0.18770000  0.51030000  1
  C  C51  1  0.54660000  0.87040000  0.68770000  1
  C  C52  1  0.56690000  0.50700000  0.18230000  1
  C  C53  1  0.57120000  0.05580000  0.56500000  1
  C  C54  1  0.61600000  0.54250000  0.06990000  1
  C  C55  1  0.62720000  0.65610000  0.01630000  1
  C  C56  1  0.64730000  0.46200000  0.01960000  1
  C  C57  1  0.66420000  0.69210000  0.90990000  1
  C  C58  1  0.66710000  0.81410000  0.66410000  1
  C  C59  1  0.68140000  0.49830000  0.91470000  1
  C  C60  1  0.68950000  0.00070000  0.53980000  1
  C  C61  1  0.68970000  0.61320000  0.85920000  1
  C  C62  1  0.73780000  0.87930000  0.58970000  1
  C  C63  1  0.74310000  0.47310000  0.41200000  1
  C  C64  1  0.87250000  0.44870000  0.36990000  1
  C  C65  1  0.88300000  0.61070000  0.69270000  1
  C  C66  1  0.91600000  0.38650000  0.30500000  1
  C  C67  1  0.92800000  0.53790000  0.63750000  1
  C  C68  1  0.94920000  0.49070000  0.39510000  1
  C  C69  1  0.96200000  0.64620000  0.72490000  1
  O  O70  1  0.28250000  0.48700000  0.51740000  1
  O  O71  1  0.32630000  0.55690000  0.62210000  1
  O  O72  1  0.33420000  0.40190000  0.32140000  1
  O  O73  1  0.40800000  0.75820000  0.55750000  1
  O  O74  1  0.41670000  0.24500000  0.53170000  1
  O  O75  1  0.42950000  0.59770000  0.76580000  1
  O  O76  1  0.46920000  0.60920000  0.43380000  1
  O  O77  1  0.48470000  0.41120000  0.78130000  1
  O  O78  1  0.51530000  0.58880000  0.21870000  1
  O  O79  1  0.53080000  0.39080000  0.56620000  1
  O  O80  1  0.57050000  0.40230000  0.23420000  1
  O  O81  1  0.58330000  0.75500000  0.46830000  1
  O  O82  1  0.59200000  0.24180000  0.44250000  1
  O  O83  1  0.66580000  0.59810000  0.67860000  1
  O  O84  1  0.67370000  0.44310000  0.37790000  1
  O  O85  1  0.71750000  0.51300000  0.48260000  1
