# generated using pymatgen
data_CaH4(C4O3)2
_symmetry_space_group_name_H-M   'P 1'
_cell_length_a   10.01500000
_cell_length_b   10.89430220
_cell_length_c   10.89430220
_cell_angle_alpha   62.17825611
_cell_angle_beta   69.51557192
_cell_angle_gamma   69.51557192
_symmetry_Int_Tables_number   1
_chemical_formula_structural   CaH4(C4O3)2
_chemical_formula_sum   'Ca2 H8 C16 O12'
_cell_volume   959.45474467
_cell_formula_units_Z   2
loop_
 _symmetry_equiv_pos_site_id
 _symmetry_equiv_pos_as_xyz
  1  'x, y, z'
loop_
 _atom_site_type_symbol
 _atom_site_label
 _atom_site_symmetry_multiplicity
 _atom_site_fract_x
 _atom_site_fract_y
 _atom_site_fract_z
 _atom_site_occupancy
  C  C0  1  0.33738000  0.28830000  0.46664000  1
  C  C1  1  0.83738000  0.46664000  0.28830000  1
  C  C2  1  0.42030000  0.13883000  0.48239000  1
  C  C3  1  0.92030000  0.48239000  0.13883000  1
  C  C4  1  0.34712000  0.02958000  0.53344000  1
  C  C5  1  0.84712000  0.53344000  0.02958000  1
  C  C6  1  0.57221000  0.10759000  0.44947000  1
  C  C7  1  0.07221000  0.44947000  0.10759000  1
  C  C8  1  0.42779000  0.89241000  0.55053000  1
  C  C9  1  0.92779000  0.55053000  0.89241000  1
  C  C10  1  0.65288000  0.97042000  0.46656000  1
  C  C11  1  0.15288000  0.46656000  0.97042000  1
  C  C12  1  0.57970000  0.86117000  0.51761000  1
  C  C13  1  0.07970000  0.51761000  0.86117000  1
  C  C14  1  0.66262000  0.71170000  0.53336000  1
  C  C15  1  0.16262000  0.53336000  0.71170000  1
  Ca  Ca16  1  1.00000000  0.50000000  0.50000000  1
  Ca  Ca17  1  0.50000000  0.50000000  0.50000000  1
  H  H18  1  0.16800000  0.14120000  0.54120000  1
  H  H19  1  0.66800000  0.54120000  0.14120000  1
  H  H20  1  0.62070000  0.18000000  0.41540000  1
  H  H21  1  0.12070000  0.41540000  0.18000000  1
  H  H22  1  0.37930000  0.82000000  0.58460000  1
  H  H23  1  0.87930000  0.58460000  0.82000000  1
  H  H24  1  0.83200000  0.85880000  0.45880000  1
  H  H25  1  0.33200000  0.45880000  0.85880000  1
  O  O26  1  0.40521000  0.37785000  0.43693000  1
  O  O27  1  0.90521000  0.43693000  0.37785000  1
  O  O28  1  0.19997000  0.31305000  0.48505000  1
  O  O29  1  0.69997000  0.48505000  0.31305000  1
  O  O30  1  0.19885000  0.05292000  0.56678000  1
  O  O31  1  0.69885000  0.56678000  0.05292000  1
  O  O32  1  0.80115000  0.94708000  0.43322000  1
  O  O33  1  0.30115000  0.43322000  0.94708000  1
  O  O34  1  0.80003000  0.68695000  0.51495000  1
  O  O35  1  0.30003000  0.51495000  0.68695000  1
  O  O36  1  0.59479000  0.62215000  0.56307000  1
  O  O37  1  0.09479000  0.56307000  0.62215000  1
