# generated using pymatgen
data_ZrCd2(CO2)8
_symmetry_space_group_name_H-M   'P 1'
_cell_length_a   8.47470000
_cell_length_b   8.98730000
_cell_length_c   8.98730498
_cell_angle_alpha   77.15857899
_cell_angle_beta   61.86944067
_cell_angle_gamma   61.86950000
_symmetry_Int_Tables_number   1
_chemical_formula_structural   ZrCd2(CO2)8
_chemical_formula_sum   'Zr1 Cd2 C8 O16'
_cell_volume   532.35074589
_cell_formula_units_Z   1
loop_
 _symmetry_equiv_pos_site_id
 _symmetry_equiv_pos_as_xyz
  1  'x, y, z'
loop_
 _atom_site_type_symbol
 _atom_site_label
 _atom_site_symmetry_multiplicity
 _atom_site_fract_x
 _atom_site_fract_y
 _atom_site_fract_z
 _atom_site_occupancy
  Zr  Zr0  1  0.17230000  0.50000000  0.50000000  1
  Cd  Cd1  1  0.92480000  0.00000000  1.00000000  1
  Cd  Cd2  1  0.42336000  0.00000000  0.00000000  1
  C  C3  1  0.18900000  0.22880000  0.77120000  1
  C  C4  1  0.88270000  0.77130000  0.77130000  1
  C  C5  1  0.42530000  0.22870000  0.22870000  1
  C  C6  1  0.36500000  0.72930000  0.27070000  1
  C  C7  1  0.74720000  0.72980000  0.72980000  1
  C  C8  1  0.20680000  0.27020000  0.27020000  1
  C  C9  1  0.18900000  0.77120000  0.22880000  1
  C  C10  1  0.36500000  0.27070000  0.72930000  1
  O  O11  1  0.38080000  0.38480000  0.61520000  1
  O  O12  1  0.09340000  0.31390000  0.68610000  1
  O  O13  1  0.38080000  0.61520000  0.38480000  1
  O  O14  1  0.05960000  0.68640000  0.68640000  1
  O  O15  1  0.43240000  0.31360000  0.31360000  1
  O  O16  1  0.48600000  0.80180000  0.19820000  1
  O  O17  1  0.80050000  0.87850000  0.87850000  1
  O  O18  1  0.55750000  0.12150000  0.12150000  1
  O  O19  1  0.84800000  0.61360000  0.61360000  1
  O  O20  1  0.07520000  0.38640000  0.38640000  1
  O  O21  1  0.09340000  0.68610000  0.31390000  1
  O  O22  1  0.54870000  0.80330000  0.80330000  1
  O  O23  1  0.15530000  0.19670000  0.19670000  1
  O  O24  1  0.48600000  0.19820000  0.80180000  1
  O  O25  1  0.15700000  0.87820000  0.12180000  1
  O  O26  1  0.15700000  0.12180000  0.87820000  1
