# generated using pymatgen
data_Cu6H93C69BrN30
_symmetry_space_group_name_H-M   'P 1'
_cell_length_a   16.91600000
_cell_length_b   19.00300000
_cell_length_c   19.00300000
_cell_angle_alpha   120.00000000
_cell_angle_beta   90.00000000
_cell_angle_gamma   90.00000000
_symmetry_Int_Tables_number   1
_chemical_formula_structural   Cu6H93C69BrN30
_chemical_formula_sum   'Cu12 H186 C138 Br2 N60'
_cell_volume   5290.20674470
_cell_formula_units_Z   2
loop_
 _symmetry_equiv_pos_site_id
 _symmetry_equiv_pos_as_xyz
  1  'x, y, z'
loop_
 _atom_site_type_symbol
 _atom_site_label
 _atom_site_symmetry_multiplicity
 _atom_site_fract_x
 _atom_site_fract_y
 _atom_site_fract_z
 _atom_site_occupancy
  Cu  Cu0  1  0.75000000  0.99774000  0.66706000  1
  Cu  Cu1  1  0.75000000  0.81893000  0.36667000  1
  Cu  Cu2  1  0.75000000  0.66932000  0.00226000  1
  Cu  Cu3  1  0.25000000  0.66706000  0.66932000  1
  Cu  Cu4  1  0.75000000  0.63333000  0.45226000  1
  Cu  Cu5  1  0.75000000  0.54774000  0.18107000  1
  Cu  Cu6  1  0.25000000  0.45226000  0.81893000  1
  Cu  Cu7  1  0.25000000  0.36667000  0.54774000  1
  Cu  Cu8  1  0.75000000  0.33294000  0.33068000  1
  Cu  Cu9  1  0.25000000  0.33068000  0.99774000  1
  Cu  Cu10  1  0.25000000  0.18107000  0.63333000  1
  Cu  Cu11  1  0.25000000  0.00226000  0.33294000  1
  H  H12  1  0.90870000  0.98730000  0.36840000  1
  H  H13  1  0.59130000  0.98730000  0.36840000  1
  H  H14  1  0.75000000  0.97770000  0.19430000  1
  H  H15  1  0.85050000  0.95690000  0.41180000  1
  H  H16  1  0.64950000  0.95690000  0.41180000  1
  H  H17  1  0.94200000  0.95490000  0.42390000  1
  H  H18  1  0.55800000  0.95490000  0.42390000  1
  H  H19  1  0.41040000  0.94790000  0.42280000  1
  H  H20  1  0.08960000  0.94790000  0.42280000  1
  H  H21  1  0.79630000  0.94540000  0.24390000  1
  H  H22  1  0.70370000  0.94540000  0.24390000  1
  H  H23  1  0.35120000  0.93860000  0.17430000  1
  H  H24  1  0.14880000  0.93860000  0.17430000  1
  H  H25  1  0.46660000  0.93730000  0.74900000  1
  H  H26  1  0.03340000  0.93730000  0.74900000  1
  H  H27  1  0.98590000  0.91210000  0.61750000  1
  H  H28  1  0.51410000  0.91210000  0.61750000  1
  H  H29  1  0.47440000  0.90880000  0.81320000  1
  H  H30  1  0.02560000  0.90880000  0.81320000  1
  H  H31  1  0.92950000  0.90540000  0.54900000  1
  H  H32  1  0.57050000  0.90540000  0.54900000  1
  H  H33  1  0.47440000  0.90440000  0.09120000  1
  H  H34  1  0.02560000  0.90440000  0.09120000  1
  H  H35  1  0.33500000  0.89370000  0.38590000  1
  H  H36  1  0.16500000  0.89370000  0.38590000  1
  H  H37  1  0.95820000  0.88920000  0.74940000  1
  H  H38  1  0.54180000  0.88920000  0.74940000  1
  H  H39  1  0.48700000  0.86410000  0.52650000  1
  H  H40  1  0.01300000  0.86410000  0.52650000  1
  H  H41  1  0.95820000  0.86020000  0.11080000  1
  H  H42  1  0.54180000  0.86020000  0.11080000  1
  H  H43  1  0.41810000  0.85300000  0.37490000  1
  H  H44  1  0.08190000  0.85300000  0.37490000  1
  H  H45  1  0.35120000  0.82570000  0.76430000  1
  H  H46  1  0.14880000  0.82570000  0.76430000  1
  H  H47  1  0.97440000  0.81320000  0.90440000  1
  H  H48  1  0.52560000  0.81320000  0.90440000  1
  H  H49  1  0.46660000  0.81170000  0.06270000  1
  H  H50  1  0.03340000  0.81170000  0.06270000  1
  H  H51  1  0.75000000  0.80570000  0.78340000  1
  H  H52  1  0.83810000  0.79230000  0.49290000  1
  H  H53  1  0.66190000  0.79230000  0.49290000  1
  H  H54  1  0.25000000  0.78340000  0.97770000  1
  H  H55  1  0.85120000  0.76430000  0.93860000  1
  H  H56  1  0.64880000  0.76430000  0.93860000  1
  H  H57  1  0.79630000  0.75610000  0.70150000  1
  H  H58  1  0.70370000  0.75610000  0.70150000  1
  H  H59  1  0.45820000  0.74940000  0.86020000  1
  H  H60  1  0.04180000  0.74940000  0.86020000  1
  H  H61  1  0.96660000  0.74900000  0.81170000  1
  H  H62  1  0.53340000  0.74900000  0.81170000  1
  H  H63  1  0.98590000  0.70540000  0.08790000  1
  H  H64  1  0.51410000  0.70540000  0.08790000  1
  H  H65  1  0.29630000  0.70150000  0.94540000  1
  H  H66  1  0.20370000  0.70150000  0.94540000  1
  H  H67  1  0.83810000  0.70060000  0.20770000  1
  H  H68  1  0.66190000  0.70060000  0.20770000  1
  H  H69  1  0.48700000  0.66240000  0.13590000  1
  H  H70  1  0.01300000  0.66240000  0.13590000  1
  H  H71  1  0.92950000  0.64360000  0.09460000  1
  H  H72  1  0.57050000  0.64360000  0.09460000  1
  H  H73  1  0.90870000  0.63160000  0.61890000  1
  H  H74  1  0.59130000  0.63160000  0.61890000  1
  H  H75  1  0.41810000  0.62510000  0.47810000  1
  H  H76  1  0.08190000  0.62510000  0.47810000  1
  H  H77  1  0.40870000  0.61890000  0.98730000  1
  H  H78  1  0.09130000  0.61890000  0.98730000  1
  H  H79  1  0.48590000  0.61750000  0.70540000  1
  H  H80  1  0.01410000  0.61750000  0.70540000  1
  H  H81  1  0.33500000  0.61410000  0.50780000  1
  H  H82  1  0.16500000  0.61410000  0.50780000  1
  H  H83  1  0.85050000  0.58820000  0.54510000  1
  H  H84  1  0.64950000  0.58820000  0.54510000  1
  H  H85  1  0.41040000  0.57720000  0.52510000  1
  H  H86  1  0.08960000  0.57720000  0.52510000  1
  H  H87  1  0.94200000  0.57610000  0.53100000  1
  H  H88  1  0.55800000  0.57610000  0.53100000  1
  H  H89  1  0.42950000  0.54900000  0.64360000  1
  H  H90  1  0.07050000  0.54900000  0.64360000  1
  H  H91  1  0.35050000  0.54510000  0.95690000  1
  H  H92  1  0.14950000  0.54510000  0.95690000  1
  H  H93  1  0.44200000  0.53100000  0.95490000  1
  H  H94  1  0.05800000  0.53100000  0.95490000  1
  H  H95  1  0.98700000  0.52650000  0.66240000  1
  H  H96  1  0.51300000  0.52650000  0.66240000  1
  H  H97  1  0.91040000  0.52510000  0.94790000  1
  H  H98  1  0.58960000  0.52510000  0.94790000  1
  H  H99  1  0.41810000  0.52190000  0.14700000  1
  H  H100  1  0.08190000  0.52190000  0.14700000  1
  H  H101  1  0.83500000  0.50780000  0.89370000  1
  H  H102  1  0.66500000  0.50780000  0.89370000  1
  H  H103  1  0.83810000  0.50710000  0.29940000  1
  H  H104  1  0.66190000  0.50710000  0.29940000  1
  H  H105  1  0.33810000  0.49290000  0.70060000  1
  H  H106  1  0.16190000  0.49290000  0.70060000  1
  H  H107  1  0.33500000  0.49220000  0.10630000  1
  H  H108  1  0.16500000  0.49220000  0.10630000  1
  H  H109  1  0.91810000  0.47810000  0.85300000  1
  H  H110  1  0.58190000  0.47810000  0.85300000  1
  H  H111  1  0.41040000  0.47490000  0.05210000  1
  H  H112  1  0.08960000  0.47490000  0.05210000  1
  H  H113  1  0.48700000  0.47350000  0.33760000  1
  H  H114  1  0.01300000  0.47350000  0.33760000  1
  H  H115  1  0.94200000  0.46900000  0.04510000  1
  H  H116  1  0.55800000  0.46900000  0.04510000  1
  H  H117  1  0.85050000  0.45490000  0.04310000  1
  H  H118  1  0.64950000  0.45490000  0.04310000  1
  H  H119  1  0.92950000  0.45100000  0.35640000  1
  H  H120  1  0.57050000  0.45100000  0.35640000  1
  H  H121  1  0.44200000  0.42390000  0.46900000  1
  H  H122  1  0.05800000  0.42390000  0.46900000  1
  H  H123  1  0.91040000  0.42280000  0.47490000  1
  H  H124  1  0.58960000  0.42280000  0.47490000  1
  H  H125  1  0.35050000  0.41180000  0.45490000  1
  H  H126  1  0.14950000  0.41180000  0.45490000  1
  H  H127  1  0.83500000  0.38590000  0.49220000  1
  H  H128  1  0.66500000  0.38590000  0.49220000  1
  H  H129  1  0.98590000  0.38250000  0.29460000  1
  H  H130  1  0.51410000  0.38250000  0.29460000  1
  H  H131  1  0.90870000  0.38110000  0.01270000  1
  H  H132  1  0.59130000  0.38110000  0.01270000  1
  H  H133  1  0.91810000  0.37490000  0.52190000  1
  H  H134  1  0.58190000  0.37490000  0.52190000  1
  H  H135  1  0.40870000  0.36840000  0.38110000  1
  H  H136  1  0.09130000  0.36840000  0.38110000  1
  H  H137  1  0.42950000  0.35640000  0.90540000  1
  H  H138  1  0.07050000  0.35640000  0.90540000  1
  H  H139  1  0.98700000  0.33760000  0.86410000  1
  H  H140  1  0.51300000  0.33760000  0.86410000  1
  H  H141  1  0.33810000  0.29940000  0.79230000  1
  H  H142  1  0.16190000  0.29940000  0.79230000  1
  H  H143  1  0.79630000  0.29850000  0.05460000  1
  H  H144  1  0.70370000  0.29850000  0.05460000  1
  H  H145  1  0.48590000  0.29460000  0.91210000  1
  H  H146  1  0.01410000  0.29460000  0.91210000  1
  H  H147  1  0.46660000  0.25100000  0.18830000  1
  H  H148  1  0.03340000  0.25100000  0.18830000  1
  H  H149  1  0.95820000  0.25060000  0.13980000  1
  H  H150  1  0.54180000  0.25060000  0.13980000  1
  H  H151  1  0.29630000  0.24390000  0.29850000  1
  H  H152  1  0.20370000  0.24390000  0.29850000  1
  H  H153  1  0.35120000  0.23570000  0.06140000  1
  H  H154  1  0.14880000  0.23570000  0.06140000  1
  H  H155  1  0.75000000  0.21660000  0.02230000  1
  H  H156  1  0.33810000  0.20770000  0.50710000  1
  H  H157  1  0.16190000  0.20770000  0.50710000  1
  H  H158  1  0.25000000  0.19430000  0.21660000  1
  H  H159  1  0.96660000  0.18830000  0.93730000  1
  H  H160  1  0.53340000  0.18830000  0.93730000  1
  H  H161  1  0.47440000  0.18680000  0.09560000  1
  H  H162  1  0.02560000  0.18680000  0.09560000  1
  H  H163  1  0.85120000  0.17430000  0.23570000  1
  H  H164  1  0.64880000  0.17430000  0.23570000  1
  H  H165  1  0.91810000  0.14700000  0.62510000  1
  H  H166  1  0.58190000  0.14700000  0.62510000  1
  H  H167  1  0.45820000  0.13980000  0.88920000  1
  H  H168  1  0.04180000  0.13980000  0.88920000  1
  H  H169  1  0.98700000  0.13590000  0.47350000  1
  H  H170  1  0.51300000  0.13590000  0.47350000  1
  H  H171  1  0.45820000  0.11080000  0.25060000  1
  H  H172  1  0.04180000  0.11080000  0.25060000  1
  H  H173  1  0.83500000  0.10630000  0.61410000  1
  H  H174  1  0.66500000  0.10630000  0.61410000  1
  H  H175  1  0.97440000  0.09560000  0.90880000  1
  H  H176  1  0.52560000  0.09560000  0.90880000  1
  H  H177  1  0.42950000  0.09460000  0.45100000  1
  H  H178  1  0.07050000  0.09460000  0.45100000  1
  H  H179  1  0.97440000  0.09120000  0.18680000  1
  H  H180  1  0.52560000  0.09120000  0.18680000  1
  H  H181  1  0.48590000  0.08790000  0.38250000  1
  H  H182  1  0.01410000  0.08790000  0.38250000  1
  H  H183  1  0.96660000  0.06270000  0.25100000  1
  H  H184  1  0.53340000  0.06270000  0.25100000  1
  H  H185  1  0.85120000  0.06140000  0.82570000  1
  H  H186  1  0.64880000  0.06140000  0.82570000  1
  H  H187  1  0.29630000  0.05460000  0.75610000  1
  H  H188  1  0.20370000  0.05460000  0.75610000  1
  H  H189  1  0.91040000  0.05210000  0.57720000  1
  H  H190  1  0.58960000  0.05210000  0.57720000  1
  H  H191  1  0.44200000  0.04510000  0.57610000  1
  H  H192  1  0.05800000  0.04510000  0.57610000  1
  H  H193  1  0.35050000  0.04310000  0.58820000  1
  H  H194  1  0.14950000  0.04310000  0.58820000  1
  H  H195  1  0.25000000  0.02230000  0.80570000  1
  H  H196  1  0.40870000  0.01270000  0.63160000  1
  H  H197  1  0.09130000  0.01270000  0.63160000  1
  C  C198  1  0.90120000  0.94840000  0.38600000  1
  C  C199  1  0.59880000  0.94840000  0.38600000  1
  C  C200  1  0.75000000  0.93830000  0.21190000  1
  C  C201  1  0.75000000  0.93540000  0.55370000  1
  C  C202  1  0.40200000  0.90000000  0.30100000  1
  C  C203  1  0.09800000  0.90000000  0.30100000  1
  C  C204  1  0.39040000  0.89850000  0.37800000  1
  C  C205  1  0.10960000  0.89850000  0.37800000  1
  C  C206  1  0.48570000  0.89510000  0.75830000  1
  C  C207  1  0.01430000  0.89510000  0.75830000  1
  C  C208  1  0.44620000  0.88400000  0.18240000  1
  C  C209  1  0.05380000  0.88400000  0.18240000  1
  C  C210  1  0.96870000  0.87760000  0.56250000  1
  C  C211  1  0.53130000  0.87760000  0.56250000  1
  C  C212  1  0.46620000  0.87010000  0.24430000  1
  C  C213  1  0.03380000  0.87010000  0.24430000  1
  C  C214  1  0.90470000  0.86460000  0.31440000  1
  C  C215  1  0.59530000  0.86460000  0.31440000  1
  C  C216  1  0.48570000  0.86320000  0.10490000  1
  C  C217  1  0.01430000  0.86320000  0.10490000  1
  C  C218  1  0.75000000  0.86230000  0.71510000  1
  C  C219  1  0.75000000  0.85280000  0.13770000  1
  C  C220  1  0.96170000  0.83000000  0.25150000  1
  C  C221  1  0.53830000  0.83000000  0.25150000  1
  C  C222  1  0.44620000  0.81760000  0.70160000  1
  C  C223  1  0.05380000  0.81760000  0.70160000  1
  C  C224  1  0.93440000  0.80230000  0.55430000  1
  C  C225  1  0.56560000  0.80230000  0.55430000  1
  C  C226  1  0.75000000  0.78810000  0.72640000  1
  C  C227  1  0.98570000  0.75830000  0.86320000  1
  C  C228  1  0.51430000  0.75830000  0.86320000  1
  C  C229  1  0.46620000  0.75570000  0.62580000  1
  C  C230  1  0.03380000  0.75570000  0.62580000  1
  C  C231  1  0.93440000  0.75200000  0.19770000  1
  C  C232  1  0.56560000  0.75200000  0.19770000  1
  C  C233  1  0.96170000  0.74850000  0.57850000  1
  C  C234  1  0.53830000  0.74850000  0.57850000  1
  C  C235  1  0.25000000  0.72640000  0.93830000  1
  C  C236  1  0.25000000  0.71510000  0.85280000  1
  C  C237  1  0.94620000  0.70160000  0.88400000  1
  C  C238  1  0.55380000  0.70160000  0.88400000  1
  C  C239  1  0.40200000  0.69900000  0.59900000  1
  C  C240  1  0.09800000  0.69900000  0.59900000  1
  C  C241  1  0.90470000  0.68560000  0.55020000  1
  C  C242  1  0.59530000  0.68560000  0.55020000  1
  C  C243  1  0.96870000  0.68490000  0.12240000  1
  C  C244  1  0.53130000  0.68490000  0.12240000  1
  C  C245  1  0.96620000  0.62580000  0.87010000  1
  C  C246  1  0.53380000  0.62580000  0.87010000  1
  C  C247  1  0.39040000  0.62200000  0.52050000  1
  C  C248  1  0.10960000  0.62200000  0.52050000  1
  C  C249  1  0.75000000  0.61830000  0.06460000  1
  C  C250  1  0.90120000  0.61400000  0.56240000  1
  C  C251  1  0.59880000  0.61400000  0.56240000  1
  C  C252  1  0.90200000  0.59900000  0.90000000  1
  C  C253  1  0.59800000  0.59900000  0.90000000  1
  C  C254  1  0.46170000  0.57850000  0.83000000  1
  C  C255  1  0.03830000  0.57850000  0.83000000  1
  C  C256  1  0.46870000  0.56250000  0.68490000  1
  C  C257  1  0.03130000  0.56250000  0.68490000  1
  C  C258  1  0.40120000  0.56240000  0.94840000  1
  C  C259  1  0.09880000  0.56240000  0.94840000  1
  C  C260  1  0.43440000  0.55430000  0.75200000  1
  C  C261  1  0.06560000  0.55430000  0.75200000  1
  C  C262  1  0.25000000  0.55370000  0.61830000  1
  C  C263  1  0.40470000  0.55020000  0.86460000  1
  C  C264  1  0.09530000  0.55020000  0.86460000  1
  C  C265  1  0.89040000  0.52050000  0.89850000  1
  C  C266  1  0.60960000  0.52050000  0.89850000  1
  C  C267  1  0.39040000  0.47950000  0.10150000  1
  C  C268  1  0.10960000  0.47950000  0.10150000  1
  C  C269  1  0.90470000  0.44980000  0.13540000  1
  C  C270  1  0.59530000  0.44980000  0.13540000  1
  C  C271  1  0.75000000  0.44630000  0.38170000  1
  C  C272  1  0.93440000  0.44570000  0.24800000  1
  C  C273  1  0.56560000  0.44570000  0.24800000  1
  C  C274  1  0.90120000  0.43760000  0.05160000  1
  C  C275  1  0.59880000  0.43760000  0.05160000  1
  C  C276  1  0.96870000  0.43750000  0.31510000  1
  C  C277  1  0.53130000  0.43750000  0.31510000  1
  C  C278  1  0.96170000  0.42150000  0.17000000  1
  C  C279  1  0.53830000  0.42150000  0.17000000  1
  C  C280  1  0.40200000  0.40100000  0.10000000  1
  C  C281  1  0.09800000  0.40100000  0.10000000  1
  C  C282  1  0.40120000  0.38600000  0.43760000  1
  C  C283  1  0.09880000  0.38600000  0.43760000  1
  C  C284  1  0.25000000  0.38170000  0.93540000  1
  C  C285  1  0.89040000  0.37800000  0.47950000  1
  C  C286  1  0.60960000  0.37800000  0.47950000  1
  C  C287  1  0.46620000  0.37420000  0.12990000  1
  C  C288  1  0.03380000  0.37420000  0.12990000  1
  C  C289  1  0.46870000  0.31510000  0.87760000  1
  C  C290  1  0.03130000  0.31510000  0.87760000  1
  C  C291  1  0.40470000  0.31440000  0.44980000  1
  C  C292  1  0.09530000  0.31440000  0.44980000  1
  C  C293  1  0.90200000  0.30100000  0.40100000  1
  C  C294  1  0.59800000  0.30100000  0.40100000  1
  C  C295  1  0.44620000  0.29840000  0.11600000  1
  C  C296  1  0.05380000  0.29840000  0.11600000  1
  C  C297  1  0.75000000  0.28490000  0.14720000  1
  C  C298  1  0.75000000  0.27360000  0.06170000  1
  C  C299  1  0.46170000  0.25150000  0.42150000  1
  C  C300  1  0.03830000  0.25150000  0.42150000  1
  C  C301  1  0.43440000  0.24800000  0.80230000  1
  C  C302  1  0.06560000  0.24800000  0.80230000  1
  C  C303  1  0.96620000  0.24430000  0.37420000  1
  C  C304  1  0.53380000  0.24430000  0.37420000  1
  C  C305  1  0.48570000  0.24170000  0.13680000  1
  C  C306  1  0.01430000  0.24170000  0.13680000  1
  C  C307  1  0.25000000  0.21190000  0.27360000  1
  C  C308  1  0.43440000  0.19770000  0.44570000  1
  C  C309  1  0.06560000  0.19770000  0.44570000  1
  C  C310  1  0.94620000  0.18240000  0.29840000  1
  C  C311  1  0.55380000  0.18240000  0.29840000  1
  C  C312  1  0.46170000  0.17000000  0.74850000  1
  C  C313  1  0.03830000  0.17000000  0.74850000  1
  C  C314  1  0.25000000  0.14720000  0.86230000  1
  C  C315  1  0.25000000  0.13770000  0.28490000  1
  C  C316  1  0.98570000  0.13680000  0.89510000  1
  C  C317  1  0.51430000  0.13680000  0.89510000  1
  C  C318  1  0.40470000  0.13540000  0.68560000  1
  C  C319  1  0.09530000  0.13540000  0.68560000  1
  C  C320  1  0.96620000  0.12990000  0.75570000  1
  C  C321  1  0.53380000  0.12990000  0.75570000  1
  C  C322  1  0.46870000  0.12240000  0.43750000  1
  C  C323  1  0.03130000  0.12240000  0.43750000  1
  C  C324  1  0.94620000  0.11600000  0.81760000  1
  C  C325  1  0.55380000  0.11600000  0.81760000  1
  C  C326  1  0.98570000  0.10490000  0.24170000  1
  C  C327  1  0.51430000  0.10490000  0.24170000  1
  C  C328  1  0.89040000  0.10150000  0.62200000  1
  C  C329  1  0.60960000  0.10150000  0.62200000  1
  C  C330  1  0.90200000  0.10000000  0.69900000  1
  C  C331  1  0.59800000  0.10000000  0.69900000  1
  C  C332  1  0.25000000  0.06460000  0.44630000  1
  C  C333  1  0.25000000  0.06170000  0.78810000  1
  C  C334  1  0.40120000  0.05160000  0.61400000  1
  C  C335  1  0.09880000  0.05160000  0.61400000  1
  Br  Br336  1  0.75000000  0.66666667  0.33333333  1
  Br  Br337  1  0.25000000  0.33333333  0.66666667  1
  N  N338  1  0.34740000  0.93320000  0.27600000  1
  N  N339  1  0.15260000  0.93320000  0.27600000  1
  N  N340  1  0.37570000  0.92250000  0.20330000  1
  N  N341  1  0.12430000  0.92250000  0.20330000  1
  N  N342  1  0.75000000  0.91590000  0.70790000  1
  N  N343  1  0.75000000  0.88940000  0.48230000  1
  N  N344  1  0.84640000  0.81120000  0.30020000  1
  N  N345  1  0.65360000  0.81120000  0.30020000  1
  N  N346  1  0.37570000  0.79670000  0.71920000  1
  N  N347  1  0.12430000  0.79670000  0.71920000  1
  N  N348  1  0.75000000  0.79200000  0.08410000  1
  N  N349  1  0.86620000  0.77020000  0.51430000  1
  N  N350  1  0.63380000  0.77020000  0.51430000  1
  N  N351  1  0.86620000  0.74410000  0.22980000  1
  N  N352  1  0.63380000  0.74410000  0.22980000  1
  N  N353  1  0.34740000  0.72400000  0.65720000  1
  N  N354  1  0.15260000  0.72400000  0.65720000  1
  N  N355  1  0.87570000  0.71920000  0.92250000  1
  N  N356  1  0.62430000  0.71920000  0.92250000  1
  N  N357  1  0.25000000  0.70790000  0.79200000  1
  N  N358  1  0.84640000  0.69980000  0.51100000  1
  N  N359  1  0.65360000  0.69980000  0.51100000  1
  N  N360  1  0.84740000  0.65720000  0.93320000  1
  N  N361  1  0.65260000  0.65720000  0.93320000  1
  N  N362  1  0.75000000  0.59290000  0.11060000  1
  N  N363  1  0.75000000  0.51770000  0.40710000  1
  N  N364  1  0.36620000  0.51430000  0.74410000  1
  N  N365  1  0.13380000  0.51430000  0.74410000  1
  N  N366  1  0.34640000  0.51100000  0.81120000  1
  N  N367  1  0.15360000  0.51100000  0.81120000  1
  N  N368  1  0.84640000  0.48900000  0.18880000  1
  N  N369  1  0.65360000  0.48900000  0.18880000  1
  N  N370  1  0.86620000  0.48570000  0.25590000  1
  N  N371  1  0.63380000  0.48570000  0.25590000  1
  N  N372  1  0.25000000  0.48230000  0.59290000  1
  N  N373  1  0.25000000  0.40710000  0.88940000  1
  N  N374  1  0.34740000  0.34280000  0.06680000  1
  N  N375  1  0.15260000  0.34280000  0.06680000  1
  N  N376  1  0.34640000  0.30020000  0.48900000  1
  N  N377  1  0.15360000  0.30020000  0.48900000  1
  N  N378  1  0.75000000  0.29210000  0.20800000  1
  N  N379  1  0.37570000  0.28080000  0.07750000  1
  N  N380  1  0.12430000  0.28080000  0.07750000  1
  N  N381  1  0.84740000  0.27600000  0.34280000  1
  N  N382  1  0.65260000  0.27600000  0.34280000  1
  N  N383  1  0.36620000  0.25590000  0.77020000  1
  N  N384  1  0.13380000  0.25590000  0.77020000  1
  N  N385  1  0.36620000  0.22980000  0.48570000  1
  N  N386  1  0.13380000  0.22980000  0.48570000  1
  N  N387  1  0.25000000  0.20800000  0.91590000  1
  N  N388  1  0.87570000  0.20330000  0.28080000  1
  N  N389  1  0.62430000  0.20330000  0.28080000  1
  N  N390  1  0.34640000  0.18880000  0.69980000  1
  N  N391  1  0.15360000  0.18880000  0.69980000  1
  N  N392  1  0.25000000  0.11060000  0.51770000  1
  N  N393  1  0.25000000  0.08410000  0.29210000  1
  N  N394  1  0.87570000  0.07750000  0.79670000  1
  N  N395  1  0.62430000  0.07750000  0.79670000  1
  N  N396  1  0.84740000  0.06680000  0.72400000  1
  N  N397  1  0.65260000  0.06680000  0.72400000  1
