# generated using pymatgen
data_ZnH12C12NO4
_symmetry_space_group_name_H-M   'P 1'
_cell_length_a   14.35470967
_cell_length_b   14.35470000
_cell_length_c   14.35470000
_cell_angle_alpha   95.80320000
_cell_angle_beta   116.70802378
_cell_angle_gamma   116.70802378
_symmetry_Int_Tables_number   1
_chemical_formula_structural   ZnH12C12NO4
_chemical_formula_sum   'Zn4 H48 C48 N4 O16'
_cell_volume   2183.49345960
_cell_formula_units_Z   4
loop_
 _symmetry_equiv_pos_site_id
 _symmetry_equiv_pos_as_xyz
  1  'x, y, z'
loop_
 _atom_site_type_symbol
 _atom_site_label
 _atom_site_symmetry_multiplicity
 _atom_site_fract_x
 _atom_site_fract_y
 _atom_site_fract_z
 _atom_site_occupancy
  Zn  Zn0  1  0.00000000  0.07669000  0.07669000  1
  Zn  Zn1  1  0.00000000  0.42331000  0.42331000  1
  Zn  Zn2  1  0.00000000  0.57669000  0.57669000  1
  Zn  Zn3  1  0.00000000  0.92331000  0.92331000  1
  H  H4  1  0.60920000  0.74660000  0.65340000  1
  H  H5  1  0.16700000  0.31500000  0.24200000  1
  H  H6  1  0.08300000  0.31800000  0.16900000  1
  H  H7  1  0.90680000  0.65340000  0.04420000  1
  H  H8  1  0.92700000  0.24200000  0.07500000  1
  H  H9  1  0.39080000  0.63740000  0.54420000  1
  H  H10  1  0.14900000  0.23500000  0.31800000  1
  H  H11  1  0.14900000  0.41400000  0.33100000  1
  H  H12  1  0.07300000  0.42500000  0.25800000  1
  H  H13  1  0.85100000  0.16900000  0.08600000  1
  H  H14  1  0.07300000  0.14800000  0.31500000  1
  H  H15  1  0.90680000  0.54420000  0.15340000  1
  H  H16  1  0.60920000  0.95580000  0.86260000  1
  H  H17  1  0.16700000  0.35200000  0.42500000  1
  H  H18  1  0.91700000  0.33100000  0.18200000  1
  H  H19  1  0.83300000  0.07500000  0.14800000  1
  H  H20  1  0.91700000  0.08600000  0.23500000  1
  H  H21  1  0.08300000  0.26500000  0.41400000  1
  H  H22  1  0.90680000  0.86260000  0.25340000  1
  H  H23  1  0.83300000  0.25800000  0.18500000  1
  H  H24  1  0.39080000  0.84660000  0.75340000  1
  H  H25  1  0.85100000  0.18200000  0.26500000  1
  H  H26  1  0.92700000  0.18500000  0.35200000  1
  H  H27  1  0.90680000  0.75340000  0.36260000  1
  H  H28  1  0.09320000  0.24660000  0.63740000  1
  H  H29  1  0.07300000  0.81500000  0.64800000  1
  H  H30  1  0.14900000  0.81800000  0.73500000  1
  H  H31  1  0.60920000  0.15340000  0.24660000  1
  H  H32  1  0.16700000  0.74200000  0.81500000  1
  H  H33  1  0.09320000  0.13740000  0.74660000  1
  H  H34  1  0.91700000  0.73500000  0.58600000  1
  H  H35  1  0.08300000  0.91400000  0.76500000  1
  H  H36  1  0.16700000  0.92500000  0.85200000  1
  H  H37  1  0.08300000  0.66900000  0.81800000  1
  H  H38  1  0.83300000  0.64800000  0.57500000  1
  H  H39  1  0.39080000  0.04420000  0.13740000  1
  H  H40  1  0.09320000  0.45580000  0.84660000  1
  H  H41  1  0.92700000  0.85200000  0.68500000  1
  H  H42  1  0.14900000  0.83100000  0.91400000  1
  H  H43  1  0.92700000  0.57500000  0.74200000  1
  H  H44  1  0.85100000  0.58600000  0.66900000  1
  H  H45  1  0.85100000  0.76500000  0.68200000  1
  H  H46  1  0.60920000  0.36260000  0.45580000  1
  H  H47  1  0.07300000  0.75800000  0.92500000  1
  H  H48  1  0.09320000  0.34660000  0.95580000  1
  H  H49  1  0.91700000  0.68200000  0.83100000  1
  H  H50  1  0.83300000  0.68500000  0.75800000  1
  H  H51  1  0.39080000  0.25340000  0.34660000  1
  C  C52  1  0.77076000  0.92122000  0.84954000  1
  C  C53  1  0.56520000  0.76580000  0.67478000  1
  C  C54  1  0.12250000  0.28410000  0.25560000  1
  C  C55  1  0.63043000  0.85912000  0.77131000  1
  C  C56  1  0.92832000  0.84954000  0.07878000  1
  C  C57  1  0.97150000  0.25560000  0.13310000  1
  C  C58  1  0.43480000  0.70060000  0.60958000  1
  C  C59  1  0.90898000  0.67478000  0.10958000  1
  C  C60  1  0.02850000  0.36690000  0.24440000  1
  C  C61  1  0.91219000  0.77131000  0.14088000  1
  C  C62  1  0.56520000  0.89042000  0.79940000  1
  C  C63  1  0.12250000  0.33840000  0.36690000  1
  C  C64  1  0.02850000  0.16160000  0.28410000  1
  C  C65  1  0.90898000  0.60958000  0.17478000  1
  C  C66  1  0.36957000  0.72869000  0.64088000  1
  C  C67  1  0.87750000  0.13310000  0.16160000  1
  C  C68  1  0.43480000  0.82522000  0.73420000  1
  C  C69  1  0.90898000  0.79940000  0.23420000  1
  C  C70  1  0.87750000  0.24440000  0.21590000  1
  C  C71  1  0.22924000  0.65046000  0.57878000  1
  C  C72  1  0.91219000  0.64088000  0.27131000  1
  C  C73  1  0.97150000  0.21590000  0.33840000  1
  C  C74  1  0.90898000  0.73420000  0.29940000  1
  C  C75  1  0.92832000  0.57878000  0.34954000  1
  C  C76  1  0.07168000  0.42122000  0.65046000  1
  C  C77  1  0.09102000  0.26580000  0.70060000  1
  C  C78  1  0.02850000  0.78410000  0.66160000  1
  C  C79  1  0.08781000  0.35912000  0.72869000  1
  C  C80  1  0.77076000  0.34954000  0.42122000  1
  C  C81  1  0.12250000  0.75560000  0.78410000  1
  C  C82  1  0.09102000  0.20060000  0.76580000  1
  C  C83  1  0.56520000  0.17478000  0.26580000  1
  C  C84  1  0.12250000  0.86690000  0.83840000  1
  C  C85  1  0.63043000  0.27131000  0.35912000  1
  C  C86  1  0.09102000  0.39042000  0.82522000  1
  C  C87  1  0.97150000  0.83840000  0.71590000  1
  C  C88  1  0.87750000  0.66160000  0.63310000  1
  C  C89  1  0.43480000  0.10958000  0.20060000  1
  C  C90  1  0.08781000  0.22869000  0.85912000  1
  C  C91  1  0.97150000  0.63310000  0.75560000  1
  C  C92  1  0.09102000  0.32522000  0.89042000  1
  C  C93  1  0.56520000  0.29940000  0.39042000  1
  C  C94  1  0.02850000  0.74440000  0.86690000  1
  C  C95  1  0.07168000  0.15046000  0.92122000  1
  C  C96  1  0.36957000  0.14088000  0.22869000  1
  C  C97  1  0.87750000  0.71590000  0.74440000  1
  C  C98  1  0.43480000  0.23420000  0.32522000  1
  C  C99  1  0.22924000  0.07878000  0.15046000  1
  N  N100  1  0.00000000  0.18289000  0.18289000  1
  N  N101  1  0.00000000  0.31711000  0.31711000  1
  N  N102  1  0.00000000  0.68289000  0.68289000  1
  N  N103  1  0.00000000  0.81711000  0.81711000  1
  O  O104  1  0.17605000  0.11326000  0.17803000  1
  O  O105  1  0.93523000  0.82197000  0.99802000  1
  O  O106  1  0.82395000  0.00198000  0.93721000  1
  O  O107  1  0.93523000  0.93721000  0.11326000  1
  O  O108  1  0.17605000  0.56279000  0.49802000  1
  O  O109  1  0.93523000  0.49802000  0.32197000  1
  O  O110  1  0.17605000  0.67803000  0.61326000  1
  O  O111  1  0.06477000  0.38674000  0.56279000  1
  O  O112  1  0.93523000  0.61326000  0.43721000  1
  O  O113  1  0.82395000  0.32197000  0.38674000  1
  O  O114  1  0.06477000  0.50198000  0.67803000  1
  O  O115  1  0.82395000  0.43721000  0.50198000  1
  O  O116  1  0.06477000  0.06279000  0.88674000  1
  O  O117  1  0.17605000  0.99802000  0.06279000  1
  O  O118  1  0.06477000  0.17803000  0.00198000  1
  O  O119  1  0.82395000  0.88674000  0.82197000  1
