# generated using pymatgen
data_PrH15C24NO8
_symmetry_space_group_name_H-M   'P 1'
_cell_length_a   10.56800000
_cell_length_b   15.83700000
_cell_length_c   21.09900000
_cell_angle_alpha   107.09800000
_cell_angle_beta   90.00000000
_cell_angle_gamma   90.00000000
_symmetry_Int_Tables_number   1
_chemical_formula_structural   PrH15C24NO8
_chemical_formula_sum   'Pr4 H60 C96 N4 O32'
_cell_volume   3375.17355144
_cell_formula_units_Z   4
loop_
 _symmetry_equiv_pos_site_id
 _symmetry_equiv_pos_as_xyz
  1  'x, y, z'
loop_
 _atom_site_type_symbol
 _atom_site_label
 _atom_site_symmetry_multiplicity
 _atom_site_fract_x
 _atom_site_fract_y
 _atom_site_fract_z
 _atom_site_occupancy
  Pr  Pr0  1  0.91882000  0.60081000  0.45303000  1
  Pr  Pr1  1  0.08118000  0.60081000  0.95303000  1
  Pr  Pr2  1  0.91882000  0.39919000  0.04697000  1
  Pr  Pr3  1  0.08118000  0.39919000  0.54697000  1
  H  H4  1  0.56630000  0.99620000  0.56130000  1
  H  H5  1  0.43370000  0.99620000  0.06130000  1
  H  H6  1  0.92660000  0.95110000  0.67110000  1
  H  H7  1  0.07340000  0.95110000  0.17110000  1
  H  H8  1  0.80800000  0.92200000  0.78800000  1
  H  H9  1  0.19200000  0.92200000  0.28800000  1
  H  H10  1  0.54620000  0.90160000  0.73230000  1
  H  H11  1  0.45380000  0.90160000  0.23230000  1
  H  H12  1  0.51070000  0.88110000  0.83520000  1
  H  H13  1  0.48930000  0.88110000  0.33520000  1
  H  H14  1  0.68140000  0.86890000  0.52040000  1
  H  H15  1  0.31860000  0.86890000  0.02040000  1
  H  H16  1  0.58410000  0.86590000  0.12640000  1
  H  H17  1  0.41590000  0.86590000  0.62640000  1
  H  H18  1  0.64000000  0.84090000  0.68130000  1
  H  H19  1  0.36000000  0.84090000  0.18130000  1
  H  H20  1  0.61090000  0.82920000  0.86380000  1
  H  H21  1  0.38910000  0.82920000  0.36380000  1
  H  H22  1  0.74540000  0.78000000  0.06640000  1
  H  H23  1  0.25460000  0.78000000  0.56640000  1
  H  H24  1  0.78440000  0.76670000  0.84790000  1
  H  H25  1  0.21560000  0.76670000  0.34790000  1
  H  H26  1  0.70320000  0.70690000  0.65610000  1
  H  H27  1  0.29680000  0.70690000  0.15610000  1
  H  H28  1  0.52400000  0.68840000  0.22260000  1
  H  H29  1  0.47600000  0.68840000  0.72260000  1
  H  H30  1  0.68820000  0.60230000  0.16460000  1
  H  H31  1  0.31180000  0.60230000  0.66460000  1
  H  H32  1  0.97140000  0.56960000  0.71780000  1
  H  H33  1  0.02860000  0.56960000  0.21780000  1
  H  H34  1  0.97140000  0.43040000  0.78220000  1
  H  H35  1  0.02860000  0.43040000  0.28220000  1
  H  H36  1  0.68820000  0.39770000  0.33540000  1
  H  H37  1  0.31180000  0.39770000  0.83540000  1
  H  H38  1  0.52400000  0.31160000  0.27740000  1
  H  H39  1  0.47600000  0.31160000  0.77740000  1
  H  H40  1  0.70320000  0.29310000  0.84390000  1
  H  H41  1  0.29680000  0.29310000  0.34390000  1
  H  H42  1  0.78440000  0.23330000  0.65210000  1
  H  H43  1  0.21560000  0.23330000  0.15210000  1
  H  H44  1  0.74540000  0.22000000  0.43360000  1
  H  H45  1  0.25460000  0.22000000  0.93360000  1
  H  H46  1  0.61090000  0.17080000  0.63620000  1
  H  H47  1  0.38910000  0.17080000  0.13620000  1
  H  H48  1  0.64000000  0.15910000  0.81870000  1
  H  H49  1  0.36000000  0.15910000  0.31870000  1
  H  H50  1  0.58410000  0.13410000  0.37360000  1
  H  H51  1  0.41590000  0.13410000  0.87360000  1
  H  H52  1  0.68140000  0.13110000  0.97960000  1
  H  H53  1  0.31860000  0.13110000  0.47960000  1
  H  H54  1  0.51070000  0.11890000  0.66480000  1
  H  H55  1  0.48930000  0.11890000  0.16480000  1
  H  H56  1  0.54620000  0.09840000  0.76770000  1
  H  H57  1  0.45380000  0.09840000  0.26770000  1
  H  H58  1  0.80800000  0.07800000  0.71200000  1
  H  H59  1  0.19200000  0.07800000  0.21200000  1
  H  H60  1  0.92660000  0.04890000  0.82890000  1
  H  H61  1  0.07340000  0.04890000  0.32890000  1
  H  H62  1  0.56630000  0.00380000  0.93870000  1
  H  H63  1  0.43370000  0.00380000  0.43870000  1
  C  C64  1  0.63920000  0.98750000  0.58340000  1
  C  C65  1  0.36080000  0.98750000  0.08340000  1
  C  C66  1  0.78300000  0.96360000  0.82710000  1
  C  C67  1  0.21700000  0.96360000  0.32710000  1
  C  C68  1  0.85450000  0.96010000  0.64860000  1
  C  C69  1  0.14550000  0.96010000  0.14860000  1
  C  C70  1  0.67680000  0.94790000  0.85890000  1
  C  C71  1  0.32320000  0.94790000  0.35890000  1
  C  C72  1  0.70810000  0.91130000  0.55870000  1
  C  C73  1  0.29190000  0.91130000  0.05870000  1
  C  C74  1  0.81730000  0.89730000  0.59060000  1
  C  C75  1  0.18270000  0.89730000  0.09060000  1
  C  C76  1  0.59940000  0.86500000  0.83390000  1
  C  C77  1  0.40060000  0.86500000  0.33390000  1
  C  C78  1  0.57520000  0.84120000  0.71400000  1
  C  C79  1  0.42480000  0.84120000  0.21400000  1
  C  C80  1  0.89100000  0.81580000  0.56290000  1
  C  C81  1  0.10900000  0.81580000  0.06290000  1
  C  C82  1  0.60360000  0.81210000  0.13350000  1
  C  C83  1  0.39640000  0.81210000  0.63350000  1
  C  C84  1  0.53570000  0.78430000  0.17920000  1
  C  C85  1  0.46430000  0.78430000  0.67920000  1
  C  C86  1  0.70100000  0.76080000  0.09760000  1
  C  C87  1  0.29900000  0.76080000  0.59760000  1
  C  C88  1  0.72620000  0.74840000  0.75410000  1
  C  C89  1  0.27380000  0.74840000  0.25410000  1
  C  C90  1  0.79800000  0.73260000  0.80440000  1
  C  C91  1  0.20200000  0.73260000  0.30440000  1
  C  C92  1  0.56810000  0.70690000  0.19080000  1
  C  C93  1  0.43190000  0.70690000  0.69080000  1
  C  C94  1  0.75010000  0.69730000  0.69060000  1
  C  C95  1  0.24990000  0.69730000  0.19060000  1
  C  C96  1  0.73210000  0.68090000  0.10830000  1
  C  C97  1  0.26790000  0.68090000  0.60830000  1
  C  C98  1  0.88960000  0.66720000  0.79130000  1
  C  C99  1  0.11040000  0.66720000  0.29130000  1
  C  C100  1  0.66680000  0.65470000  0.15580000  1
  C  C101  1  0.33320000  0.65470000  0.65580000  1
  C  C102  1  0.96590000  0.65350000  0.84750000  1
  C  C103  1  0.03410000  0.65350000  0.34750000  1
  C  C104  1  0.84280000  0.63110000  0.67590000  1
  C  C105  1  0.15720000  0.63110000  0.17590000  1
  C  C106  1  0.83110000  0.62220000  0.06780000  1
  C  C107  1  0.16890000  0.62220000  0.56780000  1
  C  C108  1  0.91170000  0.61470000  0.72660000  1
  C  C109  1  0.08830000  0.61470000  0.22660000  1
  C  C110  1  0.86500000  0.57850000  0.60420000  1
  C  C111  1  0.13500000  0.57850000  0.10420000  1
  C  C112  1  0.86500000  0.42150000  0.89580000  1
  C  C113  1  0.13500000  0.42150000  0.39580000  1
  C  C114  1  0.91170000  0.38530000  0.77340000  1
  C  C115  1  0.08830000  0.38530000  0.27340000  1
  C  C116  1  0.83110000  0.37780000  0.43220000  1
  C  C117  1  0.16890000  0.37780000  0.93220000  1
  C  C118  1  0.84280000  0.36890000  0.82410000  1
  C  C119  1  0.15720000  0.36890000  0.32410000  1
  C  C120  1  0.96590000  0.34650000  0.65250000  1
  C  C121  1  0.03410000  0.34650000  0.15250000  1
  C  C122  1  0.66680000  0.34530000  0.34420000  1
  C  C123  1  0.33320000  0.34530000  0.84420000  1
  C  C124  1  0.88960000  0.33280000  0.70870000  1
  C  C125  1  0.11040000  0.33280000  0.20870000  1
  C  C126  1  0.73210000  0.31910000  0.39170000  1
  C  C127  1  0.26790000  0.31910000  0.89170000  1
  C  C128  1  0.75010000  0.30270000  0.80940000  1
  C  C129  1  0.24990000  0.30270000  0.30940000  1
  C  C130  1  0.56810000  0.29310000  0.30920000  1
  C  C131  1  0.43190000  0.29310000  0.80920000  1
  C  C132  1  0.79800000  0.26740000  0.69560000  1
  C  C133  1  0.20200000  0.26740000  0.19560000  1
  C  C134  1  0.72620000  0.25160000  0.74590000  1
  C  C135  1  0.27380000  0.25160000  0.24590000  1
  C  C136  1  0.70100000  0.23920000  0.40240000  1
  C  C137  1  0.29900000  0.23920000  0.90240000  1
  C  C138  1  0.53570000  0.21570000  0.32080000  1
  C  C139  1  0.46430000  0.21570000  0.82080000  1
  C  C140  1  0.60360000  0.18790000  0.36650000  1
  C  C141  1  0.39640000  0.18790000  0.86650000  1
  C  C142  1  0.89100000  0.18420000  0.93710000  1
  C  C143  1  0.10900000  0.18420000  0.43710000  1
  C  C144  1  0.57520000  0.15880000  0.78600000  1
  C  C145  1  0.42480000  0.15880000  0.28600000  1
  C  C146  1  0.59940000  0.13500000  0.66610000  1
  C  C147  1  0.40060000  0.13500000  0.16610000  1
  C  C148  1  0.81730000  0.10270000  0.90940000  1
  C  C149  1  0.18270000  0.10270000  0.40940000  1
  C  C150  1  0.70810000  0.08870000  0.94130000  1
  C  C151  1  0.29190000  0.08870000  0.44130000  1
  C  C152  1  0.67680000  0.05210000  0.64110000  1
  C  C153  1  0.32320000  0.05210000  0.14110000  1
  C  C154  1  0.85450000  0.03990000  0.85140000  1
  C  C155  1  0.14550000  0.03990000  0.35140000  1
  C  C156  1  0.78300000  0.03640000  0.67290000  1
  C  C157  1  0.21700000  0.03640000  0.17290000  1
  C  C158  1  0.63920000  0.01250000  0.91660000  1
  C  C159  1  0.36080000  0.01250000  0.41660000  1
  N  N160  1  0.63100000  0.81180000  0.76680000  1
  N  N161  1  0.36900000  0.81180000  0.26680000  1
  N  N162  1  0.63100000  0.18820000  0.73320000  1
  N  N163  1  0.36900000  0.18820000  0.23320000  1
  O  O164  1  0.98850000  0.80680000  0.59920000  1
  O  O165  1  0.01150000  0.80680000  0.09920000  1
  O  O166  1  0.86380000  0.76200000  0.51070000  1
  O  O167  1  0.13620000  0.76200000  0.01070000  1
  O  O168  1  0.92900000  0.69020000  0.90600000  1
  O  O169  1  0.07100000  0.69020000  0.40600000  1
  O  O170  1  0.91270000  0.65560000  0.03870000  1
  O  O171  1  0.08730000  0.65560000  0.53870000  1
  O  O172  1  0.82730000  0.60990000  0.56040000  1
  O  O173  1  0.17270000  0.60990000  0.06040000  1
  O  O174  1  0.93560000  0.60690000  0.33620000  1
  O  O175  1  0.06440000  0.60690000  0.83620000  1
  O  O176  1  0.82780000  0.54280000  0.06460000  1
  O  O177  1  0.17220000  0.54280000  0.56460000  1
  O  O178  1  0.92180000  0.50530000  0.59280000  1
  O  O179  1  0.07820000  0.50530000  0.09280000  1
  O  O180  1  0.92180000  0.49470000  0.90720000  1
  O  O181  1  0.07820000  0.49470000  0.40720000  1
  O  O182  1  0.82780000  0.45720000  0.43540000  1
  O  O183  1  0.17220000  0.45720000  0.93540000  1
  O  O184  1  0.93560000  0.39310000  0.16380000  1
  O  O185  1  0.06440000  0.39310000  0.66380000  1
  O  O186  1  0.82730000  0.39010000  0.93960000  1
  O  O187  1  0.17270000  0.39010000  0.43960000  1
  O  O188  1  0.91270000  0.34440000  0.46130000  1
  O  O189  1  0.08730000  0.34440000  0.96130000  1
  O  O190  1  0.92900000  0.30980000  0.59400000  1
  O  O191  1  0.07100000  0.30980000  0.09400000  1
  O  O192  1  0.86380000  0.23800000  0.98930000  1
  O  O193  1  0.13620000  0.23800000  0.48930000  1
  O  O194  1  0.98850000  0.19320000  0.90080000  1
  O  O195  1  0.01150000  0.19320000  0.40080000  1
