# generated using pymatgen
data_AgH8C20(SN)4
_symmetry_space_group_name_H-M   'P 1'
_cell_length_a   6.16200000
_cell_length_b   13.83400000
_cell_length_c   13.83400000
_cell_angle_alpha   90.00000000
_cell_angle_beta   90.00000000
_cell_angle_gamma   90.00000000
_symmetry_Int_Tables_number   1
_chemical_formula_structural   AgH8C20(SN)4
_chemical_formula_sum   'Ag2 H16 C40 S8 N8'
_cell_volume   1179.28082407
_cell_formula_units_Z   2
loop_
 _symmetry_equiv_pos_site_id
 _symmetry_equiv_pos_as_xyz
  1  'x, y, z'
loop_
 _atom_site_type_symbol
 _atom_site_label
 _atom_site_symmetry_multiplicity
 _atom_site_fract_x
 _atom_site_fract_y
 _atom_site_fract_z
 _atom_site_occupancy
  Ag  Ag0  1  0.50000000  0.25000000  0.75000000  1
  Ag  Ag1  1  0.50000000  0.75000000  0.25000000  1
  H  H2  1  0.10170000  0.06120000  0.29210000  1
  H  H3  1  0.42320000  0.11490000  0.37980000  1
  H  H4  1  0.42320000  0.12020000  0.11490000  1
  H  H5  1  0.10170000  0.20790000  0.06120000  1
  H  H6  1  0.10170000  0.29210000  0.43880000  1
  H  H7  1  0.42320000  0.37980000  0.38510000  1
  H  H8  1  0.42320000  0.38510000  0.12020000  1
  H  H9  1  0.10170000  0.43880000  0.20790000  1
  H  H10  1  0.89830000  0.56120000  0.79210000  1
  H  H11  1  0.57680000  0.61490000  0.87980000  1
  H  H12  1  0.57680000  0.62020000  0.61490000  1
  H  H13  1  0.89830000  0.70790000  0.56120000  1
  H  H14  1  0.89830000  0.79210000  0.93880000  1
  H  H15  1  0.57680000  0.87980000  0.88510000  1
  H  H16  1  0.57680000  0.88510000  0.62020000  1
  H  H17  1  0.89830000  0.93880000  0.70790000  1
  C  C18  1  0.59070000  0.00366000  0.53364000  1
  C  C19  1  0.16390000  0.02731000  0.34311000  1
  C  C20  1  0.40930000  0.03364000  0.99634000  1
  C  C21  1  0.34910000  0.05812000  0.39397000  1
  C  C22  1  0.91380000  0.05880000  0.62203000  1
  C  C23  1  0.34910000  0.10603000  0.05812000  1
  C  C24  1  0.10140000  0.10950000  0.65310000  1
  C  C25  1  0.08620000  0.12203000  0.94120000  1
  C  C26  1  0.89860000  0.15310000  0.89050000  1
  C  C27  1  0.16390000  0.15689000  0.02731000  1
  C  C28  1  0.16390000  0.34311000  0.47269000  1
  C  C29  1  0.89860000  0.34690000  0.60950000  1
  C  C30  1  0.08620000  0.37797000  0.55880000  1
  C  C31  1  0.10140000  0.39050000  0.84690000  1
  C  C32  1  0.34910000  0.39397000  0.44188000  1
  C  C33  1  0.91380000  0.44120000  0.87797000  1
  C  C34  1  0.34910000  0.44188000  0.10603000  1
  C  C35  1  0.40930000  0.46636000  0.50366000  1
  C  C36  1  0.16390000  0.47269000  0.15689000  1
  C  C37  1  0.59070000  0.49634000  0.96636000  1
  C  C38  1  0.40930000  0.50366000  0.03364000  1
  C  C39  1  0.83610000  0.52731000  0.84311000  1
  C  C40  1  0.59070000  0.53364000  0.49634000  1
  C  C41  1  0.65090000  0.55812000  0.89397000  1
  C  C42  1  0.08620000  0.55880000  0.12203000  1
  C  C43  1  0.65090000  0.60603000  0.55812000  1
  C  C44  1  0.89860000  0.60950000  0.15310000  1
  C  C45  1  0.91380000  0.62203000  0.44120000  1
  C  C46  1  0.10140000  0.65310000  0.39050000  1
  C  C47  1  0.83610000  0.65689000  0.52731000  1
  C  C48  1  0.83610000  0.84311000  0.97269000  1
  C  C49  1  0.10140000  0.84690000  0.10950000  1
  C  C50  1  0.91380000  0.87797000  0.05880000  1
  C  C51  1  0.89860000  0.89050000  0.34690000  1
  C  C52  1  0.65090000  0.89397000  0.94188000  1
  C  C53  1  0.08620000  0.94120000  0.37797000  1
  C  C54  1  0.65090000  0.94188000  0.60603000  1
  C  C55  1  0.59070000  0.96636000  0.00366000  1
  C  C56  1  0.83610000  0.97269000  0.65689000  1
  C  C57  1  0.40930000  0.99634000  0.46636000  1
  S  S58  1  0.23856000  0.02702000  0.89804000  1
  S  S59  1  0.76144000  0.10196000  0.52702000  1
  S  S60  1  0.76144000  0.39804000  0.97298000  1
  S  S61  1  0.23856000  0.47298000  0.60196000  1
  S  S62  1  0.76144000  0.52702000  0.39804000  1
  S  S63  1  0.23856000  0.60196000  0.02702000  1
  S  S64  1  0.23856000  0.89804000  0.47298000  1
  S  S65  1  0.76144000  0.97298000  0.10196000  1
  N  N66  1  0.25270000  0.15123000  0.67681000  1
  N  N67  1  0.74730000  0.17681000  0.84877000  1
  N  N68  1  0.74730000  0.32319000  0.65123000  1
  N  N69  1  0.25270000  0.34877000  0.82319000  1
  N  N70  1  0.74730000  0.65123000  0.17681000  1
  N  N71  1  0.25270000  0.67681000  0.34877000  1
  N  N72  1  0.25270000  0.82319000  0.15123000  1
  N  N73  1  0.74730000  0.84877000  0.32319000  1
