# generated using pymatgen
data_Cu3H24C54(N7O6)2
_symmetry_space_group_name_H-M   'P 1'
_cell_length_a   37.47170000
_cell_length_b   37.47170000
_cell_length_c   37.47170000
_cell_angle_alpha   60.00000000
_cell_angle_beta   60.00000000
_cell_angle_gamma   60.00000000
_symmetry_Int_Tables_number   1
_chemical_formula_structural   Cu3H24C54(N7O6)2
_chemical_formula_sum   'Cu12 H96 C216 N56 O48'
_cell_volume   37204.47593797
_cell_formula_units_Z   4
loop_
 _symmetry_equiv_pos_site_id
 _symmetry_equiv_pos_as_xyz
  1  'x, y, z'
loop_
 _atom_site_type_symbol
 _atom_site_label
 _atom_site_symmetry_multiplicity
 _atom_site_fract_x
 _atom_site_fract_y
 _atom_site_fract_z
 _atom_site_occupancy
  Cu  Cu0  1  0.03549000  0.50000000  0.96451000  1
  Cu  Cu1  1  0.50000000  0.03549000  0.96451000  1
  Cu  Cu2  1  0.50000000  0.50000000  0.96451000  1
  Cu  Cu3  1  0.03549000  0.50000000  0.50000000  1
  Cu  Cu4  1  0.50000000  0.03549000  0.50000000  1
  Cu  Cu5  1  0.03549000  0.96451000  0.50000000  1
  Cu  Cu6  1  0.96451000  0.03549000  0.50000000  1
  Cu  Cu7  1  0.50000000  0.96451000  0.50000000  1
  Cu  Cu8  1  0.96451000  0.50000000  0.50000000  1
  Cu  Cu9  1  0.50000000  0.50000000  0.03549000  1
  Cu  Cu10  1  0.50000000  0.96451000  0.03549000  1
  Cu  Cu11  1  0.96451000  0.50000000  0.03549000  1
  H  H12  1  0.47750000  0.63670000  0.99510000  1
  H  H13  1  0.63670000  0.47750000  0.99510000  1
  H  H14  1  0.47750000  0.89070000  0.99510000  1
  H  H15  1  0.89070000  0.47750000  0.99510000  1
  H  H16  1  0.63670000  0.89070000  0.99510000  1
  H  H17  1  0.89070000  0.63670000  0.99510000  1
  H  H18  1  0.47230000  0.70930000  0.96290000  1
  H  H19  1  0.70930000  0.47230000  0.96290000  1
  H  H20  1  0.47230000  0.85550000  0.96290000  1
  H  H21  1  0.85550000  0.47230000  0.96290000  1
  H  H22  1  0.70930000  0.85550000  0.96290000  1
  H  H23  1  0.85550000  0.70930000  0.96290000  1
  H  H24  1  0.47750000  0.63670000  0.89070000  1
  H  H25  1  0.63670000  0.47750000  0.89070000  1
  H  H26  1  0.47750000  0.99510000  0.89070000  1
  H  H27  1  0.99510000  0.47750000  0.89070000  1
  H  H28  1  0.63670000  0.99510000  0.89070000  1
  H  H29  1  0.99510000  0.63670000  0.89070000  1
  H  H30  1  0.47230000  0.70930000  0.85550000  1
  H  H31  1  0.70930000  0.47230000  0.85550000  1
  H  H32  1  0.47230000  0.96290000  0.85550000  1
  H  H33  1  0.96290000  0.47230000  0.85550000  1
  H  H34  1  0.70930000  0.96290000  0.85550000  1
  H  H35  1  0.96290000  0.70930000  0.85550000  1
  H  H36  1  0.47230000  0.85550000  0.70930000  1
  H  H37  1  0.85550000  0.47230000  0.70930000  1
  H  H38  1  0.47230000  0.96290000  0.70930000  1
  H  H39  1  0.96290000  0.47230000  0.70930000  1
  H  H40  1  0.85550000  0.96290000  0.70930000  1
  H  H41  1  0.96290000  0.85550000  0.70930000  1
  H  H42  1  0.47750000  0.89070000  0.63670000  1
  H  H43  1  0.89070000  0.47750000  0.63670000  1
  H  H44  1  0.47750000  0.99510000  0.63670000  1
  H  H45  1  0.99510000  0.47750000  0.63670000  1
  H  H46  1  0.89070000  0.99510000  0.63670000  1
  H  H47  1  0.99510000  0.89070000  0.63670000  1
  H  H48  1  0.03710000  0.14450000  0.52770000  1
  H  H49  1  0.14450000  0.03710000  0.52770000  1
  H  H50  1  0.03710000  0.29070000  0.52770000  1
  H  H51  1  0.29070000  0.03710000  0.52770000  1
  H  H52  1  0.14450000  0.29070000  0.52770000  1
  H  H53  1  0.29070000  0.14450000  0.52770000  1
  H  H54  1  0.00490000  0.10930000  0.52250000  1
  H  H55  1  0.10930000  0.00490000  0.52250000  1
  H  H56  1  0.00490000  0.36330000  0.52250000  1
  H  H57  1  0.36330000  0.00490000  0.52250000  1
  H  H58  1  0.10930000  0.36330000  0.52250000  1
  H  H59  1  0.36330000  0.10930000  0.52250000  1
  H  H60  1  0.63670000  0.89070000  0.47750000  1
  H  H61  1  0.89070000  0.63670000  0.47750000  1
  H  H62  1  0.63670000  0.99510000  0.47750000  1
  H  H63  1  0.99510000  0.63670000  0.47750000  1
  H  H64  1  0.89070000  0.99510000  0.47750000  1
  H  H65  1  0.99510000  0.89070000  0.47750000  1
  H  H66  1  0.70930000  0.85550000  0.47230000  1
  H  H67  1  0.85550000  0.70930000  0.47230000  1
  H  H68  1  0.70930000  0.96290000  0.47230000  1
  H  H69  1  0.96290000  0.70930000  0.47230000  1
  H  H70  1  0.85550000  0.96290000  0.47230000  1
  H  H71  1  0.96290000  0.85550000  0.47230000  1
  H  H72  1  0.00490000  0.10930000  0.36330000  1
  H  H73  1  0.10930000  0.00490000  0.36330000  1
  H  H74  1  0.00490000  0.52250000  0.36330000  1
  H  H75  1  0.52250000  0.00490000  0.36330000  1
  H  H76  1  0.10930000  0.52250000  0.36330000  1
  H  H77  1  0.52250000  0.10930000  0.36330000  1
  H  H78  1  0.03710000  0.14450000  0.29070000  1
  H  H79  1  0.14450000  0.03710000  0.29070000  1
  H  H80  1  0.03710000  0.52770000  0.29070000  1
  H  H81  1  0.52770000  0.03710000  0.29070000  1
  H  H82  1  0.14450000  0.52770000  0.29070000  1
  H  H83  1  0.52770000  0.14450000  0.29070000  1
  H  H84  1  0.03710000  0.29070000  0.14450000  1
  H  H85  1  0.29070000  0.03710000  0.14450000  1
  H  H86  1  0.03710000  0.52770000  0.14450000  1
  H  H87  1  0.52770000  0.03710000  0.14450000  1
  H  H88  1  0.29070000  0.52770000  0.14450000  1
  H  H89  1  0.52770000  0.29070000  0.14450000  1
  H  H90  1  0.00490000  0.36330000  0.10930000  1
  H  H91  1  0.36330000  0.00490000  0.10930000  1
  H  H92  1  0.00490000  0.52250000  0.10930000  1
  H  H93  1  0.52250000  0.00490000  0.10930000  1
  H  H94  1  0.36330000  0.52250000  0.10930000  1
  H  H95  1  0.52250000  0.36330000  0.10930000  1
  H  H96  1  0.14450000  0.29070000  0.03710000  1
  H  H97  1  0.29070000  0.14450000  0.03710000  1
  H  H98  1  0.14450000  0.52770000  0.03710000  1
  H  H99  1  0.52770000  0.14450000  0.03710000  1
  H  H100  1  0.29070000  0.52770000  0.03710000  1
  H  H101  1  0.52770000  0.29070000  0.03710000  1
  H  H102  1  0.10930000  0.36330000  0.00490000  1
  H  H103  1  0.36330000  0.10930000  0.00490000  1
  H  H104  1  0.10930000  0.52250000  0.00490000  1
  H  H105  1  0.52250000  0.10930000  0.00490000  1
  H  H106  1  0.36330000  0.52250000  0.00490000  1
  H  H107  1  0.52250000  0.36330000  0.00490000  1
  C  C108  1  0.47690000  0.65140000  0.96670000  1
  C  C109  1  0.65140000  0.47690000  0.96670000  1
  C  C110  1  0.47690000  0.90500000  0.96670000  1
  C  C111  1  0.90500000  0.47690000  0.96670000  1
  C  C112  1  0.65140000  0.90500000  0.96670000  1
  C  C113  1  0.90500000  0.65140000  0.96670000  1
  C  C114  1  0.48708000  0.57964000  0.96664000  1
  C  C115  1  0.57964000  0.48708000  0.96664000  1
  C  C116  1  0.48708000  0.96664000  0.96664000  1
  C  C117  1  0.96664000  0.48708000  0.96664000  1
  C  C118  1  0.57964000  0.96664000  0.96664000  1
  C  C119  1  0.96664000  0.57964000  0.96664000  1
  C  C120  1  0.47327000  0.69515000  0.94779000  1
  C  C121  1  0.69515000  0.47327000  0.94779000  1
  C  C122  1  0.47327000  0.88379000  0.94779000  1
  C  C123  1  0.88379000  0.47327000  0.94779000  1
  C  C124  1  0.69515000  0.88379000  0.94779000  1
  C  C125  1  0.88379000  0.69515000  0.94779000  1
  C  C126  1  0.47951000  0.62951000  0.94549000  1
  C  C127  1  0.62951000  0.47951000  0.94549000  1
  C  C128  1  0.47951000  0.94549000  0.94549000  1
  C  C129  1  0.94549000  0.47951000  0.94549000  1
  C  C130  1  0.62951000  0.94549000  0.94549000  1
  C  C131  1  0.94549000  0.62951000  0.94549000  1
  C  C132  1  0.47100000  0.71752000  0.90574000  1
  C  C133  1  0.71752000  0.47100000  0.90574000  1
  C  C134  1  0.47100000  0.90574000  0.90574000  1
  C  C135  1  0.90574000  0.47100000  0.90574000  1
  C  C136  1  0.71752000  0.90574000  0.90574000  1
  C  C137  1  0.90574000  0.71752000  0.90574000  1
  C  C138  1  0.47690000  0.65140000  0.90500000  1
  C  C139  1  0.65140000  0.47690000  0.90500000  1
  C  C140  1  0.47690000  0.96670000  0.90500000  1
  C  C141  1  0.96670000  0.47690000  0.90500000  1
  C  C142  1  0.65140000  0.96670000  0.90500000  1
  C  C143  1  0.96670000  0.65140000  0.90500000  1
  C  C144  1  0.46631000  0.82307000  0.88755000  1
  C  C145  1  0.82307000  0.46631000  0.88755000  1
  C  C146  1  0.82307000  0.82307000  0.88755000  1
  C  C147  1  0.46708000  0.76296000  0.88498000  1
  C  C148  1  0.76296000  0.46708000  0.88498000  1
  C  C149  1  0.46708000  0.88498000  0.88498000  1
  C  C150  1  0.88498000  0.46708000  0.88498000  1
  C  C151  1  0.76296000  0.88498000  0.88498000  1
  C  C152  1  0.88498000  0.76296000  0.88498000  1
  C  C153  1  0.47327000  0.69515000  0.88379000  1
  C  C154  1  0.69515000  0.47327000  0.88379000  1
  C  C155  1  0.47327000  0.94779000  0.88379000  1
  C  C156  1  0.94779000  0.47327000  0.88379000  1
  C  C157  1  0.69515000  0.94779000  0.88379000  1
  C  C158  1  0.94779000  0.69515000  0.88379000  1
  C  C159  1  0.46631000  0.82307000  0.82307000  1
  C  C160  1  0.82307000  0.46631000  0.82307000  1
  C  C161  1  0.46631000  0.88755000  0.82307000  1
  C  C162  1  0.88755000  0.46631000  0.82307000  1
  C  C163  1  0.82307000  0.88755000  0.82307000  1
  C  C164  1  0.88755000  0.82307000  0.82307000  1
  C  C165  1  0.46708000  0.88498000  0.76296000  1
  C  C166  1  0.88498000  0.46708000  0.76296000  1
  C  C167  1  0.88498000  0.88498000  0.76296000  1
  C  C168  1  0.47100000  0.90574000  0.71752000  1
  C  C169  1  0.90574000  0.47100000  0.71752000  1
  C  C170  1  0.90574000  0.90574000  0.71752000  1
  C  C171  1  0.47327000  0.88379000  0.69515000  1
  C  C172  1  0.88379000  0.47327000  0.69515000  1
  C  C173  1  0.47327000  0.94779000  0.69515000  1
  C  C174  1  0.94779000  0.47327000  0.69515000  1
  C  C175  1  0.88379000  0.94779000  0.69515000  1
  C  C176  1  0.94779000  0.88379000  0.69515000  1
  C  C177  1  0.47690000  0.90500000  0.65140000  1
  C  C178  1  0.90500000  0.47690000  0.65140000  1
  C  C179  1  0.47690000  0.96670000  0.65140000  1
  C  C180  1  0.96670000  0.47690000  0.65140000  1
  C  C181  1  0.90500000  0.96670000  0.65140000  1
  C  C182  1  0.96670000  0.90500000  0.65140000  1
  C  C183  1  0.47951000  0.94549000  0.62951000  1
  C  C184  1  0.94549000  0.47951000  0.62951000  1
  C  C185  1  0.94549000  0.94549000  0.62951000  1
  C  C186  1  0.48708000  0.96664000  0.57964000  1
  C  C187  1  0.96664000  0.48708000  0.57964000  1
  C  C188  1  0.96664000  0.96664000  0.57964000  1
  C  C189  1  0.11245000  0.17693000  0.53369000  1
  C  C190  1  0.17693000  0.11245000  0.53369000  1
  C  C191  1  0.17693000  0.17693000  0.53369000  1
  C  C192  1  0.11502000  0.11502000  0.53292000  1
  C  C193  1  0.11502000  0.23704000  0.53292000  1
  C  C194  1  0.23704000  0.11502000  0.53292000  1
  C  C195  1  0.09426000  0.09426000  0.52900000  1
  C  C196  1  0.09426000  0.28248000  0.52900000  1
  C  C197  1  0.28248000  0.09426000  0.52900000  1
  C  C198  1  0.05221000  0.11621000  0.52673000  1
  C  C199  1  0.11621000  0.05221000  0.52673000  1
  C  C200  1  0.05221000  0.30485000  0.52673000  1
  C  C201  1  0.30485000  0.05221000  0.52673000  1
  C  C202  1  0.11621000  0.30485000  0.52673000  1
  C  C203  1  0.30485000  0.11621000  0.52673000  1
  C  C204  1  0.03330000  0.09500000  0.52310000  1
  C  C205  1  0.09500000  0.03330000  0.52310000  1
  C  C206  1  0.03330000  0.34860000  0.52310000  1
  C  C207  1  0.34860000  0.03330000  0.52310000  1
  C  C208  1  0.09500000  0.34860000  0.52310000  1
  C  C209  1  0.34860000  0.09500000  0.52310000  1
  C  C210  1  0.05451000  0.05451000  0.52049000  1
  C  C211  1  0.05451000  0.37049000  0.52049000  1
  C  C212  1  0.37049000  0.05451000  0.52049000  1
  C  C213  1  0.03336000  0.03336000  0.51292000  1
  C  C214  1  0.03336000  0.42036000  0.51292000  1
  C  C215  1  0.42036000  0.03336000  0.51292000  1
  C  C216  1  0.57964000  0.96664000  0.48708000  1
  C  C217  1  0.96664000  0.57964000  0.48708000  1
  C  C218  1  0.96664000  0.96664000  0.48708000  1
  C  C219  1  0.62951000  0.94549000  0.47951000  1
  C  C220  1  0.94549000  0.62951000  0.47951000  1
  C  C221  1  0.94549000  0.94549000  0.47951000  1
  C  C222  1  0.65140000  0.90500000  0.47690000  1
  C  C223  1  0.90500000  0.65140000  0.47690000  1
  C  C224  1  0.65140000  0.96670000  0.47690000  1
  C  C225  1  0.96670000  0.65140000  0.47690000  1
  C  C226  1  0.90500000  0.96670000  0.47690000  1
  C  C227  1  0.96670000  0.90500000  0.47690000  1
  C  C228  1  0.69515000  0.88379000  0.47327000  1
  C  C229  1  0.88379000  0.69515000  0.47327000  1
  C  C230  1  0.69515000  0.94779000  0.47327000  1
  C  C231  1  0.94779000  0.69515000  0.47327000  1
  C  C232  1  0.88379000  0.94779000  0.47327000  1
  C  C233  1  0.94779000  0.88379000  0.47327000  1
  C  C234  1  0.71752000  0.90574000  0.47100000  1
  C  C235  1  0.90574000  0.71752000  0.47100000  1
  C  C236  1  0.90574000  0.90574000  0.47100000  1
  C  C237  1  0.76296000  0.88498000  0.46708000  1
  C  C238  1  0.88498000  0.76296000  0.46708000  1
  C  C239  1  0.88498000  0.88498000  0.46708000  1
  C  C240  1  0.82307000  0.82307000  0.46631000  1
  C  C241  1  0.82307000  0.88755000  0.46631000  1
  C  C242  1  0.88755000  0.82307000  0.46631000  1
  C  C243  1  0.03336000  0.03336000  0.42036000  1
  C  C244  1  0.03336000  0.51292000  0.42036000  1
  C  C245  1  0.51292000  0.03336000  0.42036000  1
  C  C246  1  0.05451000  0.05451000  0.37049000  1
  C  C247  1  0.05451000  0.52049000  0.37049000  1
  C  C248  1  0.52049000  0.05451000  0.37049000  1
  C  C249  1  0.03330000  0.09500000  0.34860000  1
  C  C250  1  0.09500000  0.03330000  0.34860000  1
  C  C251  1  0.03330000  0.52310000  0.34860000  1
  C  C252  1  0.52310000  0.03330000  0.34860000  1
  C  C253  1  0.09500000  0.52310000  0.34860000  1
  C  C254  1  0.52310000  0.09500000  0.34860000  1
  C  C255  1  0.05221000  0.11621000  0.30485000  1
  C  C256  1  0.11621000  0.05221000  0.30485000  1
  C  C257  1  0.05221000  0.52673000  0.30485000  1
  C  C258  1  0.52673000  0.05221000  0.30485000  1
  C  C259  1  0.11621000  0.52673000  0.30485000  1
  C  C260  1  0.52673000  0.11621000  0.30485000  1
  C  C261  1  0.09426000  0.09426000  0.28248000  1
  C  C262  1  0.09426000  0.52900000  0.28248000  1
  C  C263  1  0.52900000  0.09426000  0.28248000  1
  C  C264  1  0.11502000  0.11502000  0.23704000  1
  C  C265  1  0.11502000  0.53292000  0.23704000  1
  C  C266  1  0.53292000  0.11502000  0.23704000  1
  C  C267  1  0.11245000  0.17693000  0.17693000  1
  C  C268  1  0.17693000  0.11245000  0.17693000  1
  C  C269  1  0.11245000  0.53369000  0.17693000  1
  C  C270  1  0.53369000  0.11245000  0.17693000  1
  C  C271  1  0.17693000  0.53369000  0.17693000  1
  C  C272  1  0.53369000  0.17693000  0.17693000  1
  C  C273  1  0.05221000  0.30485000  0.11621000  1
  C  C274  1  0.30485000  0.05221000  0.11621000  1
  C  C275  1  0.05221000  0.52673000  0.11621000  1
  C  C276  1  0.52673000  0.05221000  0.11621000  1
  C  C277  1  0.30485000  0.52673000  0.11621000  1
  C  C278  1  0.52673000  0.30485000  0.11621000  1
  C  C279  1  0.11502000  0.23704000  0.11502000  1
  C  C280  1  0.23704000  0.11502000  0.11502000  1
  C  C281  1  0.11502000  0.53292000  0.11502000  1
  C  C282  1  0.53292000  0.11502000  0.11502000  1
  C  C283  1  0.23704000  0.53292000  0.11502000  1
  C  C284  1  0.53292000  0.23704000  0.11502000  1
  C  C285  1  0.17693000  0.17693000  0.11245000  1
  C  C286  1  0.17693000  0.53369000  0.11245000  1
  C  C287  1  0.53369000  0.17693000  0.11245000  1
  C  C288  1  0.03330000  0.34860000  0.09500000  1
  C  C289  1  0.34860000  0.03330000  0.09500000  1
  C  C290  1  0.03330000  0.52310000  0.09500000  1
  C  C291  1  0.52310000  0.03330000  0.09500000  1
  C  C292  1  0.34860000  0.52310000  0.09500000  1
  C  C293  1  0.52310000  0.34860000  0.09500000  1
  C  C294  1  0.09426000  0.28248000  0.09426000  1
  C  C295  1  0.28248000  0.09426000  0.09426000  1
  C  C296  1  0.09426000  0.52900000  0.09426000  1
  C  C297  1  0.52900000  0.09426000  0.09426000  1
  C  C298  1  0.28248000  0.52900000  0.09426000  1
  C  C299  1  0.52900000  0.28248000  0.09426000  1
  C  C300  1  0.05451000  0.37049000  0.05451000  1
  C  C301  1  0.37049000  0.05451000  0.05451000  1
  C  C302  1  0.05451000  0.52049000  0.05451000  1
  C  C303  1  0.52049000  0.05451000  0.05451000  1
  C  C304  1  0.37049000  0.52049000  0.05451000  1
  C  C305  1  0.52049000  0.37049000  0.05451000  1
  C  C306  1  0.11621000  0.30485000  0.05221000  1
  C  C307  1  0.30485000  0.11621000  0.05221000  1
  C  C308  1  0.11621000  0.52673000  0.05221000  1
  C  C309  1  0.52673000  0.11621000  0.05221000  1
  C  C310  1  0.30485000  0.52673000  0.05221000  1
  C  C311  1  0.52673000  0.30485000  0.05221000  1
  C  C312  1  0.03336000  0.42036000  0.03336000  1
  C  C313  1  0.42036000  0.03336000  0.03336000  1
  C  C314  1  0.03336000  0.51292000  0.03336000  1
  C  C315  1  0.51292000  0.03336000  0.03336000  1
  C  C316  1  0.42036000  0.51292000  0.03336000  1
  C  C317  1  0.51292000  0.42036000  0.03336000  1
  C  C318  1  0.09500000  0.34860000  0.03330000  1
  C  C319  1  0.34860000  0.09500000  0.03330000  1
  C  C320  1  0.09500000  0.52310000  0.03330000  1
  C  C321  1  0.52310000  0.09500000  0.03330000  1
  C  C322  1  0.34860000  0.52310000  0.03330000  1
  C  C323  1  0.52310000  0.34860000  0.03330000  1
  N  N324  1  0.46741000  0.78179000  0.90743000  1
  N  N325  1  0.78179000  0.46741000  0.90743000  1
  N  N326  1  0.46741000  0.84337000  0.90743000  1
  N  N327  1  0.84337000  0.46741000  0.90743000  1
  N  N328  1  0.78179000  0.84337000  0.90743000  1
  N  N329  1  0.84337000  0.78179000  0.90743000  1
  N  N330  1  0.46566000  0.84478000  0.84478000  1
  N  N331  1  0.84478000  0.46566000  0.84478000  1
  N  N332  1  0.84478000  0.84478000  0.84478000  1
  N  N333  1  0.46741000  0.78179000  0.84337000  1
  N  N334  1  0.78179000  0.46741000  0.84337000  1
  N  N335  1  0.46741000  0.90743000  0.84337000  1
  N  N336  1  0.90743000  0.46741000  0.84337000  1
  N  N337  1  0.78179000  0.90743000  0.84337000  1
  N  N338  1  0.90743000  0.78179000  0.84337000  1
  N  N339  1  0.46741000  0.84337000  0.78179000  1
  N  N340  1  0.84337000  0.46741000  0.78179000  1
  N  N341  1  0.46741000  0.90743000  0.78179000  1
  N  N342  1  0.90743000  0.46741000  0.78179000  1
  N  N343  1  0.84337000  0.90743000  0.78179000  1
  N  N344  1  0.90743000  0.84337000  0.78179000  1
  N  N345  1  0.15522000  0.15522000  0.53434000  1
  N  N346  1  0.09257000  0.15663000  0.53259000  1
  N  N347  1  0.15663000  0.09257000  0.53259000  1
  N  N348  1  0.09257000  0.21821000  0.53259000  1
  N  N349  1  0.21821000  0.09257000  0.53259000  1
  N  N350  1  0.15663000  0.21821000  0.53259000  1
  N  N351  1  0.21821000  0.15663000  0.53259000  1
  N  N352  1  0.78179000  0.84337000  0.46741000  1
  N  N353  1  0.84337000  0.78179000  0.46741000  1
  N  N354  1  0.78179000  0.90743000  0.46741000  1
  N  N355  1  0.90743000  0.78179000  0.46741000  1
  N  N356  1  0.84337000  0.90743000  0.46741000  1
  N  N357  1  0.90743000  0.84337000  0.46741000  1
  N  N358  1  0.84478000  0.84478000  0.46566000  1
  N  N359  1  0.09257000  0.15663000  0.21821000  1
  N  N360  1  0.15663000  0.09257000  0.21821000  1
  N  N361  1  0.09257000  0.53259000  0.21821000  1
  N  N362  1  0.53259000  0.09257000  0.21821000  1
  N  N363  1  0.15663000  0.53259000  0.21821000  1
  N  N364  1  0.53259000  0.15663000  0.21821000  1
  N  N365  1  0.09257000  0.21821000  0.15663000  1
  N  N366  1  0.21821000  0.09257000  0.15663000  1
  N  N367  1  0.09257000  0.53259000  0.15663000  1
  N  N368  1  0.53259000  0.09257000  0.15663000  1
  N  N369  1  0.21821000  0.53259000  0.15663000  1
  N  N370  1  0.53259000  0.21821000  0.15663000  1
  N  N371  1  0.15522000  0.15522000  0.15522000  1
  N  N372  1  0.15522000  0.53434000  0.15522000  1
  N  N373  1  0.53434000  0.15522000  0.15522000  1
  N  N374  1  0.15663000  0.21821000  0.09257000  1
  N  N375  1  0.21821000  0.15663000  0.09257000  1
  N  N376  1  0.15663000  0.53259000  0.09257000  1
  N  N377  1  0.53259000  0.15663000  0.09257000  1
  N  N378  1  0.21821000  0.53259000  0.09257000  1
  N  N379  1  0.53259000  0.21821000  0.09257000  1
  O  O380  1  0.05562000  0.43680000  0.99641000  1
  O  O381  1  0.43680000  0.05562000  0.99641000  1
  O  O382  1  0.05562000  0.51117000  0.99641000  1
  O  O383  1  0.51117000  0.05562000  0.99641000  1
  O  O384  1  0.43680000  0.51117000  0.99641000  1
  O  O385  1  0.51117000  0.43680000  0.99641000  1
  O  O386  1  0.00359000  0.48883000  0.94438000  1
  O  O387  1  0.48883000  0.00359000  0.94438000  1
  O  O388  1  0.00359000  0.56320000  0.94438000  1
  O  O389  1  0.56320000  0.00359000  0.94438000  1
  O  O390  1  0.48883000  0.56320000  0.94438000  1
  O  O391  1  0.56320000  0.48883000  0.94438000  1
  O  O392  1  0.00359000  0.48883000  0.56320000  1
  O  O393  1  0.48883000  0.00359000  0.56320000  1
  O  O394  1  0.00359000  0.94438000  0.56320000  1
  O  O395  1  0.94438000  0.00359000  0.56320000  1
  O  O396  1  0.48883000  0.94438000  0.56320000  1
  O  O397  1  0.94438000  0.48883000  0.56320000  1
  O  O398  1  0.05562000  0.43680000  0.51117000  1
  O  O399  1  0.43680000  0.05562000  0.51117000  1
  O  O400  1  0.05562000  0.99641000  0.51117000  1
  O  O401  1  0.99641000  0.05562000  0.51117000  1
  O  O402  1  0.43680000  0.99641000  0.51117000  1
  O  O403  1  0.99641000  0.43680000  0.51117000  1
  O  O404  1  0.00359000  0.56320000  0.48883000  1
  O  O405  1  0.56320000  0.00359000  0.48883000  1
  O  O406  1  0.00359000  0.94438000  0.48883000  1
  O  O407  1  0.94438000  0.00359000  0.48883000  1
  O  O408  1  0.56320000  0.94438000  0.48883000  1
  O  O409  1  0.94438000  0.56320000  0.48883000  1
  O  O410  1  0.05562000  0.51117000  0.43680000  1
  O  O411  1  0.51117000  0.05562000  0.43680000  1
  O  O412  1  0.05562000  0.99641000  0.43680000  1
  O  O413  1  0.99641000  0.05562000  0.43680000  1
  O  O414  1  0.51117000  0.99641000  0.43680000  1
  O  O415  1  0.99641000  0.51117000  0.43680000  1
  O  O416  1  0.43680000  0.51117000  0.05562000  1
  O  O417  1  0.51117000  0.43680000  0.05562000  1
  O  O418  1  0.43680000  0.99641000  0.05562000  1
  O  O419  1  0.99641000  0.43680000  0.05562000  1
  O  O420  1  0.51117000  0.99641000  0.05562000  1
  O  O421  1  0.99641000  0.51117000  0.05562000  1
  O  O422  1  0.48883000  0.56320000  0.00359000  1
  O  O423  1  0.56320000  0.48883000  0.00359000  1
  O  O424  1  0.48883000  0.94438000  0.00359000  1
  O  O425  1  0.94438000  0.48883000  0.00359000  1
  O  O426  1  0.56320000  0.94438000  0.00359000  1
  O  O427  1  0.94438000  0.56320000  0.00359000  1
