# generated using pymatgen
data_CoH20C30S(NO3)2
_symmetry_space_group_name_H-M   'P 1'
_cell_length_a   15.61670000
_cell_length_b   15.61670000
_cell_length_c   16.71780000
_cell_angle_alpha   100.83500000
_cell_angle_beta   100.83500000
_cell_angle_gamma   119.90500000
_symmetry_Int_Tables_number   1
_chemical_formula_structural   CoH20C30S(NO3)2
_chemical_formula_sum   'Co4 H80 C120 S4 N8 O24'
_cell_volume   3275.77633833
_cell_formula_units_Z   4
loop_
 _symmetry_equiv_pos_site_id
 _symmetry_equiv_pos_as_xyz
  1  'x, y, z'
loop_
 _atom_site_type_symbol
 _atom_site_label
 _atom_site_symmetry_multiplicity
 _atom_site_fract_x
 _atom_site_fract_y
 _atom_site_fract_z
 _atom_site_occupancy
  Co  Co0  1  0.49505000  0.93123000  0.87919000  1
  Co  Co1  1  0.06877000  0.50495000  0.62081000  1
  Co  Co2  1  0.93123000  0.49505000  0.37919000  1
  Co  Co3  1  0.50495000  0.06877000  0.12081000  1
  H  H4  1  0.34470000  0.99470000  0.82050000  1
  H  H5  1  0.62310000  0.99170000  0.33790000  1
  H  H6  1  0.22440000  0.95420000  0.03690000  1
  H  H7  1  0.13560000  0.94940000  0.47410000  1
  H  H8  1  0.70460000  0.91340000  0.71930000  1
  H  H9  1  0.75020000  0.89360000  0.59750000  1
  H  H10  1  0.44180000  0.87240000  0.58040000  1
  H  H11  1  0.05060000  0.86440000  0.02590000  1
  H  H12  1  0.66320000  0.86360000  0.17780000  1
  H  H13  1  0.64070000  0.86070000  0.92480000  1
  H  H14  1  0.48820000  0.85760000  0.45940000  1
  H  H15  1  0.28380000  0.83520000  0.65640000  1
  H  H16  1  0.35330000  0.83050000  0.08050000  1
  H  H17  1  0.04580000  0.77560000  0.46310000  1
  H  H18  1  0.89360000  0.75020000  0.09750000  1
  H  H19  1  0.16480000  0.71620000  0.84360000  1
  H  H20  1  0.64280000  0.71460000  0.92020000  1
  H  H21  1  0.64730000  0.71190000  0.10350000  1
  H  H22  1  0.91340000  0.70460000  0.21930000  1
  H  H23  1  0.33720000  0.69560000  0.84610000  1
  H  H24  1  0.35240000  0.68380000  0.07550000  1
  H  H25  1  0.45270000  0.66830000  0.65760000  1
  H  H26  1  0.86360000  0.66320000  0.67780000  1
  H  H27  1  0.30440000  0.66280000  0.65390000  1
  H  H28  1  0.00530000  0.65530000  0.67950000  1
  H  H29  1  0.56630000  0.64990000  0.60110000  1
  H  H30  1  0.31620000  0.64760000  0.42450000  1
  H  H31  1  0.71190000  0.64730000  0.60350000  1
  H  H32  1  0.16950000  0.64670000  0.41950000  1
  H  H33  1  0.71460000  0.64280000  0.42020000  1
  H  H34  1  0.86070000  0.64070000  0.42480000  1
  H  H35  1  0.42090000  0.62570000  0.35390000  1
  H  H36  1  0.99170000  0.62310000  0.83790000  1
  H  H37  1  0.56600000  0.62140000  0.35320000  1
  H  H38  1  0.37430000  0.57910000  0.14610000  1
  H  H39  1  0.64990000  0.56630000  0.10110000  1
  H  H40  1  0.62140000  0.56600000  0.85320000  1
  H  H41  1  0.12760000  0.55820000  0.91960000  1
  H  H42  1  0.33170000  0.54730000  0.84240000  1
  H  H43  1  0.14240000  0.51180000  0.04060000  1
  H  H44  1  0.85760000  0.48820000  0.95940000  1
  H  H45  1  0.66830000  0.45270000  0.15760000  1
  H  H46  1  0.87240000  0.44180000  0.08040000  1
  H  H47  1  0.37860000  0.43400000  0.14680000  1
  H  H48  1  0.35010000  0.43370000  0.89890000  1
  H  H49  1  0.62570000  0.42090000  0.85390000  1
  H  H50  1  0.43400000  0.37860000  0.64680000  1
  H  H51  1  0.00830000  0.37690000  0.16210000  1
  H  H52  1  0.57910000  0.37430000  0.64610000  1
  H  H53  1  0.13930000  0.35930000  0.57520000  1
  H  H54  1  0.28540000  0.35720000  0.57980000  1
  H  H55  1  0.83050000  0.35330000  0.58050000  1
  H  H56  1  0.28810000  0.35270000  0.39650000  1
  H  H57  1  0.68380000  0.35240000  0.57550000  1
  H  H58  1  0.43370000  0.35010000  0.39890000  1
  H  H59  1  0.99470000  0.34470000  0.32050000  1
  H  H60  1  0.69560000  0.33720000  0.34610000  1
  H  H61  1  0.13640000  0.33680000  0.32220000  1
  H  H62  1  0.54730000  0.33170000  0.34240000  1
  H  H63  1  0.64760000  0.31620000  0.92450000  1
  H  H64  1  0.66280000  0.30440000  0.15390000  1
  H  H65  1  0.08660000  0.29540000  0.78070000  1
  H  H66  1  0.35270000  0.28810000  0.89650000  1
  H  H67  1  0.35720000  0.28540000  0.07980000  1
  H  H68  1  0.83520000  0.28380000  0.15640000  1
  H  H69  1  0.10640000  0.24980000  0.90250000  1
  H  H70  1  0.95420000  0.22440000  0.53690000  1
  H  H71  1  0.64670000  0.16950000  0.91950000  1
  H  H72  1  0.71620000  0.16480000  0.34360000  1
  H  H73  1  0.51180000  0.14240000  0.54060000  1
  H  H74  1  0.35930000  0.13930000  0.07520000  1
  H  H75  1  0.33680000  0.13640000  0.82220000  1
  H  H76  1  0.94940000  0.13560000  0.97410000  1
  H  H77  1  0.55820000  0.12760000  0.41960000  1
  H  H78  1  0.24980000  0.10640000  0.40250000  1
  H  H79  1  0.29540000  0.08660000  0.28070000  1
  H  H80  1  0.86440000  0.05060000  0.52590000  1
  H  H81  1  0.77560000  0.04580000  0.96310000  1
  H  H82  1  0.37690000  0.00830000  0.66210000  1
  H  H83  1  0.65530000  0.00530000  0.17950000  1
  C  C84  1  0.26480000  0.99380000  0.56970000  1
  C  C85  1  0.30950000  0.96130000  0.62310000  1
  C  C86  1  0.59318000  0.93942000  0.15760000  1
  C  C87  1  0.16545000  0.92555000  0.51000000  1
  C  C88  1  0.54171000  0.91149000  0.74340000  1
  C  C89  1  0.32555000  0.90385000  0.94740000  1
  C  C90  1  0.66098000  0.90202000  0.66666667  1
  C  C91  1  0.56963000  0.89637000  0.66280000  1
  C  C92  1  0.68892000  0.89108000  0.59450000  1
  C  C93  1  0.17724000  0.88816000  0.99570000  1
  C  C94  1  0.50471000  0.87829000  0.58400000  1
  C  C95  1  0.62404000  0.87636000  0.51650000  1
  C  C96  1  0.53204000  0.86896000  0.51190000  1
  C  C97  1  0.25428000  0.85792000  0.61910000  1
  C  C98  1  0.59851000  0.85429000  0.15710000  1
  C  C99  1  0.21178000  0.84482000  0.94041000  1
  C  C100  1  0.41699000  0.83741000  0.09980000  1
  C  C101  1  0.07445000  0.83455000  0.99000000  1
  C  C102  1  0.11184000  0.82276000  0.50430000  1
  C  C103  1  0.57710000  0.79630000  0.90700000  1
  C  C104  1  0.15518000  0.78822000  0.55959000  1
  C  C105  1  0.50860000  0.75520000  0.12610000  1
  C  C106  1  0.41573000  0.74867000  0.09700000  1
  C  C107  1  0.14208000  0.74572000  0.88090000  1
  C  C108  1  0.00620000  0.73520000  0.93030000  1
  C  C109  1  0.57911000  0.70849000  0.90500000  1
  C  C110  1  0.40005000  0.69995000  0.86140000  1
  C  C111  1  0.03870000  0.69050000  0.87690000  1
  C  C112  1  0.89108000  0.68892000  0.09450000  1
  C  C113  1  0.09615000  0.67445000  0.55260000  1
  C  C114  1  0.51042000  0.66138000  0.12510000  1
  C  C115  1  0.90202000  0.66098000  0.16670000  1
  C  C116  1  0.59235000  0.65565000  0.11170000  1
  C  C117  1  0.87636000  0.62404000  0.01650000  1
  C  C118  1  0.48718000  0.61222000  0.88050000  1
  C  C119  1  0.39611000  0.61029000  0.85890000  1
  C  C120  1  0.38971000  0.60389000  0.64110000  1
  C  C121  1  0.30005000  0.59995000  0.63860000  1
  C  C122  1  0.85429000  0.59851000  0.65710000  1
  C  C123  1  0.56839000  0.59401000  0.61030000  1
  C  C124  1  0.93942000  0.59318000  0.65760000  1
  C  C125  1  0.65565000  0.59235000  0.61170000  1
  C  C126  1  0.25133000  0.58427000  0.40300000  1
  C  C127  1  0.16259000  0.58301000  0.40020000  1
  C  C128  1  0.70849000  0.57911000  0.40500000  1
  C  C129  1  0.43047000  0.57713000  0.13740000  1
  C  C130  1  0.79630000  0.57710000  0.40700000  1
  C  C131  1  0.89637000  0.56963000  0.16280000  1
  C  C132  1  0.42287000  0.56953000  0.36260000  1
  C  C133  1  0.59401000  0.56839000  0.11030000  1
  C  C134  1  0.51048000  0.56732000  0.36300000  1
  C  C135  1  0.91149000  0.54171000  0.24340000  1
  C  C136  1  0.86896000  0.53204000  0.01190000  1
  C  C137  1  0.48681000  0.51699000  0.87750000  1
  C  C138  1  0.48301000  0.51319000  0.62250000  1
  C  C139  1  0.38778000  0.51282000  0.61950000  1
  C  C140  1  0.56732000  0.51048000  0.86300000  1
  C  C141  1  0.66138000  0.51042000  0.62510000  1
  C  C142  1  0.75520000  0.50860000  0.62610000  1
  C  C143  1  0.87829000  0.50471000  0.08400000  1
  C  C144  1  0.12171000  0.49529000  0.91600000  1
  C  C145  1  0.24480000  0.49140000  0.37390000  1
  C  C146  1  0.33862000  0.48958000  0.37490000  1
  C  C147  1  0.43268000  0.48952000  0.13700000  1
  C  C148  1  0.61222000  0.48718000  0.38050000  1
  C  C149  1  0.51699000  0.48681000  0.37750000  1
  C  C150  1  0.51319000  0.48301000  0.12250000  1
  C  C151  1  0.13104000  0.46796000  0.98810000  1
  C  C152  1  0.08851000  0.45829000  0.75660000  1
  C  C153  1  0.48952000  0.43268000  0.63700000  1
  C  C154  1  0.40599000  0.43161000  0.88970000  1
  C  C155  1  0.57713000  0.43047000  0.63740000  1
  C  C156  1  0.10363000  0.43037000  0.83720000  1
  C  C157  1  0.20370000  0.42290000  0.59300000  1
  C  C158  1  0.56953000  0.42287000  0.86260000  1
  C  C159  1  0.29151000  0.42089000  0.59500000  1
  C  C160  1  0.83741000  0.41699000  0.59980000  1
  C  C161  1  0.74867000  0.41573000  0.59700000  1
  C  C162  1  0.34435000  0.40765000  0.38830000  1
  C  C163  1  0.06058000  0.40682000  0.34240000  1
  C  C164  1  0.43161000  0.40599000  0.38970000  1
  C  C165  1  0.14571000  0.40149000  0.34290000  1
  C  C166  1  0.69995000  0.40005000  0.36140000  1
  C  C167  1  0.61029000  0.39611000  0.35890000  1
  C  C168  1  0.60389000  0.38971000  0.14110000  1
  C  C169  1  0.51282000  0.38778000  0.11950000  1
  C  C170  1  0.12364000  0.37596000  0.98350000  1
  C  C171  1  0.40765000  0.34435000  0.88830000  1
  C  C172  1  0.09798000  0.33902000  0.83330000  1
  C  C173  1  0.48958000  0.33862000  0.87490000  1
  C  C174  1  0.90385000  0.32555000  0.44740000  1
  C  C175  1  0.10892000  0.31108000  0.90550000  1
  C  C176  1  0.96130000  0.30950000  0.12310000  1
  C  C177  1  0.59995000  0.30005000  0.13860000  1
  C  C178  1  0.42089000  0.29151000  0.09500000  1
  C  C179  1  0.99380000  0.26480000  0.06970000  1
  C  C180  1  0.85792000  0.25428000  0.11910000  1
  C  C181  1  0.58427000  0.25133000  0.90300000  1
  C  C182  1  0.49140000  0.24480000  0.87390000  1
  C  C183  1  0.84482000  0.21178000  0.44041000  1
  C  C184  1  0.42290000  0.20370000  0.09300000  1
  C  C185  1  0.88816000  0.17724000  0.49570000  1
  C  C186  1  0.92555000  0.16545000  0.01000000  1
  C  C187  1  0.58301000  0.16259000  0.90020000  1
  C  C188  1  0.78822000  0.15518000  0.05959000  1
  C  C189  1  0.40149000  0.14571000  0.84290000  1
  C  C190  1  0.74572000  0.14208000  0.38090000  1
  C  C191  1  0.46796000  0.13104000  0.48810000  1
  C  C192  1  0.37596000  0.12364000  0.48350000  1
  C  C193  1  0.49529000  0.12171000  0.41600000  1
  C  C194  1  0.82276000  0.11184000  0.00430000  1
  C  C195  1  0.31108000  0.10892000  0.40550000  1
  C  C196  1  0.43037000  0.10363000  0.33720000  1
  C  C197  1  0.33902000  0.09798000  0.33333333  1
  C  C198  1  0.67445000  0.09615000  0.05260000  1
  C  C199  1  0.45829000  0.08851000  0.25660000  1
  C  C200  1  0.83455000  0.07445000  0.49000000  1
  C  C201  1  0.40682000  0.06058000  0.84240000  1
  C  C202  1  0.69050000  0.03870000  0.37690000  1
  C  C203  1  0.73520000  0.00620000  0.43030000  1
  S  S204  1  0.66398000  0.87248000  0.42463000  1
  S  S205  1  0.87248000  0.66398000  0.92463000  1
  S  S206  1  0.12752000  0.33602000  0.07537000  1
  S  S207  1  0.33602000  0.12752000  0.57537000  1
  N  N208  1  0.50363000  0.93287000  0.12840000  1
  N  N209  1  0.48919000  0.79369000  0.88475000  1
  N  N210  1  0.20631000  0.51081000  0.61525000  1
  N  N211  1  0.93287000  0.50363000  0.62840000  1
  N  N212  1  0.06713000  0.49637000  0.37160000  1
  N  N213  1  0.79369000  0.48919000  0.38475000  1
  N  N214  1  0.51081000  0.20631000  0.11525000  1
  N  N215  1  0.49637000  0.06713000  0.87160000  1
  O  O216  1  0.38614000  0.98836000  0.00752000  1
  O  O217  1  0.61292000  0.96454000  0.81367000  1
  O  O218  1  0.44741000  0.87081000  0.73837000  1
  O  O219  1  0.35051000  0.86423000  0.89141000  1
  O  O220  1  0.73377000  0.83943000  0.43500000  1
  O  O221  1  0.57290000  0.81510000  0.34980000  1
  O  O222  1  0.83943000  0.73377000  0.93500000  1
  O  O223  1  0.13577000  0.64949000  0.60859000  1
  O  O224  1  0.01164000  0.61386000  0.49248000  1
  O  O225  1  0.96454000  0.61292000  0.31367000  1
  O  O226  1  0.81510000  0.57290000  0.84980000  1
  O  O227  1  0.12919000  0.55259000  0.76163000  1
  O  O228  1  0.87081000  0.44741000  0.23837000  1
  O  O229  1  0.18490000  0.42710000  0.15020000  1
  O  O230  1  0.03546000  0.38708000  0.68633000  1
  O  O231  1  0.98836000  0.38614000  0.50752000  1
  O  O232  1  0.86423000  0.35051000  0.39141000  1
  O  O233  1  0.16057000  0.26623000  0.06500000  1
  O  O234  1  0.42710000  0.18490000  0.65020000  1
  O  O235  1  0.26623000  0.16057000  0.56500000  1
  O  O236  1  0.64949000  0.13577000  0.10859000  1
  O  O237  1  0.55259000  0.12919000  0.26163000  1
  O  O238  1  0.38708000  0.03546000  0.18633000  1
  O  O239  1  0.61386000  0.01164000  0.99248000  1
