# generated using pymatgen
data_SmH12(C7O2)3
_symmetry_space_group_name_H-M   'P 1'
_cell_length_a   8.68760000
_cell_length_b   14.16600000
_cell_length_c   15.13999762
_cell_angle_alpha   115.09300422
_cell_angle_beta   106.67296992
_cell_angle_gamma   90.00000000
_symmetry_Int_Tables_number   1
_chemical_formula_structural   SmH12(C7O2)3
_chemical_formula_sum   'Sm2 H24 C42 O12'
_cell_volume   1600.48508332
_cell_formula_units_Z   2
loop_
 _symmetry_equiv_pos_site_id
 _symmetry_equiv_pos_as_xyz
  1  'x, y, z'
loop_
 _atom_site_type_symbol
 _atom_site_label
 _atom_site_symmetry_multiplicity
 _atom_site_fract_x
 _atom_site_fract_y
 _atom_site_fract_z
 _atom_site_occupancy
  Sm  Sm0  1  0.95934000  0.99451000  0.45432000  1
  Sm  Sm1  1  0.50502000  0.00549000  0.54568000  1
  H  H2  1  0.55790000  0.60340000  0.51640000  1
  H  H3  1  0.57960000  0.76450000  0.51220000  1
  H  H4  1  0.39740000  0.71840000  0.22260000  1
  H  H5  1  0.32390000  0.56660000  0.07000000  1
  H  H6  1  0.25390000  0.43340000  0.93000000  1
  H  H7  1  0.17480000  0.28160000  0.77740000  1
  H  H8  1  0.67440000  0.46960000  0.25560000  1
  H  H9  1  0.77010000  0.19780000  0.32940000  1
  H  H10  1  0.96490000  0.71680000  0.52080000  1
  H  H11  1  0.97970000  0.55870000  0.53360000  1
  H  H12  1  0.76800000  0.35490000  0.31480000  1
  H  H13  1  0.72430000  0.63650000  0.26240000  1
  H  H14  1  0.04150000  0.39660000  0.48360000  1
  H  H15  1  0.06740000  0.23550000  0.48780000  1
  H  H16  1  0.41880000  0.53040000  0.74440000  1
  H  H17  1  0.46190000  0.36350000  0.73760000  1
  H  H18  1  0.93600000  0.72560000  0.21000000  1
  H  H19  1  0.45320000  0.64510000  0.68520000  1
  H  H20  1  0.44070000  0.80220000  0.67060000  1
  H  H21  1  0.86400000  0.57210000  0.05980000  1
  H  H22  1  0.80420000  0.42790000  0.94020000  1
  H  H23  1  0.72600000  0.27440000  0.79000000  1
  H  H24  1  0.44410000  0.28320000  0.47920000  1
  H  H25  1  0.44610000  0.44130000  0.46640000  1
  C  C26  1  0.83250000  0.30740000  0.81640000  1
  C  C27  1  0.08290000  0.54950000  0.04820000  1
  C  C28  1  0.51290000  0.29850000  0.44860000  1
  C  C29  1  0.51300000  0.39340000  0.43960000  1
  C  C30  1  0.03470000  0.45050000  0.95180000  1
  C  C31  1  0.28890000  0.68860000  0.19060000  1
  C  C32  1  0.58860000  0.60900000  0.46480000  1
  C  C33  1  0.60650000  0.70610000  0.46340000  1
  C  C34  1  0.24440000  0.59700000  0.09860000  1
  C  C35  1  0.94070000  0.26500000  0.76560000  1
  C  C36  1  0.62490000  0.12900000  0.42700000  1
  C  C37  1  0.61650000  0.22720000  0.41120000  1
  C  C38  1  0.60990000  0.41680000  0.39200000  1
  C  C39  1  0.88890000  0.16480000  0.66700000  1
  C  C40  1  0.61750000  0.52100000  0.38720000  1
  C  C41  1  0.14580000  0.40300000  0.90140000  1
  C  C42  1  0.66320000  0.71810000  0.39140000  1
  C  C43  1  0.09830000  0.31140000  0.80940000  1
  C  C44  1  0.71260000  0.82640000  0.40020000  1
  C  C45  1  0.70690000  0.24700000  0.35900000  1
  C  C46  1  0.66230000  0.52970000  0.30980000  1
  C  C47  1  0.70480000  0.34200000  0.34980000  1
  C  C48  1  0.68950000  0.63000000  0.31260000  1
  C  C49  1  0.06430000  0.70150000  0.55140000  1
  C  C50  1  0.07340000  0.60660000  0.56040000  1
  C  C51  1  0.12380000  0.39100000  0.53520000  1
  C  C52  1  0.14310000  0.29390000  0.53660000  1
  C  C53  1  0.21790000  0.58320000  0.60800000  1
  C  C54  1  0.20530000  0.77280000  0.58880000  1
  C  C55  1  0.23030000  0.47900000  0.61280000  1
  C  C56  1  0.19790000  0.87100000  0.57300000  1
  C  C57  1  0.35250000  0.47030000  0.69020000  1
  C  C58  1  0.27180000  0.28190000  0.60860000  1
  C  C59  1  0.37690000  0.37000000  0.68740000  1
  C  C60  1  0.35500000  0.65800000  0.65020000  1
  C  C61  1  0.34790000  0.75300000  0.64100000  1
  C  C62  1  0.31240000  0.17360000  0.59980000  1
  C  C63  1  0.01610000  0.69260000  0.18360000  1
  C  C64  1  0.97310000  0.60020000  0.09220000  1
  C  C65  1  0.22190000  0.83520000  0.33300000  1
  C  C66  1  0.17510000  0.73500000  0.23440000  1
  C  C67  1  0.88090000  0.39980000  0.90780000  1
  O  O68  1  0.51100000  0.09860000  0.44740000  1
  O  O69  1  0.74530000  0.12420000  0.63780000  1
  O  O70  1  0.70840000  0.90730000  0.48040000  1
  O  O71  1  0.74270000  0.08360000  0.41560000  1
  O  O72  1  0.99200000  0.12950000  0.62260000  1
  O  O73  1  0.76970000  0.83090000  0.33640000  1
  O  O74  1  0.06360000  0.90140000  0.55260000  1
  O  O75  1  0.22800000  0.09270000  0.51960000  1
  O  O76  1  0.32710000  0.91640000  0.58440000  1
  O  O77  1  0.10750000  0.87580000  0.36220000  1
  O  O78  1  0.43330000  0.16910000  0.66360000  1
  O  O79  1  0.36940000  0.87050000  0.37740000  1
