# generated using pymatgen
data_Yb2H9(C5O2)6
_symmetry_space_group_name_H-M   'P 1'
_cell_length_a   18.23456891
_cell_length_b   18.23456891
_cell_length_c   19.37890000
_cell_angle_alpha   86.66835379
_cell_angle_beta   86.66835379
_cell_angle_gamma   70.10767689
_symmetry_Int_Tables_number   1
_chemical_formula_structural   Yb2H9(C5O2)6
_chemical_formula_sum   'Yb8 H36 C120 O48'
_cell_volume   6043.72864924
_cell_formula_units_Z   4
loop_
 _symmetry_equiv_pos_site_id
 _symmetry_equiv_pos_as_xyz
  1  'x, y, z'
loop_
 _atom_site_type_symbol
 _atom_site_label
 _atom_site_symmetry_multiplicity
 _atom_site_fract_x
 _atom_site_fract_y
 _atom_site_fract_z
 _atom_site_occupancy
  C  C0  1  0.37930000  0.65050000  0.84220000  1
  C  C1  1  0.65050000  0.37930000  0.34220000  1
  C  C2  1  0.11780000  0.92260000  0.22910000  1
  C  C3  1  0.92260000  0.11780000  0.72910000  1
  C  C4  1  0.41340000  0.64020000  0.63410000  1
  C  C5  1  0.64020000  0.41340000  0.13410000  1
  C  C6  1  0.39490000  0.70750000  0.82290000  1
  C  C7  1  0.70750000  0.39490000  0.32290000  1
  C  C8  1  0.14970000  0.95850000  0.19490000  1
  C  C9  1  0.95850000  0.14970000  0.69490000  1
  C  C10  1  0.46670000  0.65970000  0.61130000  1
  C  C11  1  0.65970000  0.46670000  0.11130000  1
  C  C12  1  0.40890000  0.77690000  0.80800000  1
  C  C13  1  0.77690000  0.40890000  0.30800000  1
  C  C14  1  0.18330000  0.00590000  0.15110000  1
  C  C15  1  0.00590000  0.18330000  0.65110000  1
  C  C16  1  0.39380000  0.81720000  0.74300000  1
  C  C17  1  0.81720000  0.39380000  0.24300000  1
  C  C18  1  0.52460000  0.68980000  0.58030000  1
  C  C19  1  0.68980000  0.52460000  0.08030000  1
  C  C20  1  0.13690000  0.08410000  0.13420000  1
  C  C21  1  0.08410000  0.13690000  0.63420000  1
  C  C22  1  0.26080000  0.97780000  0.12750000  1
  C  C23  1  0.97780000  0.26080000  0.62750000  1
  C  C24  1  0.60370000  0.64270000  0.57660000  1
  C  C25  1  0.64270000  0.60370000  0.07660000  1
  C  C26  1  0.43730000  0.81270000  0.85870000  1
  C  C27  1  0.81270000  0.43730000  0.35870000  1
  C  C28  1  0.50310000  0.76670000  0.55400000  1
  C  C29  1  0.76670000  0.50310000  0.05400000  1
  C  C30  1  0.40410000  0.88770000  0.72990000  1
  C  C31  1  0.88770000  0.40410000  0.22990000  1
  C  C32  1  0.16780000  0.12960000  0.09240000  1
  C  C33  1  0.12960000  0.16780000  0.59240000  1
  C  C34  1  0.29090000  0.02550000  0.08620000  1
  C  C35  1  0.38640000  0.93000000  0.66130000  1
  C  C36  1  0.93000000  0.38640000  0.16130000  1
  C  C37  1  0.02550000  0.29090000  0.58620000  1
  C  C38  1  0.21010000  0.11770000  0.57370000  1
  C  C39  1  0.11770000  0.21010000  0.07370000  1
  C  C40  1  0.65970000  0.67230000  0.54680000  1
  C  C41  1  0.67230000  0.65970000  0.04680000  1
  C  C42  1  0.44870000  0.88350000  0.84580000  1
  C  C43  1  0.88350000  0.44870000  0.34580000  1
  C  C44  1  0.24520000  0.10060000  0.06770000  1
  C  C45  1  0.10060000  0.24520000  0.56770000  1
  C  C46  1  0.43200000  0.92060000  0.78020000  1
  C  C47  1  0.92060000  0.43200000  0.28020000  1
  C  C48  1  0.55850000  0.79630000  0.52390000  1
  C  C49  1  0.79630000  0.55850000  0.02390000  1
  C  C50  1  0.62320000  0.74340000  0.04470000  1
  C  C51  1  0.74340000  0.62320000  0.54470000  1
  C  C52  1  0.37630000  0.99310000  0.06200000  1
  C  C53  1  0.99310000  0.37630000  0.56200000  1
  C  C54  1  0.63640000  0.74980000  0.51910000  1
  C  C55  1  0.74980000  0.63640000  0.01910000  1
  C  C56  1  0.47690000  0.91990000  0.90070000  1
  C  C57  1  0.91990000  0.47690000  0.40070000  1
  C  C58  1  0.53220000  0.87960000  0.49550000  1
  C  C59  1  0.87960000  0.53220000  0.99550000  1
  C  C60  1  0.46780000  0.12040000  0.50450000  1
  C  C61  1  0.12040000  0.46780000  0.00450000  1
  C  C62  1  0.52310000  0.08010000  0.09930000  1
  C  C63  1  0.08010000  0.52310000  0.59930000  1
  C  C64  1  0.36360000  0.25020000  0.48090000  1
  C  C65  1  0.25020000  0.36360000  0.98090000  1
  C  C66  1  0.62370000  0.00690000  0.93800000  1
  C  C67  1  0.00690000  0.62370000  0.43800000  1
  C  C68  1  0.37680000  0.25660000  0.95530000  1
  C  C69  1  0.25660000  0.37680000  0.45530000  1
  C  C70  1  0.44150000  0.20370000  0.47610000  1
  C  C71  1  0.20370000  0.44150000  0.97610000  1
  C  C72  1  0.56800000  0.07940000  0.21980000  1
  C  C73  1  0.07940000  0.56800000  0.71980000  1
  C  C74  1  0.75480000  0.89940000  0.93230000  1
  C  C75  1  0.89940000  0.75480000  0.43230000  1
  C  C76  1  0.55130000  0.11650000  0.15420000  1
  C  C77  1  0.11650000  0.55130000  0.65420000  1
  C  C78  1  0.34030000  0.32770000  0.45320000  1
  C  C79  1  0.32770000  0.34030000  0.95320000  1
  C  C80  1  0.78990000  0.88230000  0.42630000  1
  C  C81  1  0.88230000  0.78990000  0.92630000  1
  C  C82  1  0.61360000  0.07000000  0.33870000  1
  C  C83  1  0.70910000  0.97450000  0.91380000  1
  C  C84  1  0.97450000  0.70910000  0.41380000  1
  C  C85  1  0.07000000  0.61360000  0.83870000  1
  C  C86  1  0.83220000  0.87040000  0.90760000  1
  C  C87  1  0.87040000  0.83220000  0.40760000  1
  C  C88  1  0.59590000  0.11230000  0.27010000  1
  C  C89  1  0.11230000  0.59590000  0.77010000  1
  C  C90  1  0.49690000  0.23330000  0.44600000  1
  C  C91  1  0.23330000  0.49690000  0.94600000  1
  C  C92  1  0.56270000  0.18730000  0.14130000  1
  C  C93  1  0.18730000  0.56270000  0.64130000  1
  C  C94  1  0.39630000  0.35730000  0.42340000  1
  C  C95  1  0.35730000  0.39630000  0.92340000  1
  C  C96  1  0.73920000  0.02220000  0.87250000  1
  C  C97  1  0.02220000  0.73920000  0.37250000  1
  C  C98  1  0.86310000  0.91590000  0.86580000  1
  C  C99  1  0.91590000  0.86310000  0.36580000  1
  C  C100  1  0.47540000  0.31020000  0.41970000  1
  C  C101  1  0.31020000  0.47540000  0.91970000  1
  C  C102  1  0.60620000  0.18280000  0.25700000  1
  C  C103  1  0.18280000  0.60620000  0.75700000  1
  C  C104  1  0.81670000  0.99410000  0.84890000  1
  C  C105  1  0.99410000  0.81670000  0.34890000  1
  C  C106  1  0.59110000  0.22310000  0.19200000  1
  C  C107  1  0.22310000  0.59110000  0.69200000  1
  C  C108  1  0.53330000  0.34030000  0.38870000  1
  C  C109  1  0.34030000  0.53330000  0.88870000  1
  C  C110  1  0.85030000  0.04150000  0.80510000  1
  C  C111  1  0.04150000  0.85030000  0.30510000  1
  C  C112  1  0.60510000  0.29250000  0.17710000  1
  C  C113  1  0.29250000  0.60510000  0.67710000  1
  C  C114  1  0.58660000  0.35980000  0.36590000  1
  C  C115  1  0.35980000  0.58660000  0.86590000  1
  C  C116  1  0.88220000  0.07740000  0.77090000  1
  C  C117  1  0.07740000  0.88220000  0.27090000  1
  C  C118  1  0.62070000  0.34950000  0.15780000  1
  C  C119  1  0.34950000  0.62070000  0.65780000  1
  H  H120  1  0.37630000  0.79510000  0.70810000  1
  H  H121  1  0.79510000  0.37630000  0.20810000  1
  H  H122  1  0.10410000  0.08570000  0.65160000  1
  H  H123  1  0.08570000  0.10410000  0.15160000  1
  H  H124  1  0.59150000  0.61870000  0.09430000  1
  H  H125  1  0.61870000  0.59150000  0.59430000  1
  H  H126  1  0.29200000  0.92720000  0.13960000  1
  H  H127  1  0.92720000  0.29200000  0.63960000  1
  H  H128  1  0.44850000  0.78770000  0.90200000  1
  H  H129  1  0.78770000  0.44850000  0.40200000  1
  H  H130  1  0.45090000  0.79830000  0.55660000  1
  H  H131  1  0.79830000  0.45090000  0.05660000  1
  H  H132  1  0.26580000  0.13180000  0.03890000  1
  H  H133  1  0.13180000  0.26580000  0.53890000  1
  H  H134  1  0.43980000  0.96800000  0.77060000  1
  H  H135  1  0.96800000  0.43980000  0.27060000  1
  H  H136  1  0.67310000  0.76950000  0.49770000  1
  H  H137  1  0.76950000  0.67310000  0.99770000  1
  H  H138  1  0.32690000  0.23050000  0.50230000  1
  H  H139  1  0.23050000  0.32690000  0.00230000  1
  H  H140  1  0.56020000  0.03200000  0.22940000  1
  H  H141  1  0.03200000  0.56020000  0.72940000  1
  H  H142  1  0.73420000  0.86820000  0.96110000  1
  H  H143  1  0.86820000  0.73420000  0.46110000  1
  H  H144  1  0.54910000  0.20170000  0.44340000  1
  H  H145  1  0.20170000  0.54910000  0.94340000  1
  H  H146  1  0.55150000  0.21230000  0.09800000  1
  H  H147  1  0.21230000  0.55150000  0.59800000  1
  H  H148  1  0.70800000  0.07280000  0.86040000  1
  H  H149  1  0.07280000  0.70800000  0.36040000  1
  H  H150  1  0.40850000  0.38130000  0.90570000  1
  H  H151  1  0.38130000  0.40850000  0.40570000  1
  H  H152  1  0.89590000  0.91430000  0.34840000  1
  H  H153  1  0.91430000  0.89590000  0.84840000  1
  H  H154  1  0.62370000  0.20490000  0.29190000  1
  H  H155  1  0.20490000  0.62370000  0.79190000  1
  O  O156  1  0.35298000  0.90518000  0.61810000  1
  O  O157  1  0.90518000  0.35298000  0.11810000  1
  O  O158  1  0.24120000  0.05660000  0.60810000  1
  O  O159  1  0.05660000  0.24120000  0.10810000  1
  O  O160  1  0.55530000  0.76490000  0.07040000  1
  O  O161  1  0.76490000  0.55530000  0.57040000  1
  O  O162  1  0.41665000  0.92985000  0.08760000  1
  O  O163  1  0.92985000  0.41665000  0.58760000  1
  O  O164  1  0.49756000  0.88136000  0.95540000  1
  O  O165  1  0.88136000  0.49756000  0.45540000  1
  O  O166  1  0.24810000  0.13430000  0.52510000  1
  O  O167  1  0.13430000  0.24810000  0.02510000  1
  O  O168  1  0.46310000  0.92030000  0.50340000  1
  O  O169  1  0.92030000  0.46310000  0.00340000  1
  O  O170  1  0.40576000  0.98856000  0.64710000  1
  O  O171  1  0.98856000  0.40576000  0.14710000  1
  O  O172  1  0.40100000  0.03220000  0.01850000  1
  O  O173  1  0.03220000  0.40100000  0.51850000  1
  O  O174  1  0.65190000  0.79330000  0.01940000  1
  O  O175  1  0.79330000  0.65190000  0.51940000  1
  O  O176  1  0.47521000  0.98861000  0.88870000  1
  O  O177  1  0.98861000  0.47521000  0.38870000  1
  O  O178  1  0.58290000  0.90310000  0.46670000  1
  O  O179  1  0.90310000  0.58290000  0.96670000  1
  O  O180  1  0.41710000  0.09690000  0.53330000  1
  O  O181  1  0.09690000  0.41710000  0.03330000  1
  O  O182  1  0.52479000  0.01139000  0.11130000  1
  O  O183  1  0.01139000  0.52479000  0.61130000  1
  O  O184  1  0.34810000  0.20670000  0.98060000  1
  O  O185  1  0.20670000  0.34810000  0.48060000  1
  O  O186  1  0.59900000  0.96780000  0.98150000  1
  O  O187  1  0.96780000  0.59900000  0.48150000  1
  O  O188  1  0.59424000  0.01144000  0.35290000  1
  O  O189  1  0.01144000  0.59424000  0.85290000  1
  O  O190  1  0.53690000  0.07970000  0.49660000  1
  O  O191  1  0.07970000  0.53690000  0.99660000  1
  O  O192  1  0.75190000  0.86570000  0.47490000  1
  O  O193  1  0.86570000  0.75190000  0.97490000  1
  O  O194  1  0.50244000  0.11864000  0.04460000  1
  O  O195  1  0.11864000  0.50244000  0.54460000  1
  O  O196  1  0.58335000  0.07015000  0.91240000  1
  O  O197  1  0.07015000  0.58335000  0.41240000  1
  O  O198  1  0.44470000  0.23510000  0.92960000  1
  O  O199  1  0.23510000  0.44470000  0.42960000  1
  O  O200  1  0.75880000  0.94340000  0.39190000  1
  O  O201  1  0.94340000  0.75880000  0.89190000  1
  O  O202  1  0.64702000  0.09482000  0.38190000  1
  O  O203  1  0.09482000  0.64702000  0.88190000  1
  Yb  Yb204  1  0.35306000  0.01130000  0.53695000  1
  Yb  Yb205  1  0.01130000  0.35306000  0.03695000  1
  Yb  Yb206  1  0.54727000  0.89887000  0.05712000  1
  Yb  Yb207  1  0.89887000  0.54727000  0.55712000  1
  Yb  Yb208  1  0.45273000  0.10113000  0.94288000  1
  Yb  Yb209  1  0.10113000  0.45273000  0.44288000  1
  Yb  Yb210  1  0.64694000  0.98870000  0.46305000  1
  Yb  Yb211  1  0.98870000  0.64694000  0.96305000  1
