# generated using pymatgen
data_Nd2U3H6(C5O4)6
_symmetry_space_group_name_H-M   'P 1'
_cell_length_a   10.87610000
_cell_length_b   11.48660000
_cell_length_c   13.42250000
_cell_angle_alpha   69.49900000
_cell_angle_beta   79.99200000
_cell_angle_gamma   62.50600000
_symmetry_Int_Tables_number   1
_chemical_formula_structural   Nd2U3H6(C5O4)6
_chemical_formula_sum   'Nd2 U3 H6 C30 O24'
_cell_volume   1393.12283534
_cell_formula_units_Z   1
loop_
 _symmetry_equiv_pos_site_id
 _symmetry_equiv_pos_as_xyz
  1  'x, y, z'
loop_
 _atom_site_type_symbol
 _atom_site_label
 _atom_site_symmetry_multiplicity
 _atom_site_fract_x
 _atom_site_fract_y
 _atom_site_fract_z
 _atom_site_occupancy
  Nd  Nd0  1  0.37937000  0.78481000  0.22502000  1
  Nd  Nd1  1  0.62063000  0.21519000  0.77498000  1
  U  U2  1  0.00000000  0.50000000  0.50000000  1
  U  U3  1  0.36844000  0.29714000  0.16694000  1
  U  U4  1  0.63156000  0.70286000  0.83306000  1
  H  H5  1  0.09920000  0.36290000  0.95100000  1
  H  H6  1  0.18150000  0.09840000  0.73420000  1
  H  H7  1  0.29640000  0.99750000  0.58020000  1
  H  H8  1  0.70360000  0.00250000  0.41980000  1
  H  H9  1  0.81850000  0.90160000  0.26580000  1
  H  H10  1  0.90080000  0.63710000  0.04900000  1
  C  C11  1  0.00830000  0.33710000  0.84590000  1
  C  C12  1  0.03270000  0.25760000  0.78010000  1
  C  C13  1  0.08090000  0.72250000  0.28300000  1
  C  C14  1  0.11720000  0.31240000  0.90480000  1
  C  C15  1  0.12790000  0.54450000  0.15000000  1
  C  C16  1  0.16600000  0.15510000  0.77480000  1
  C  C17  1  0.25070000  0.21460000  0.89570000  1
  C  C18  1  0.25740000  0.25560000  0.49440000  1
  C  C19  1  0.27730000  0.13450000  0.82810000  1
  C  C20  1  0.35690000  0.19860000  0.96220000  1
  C  C21  1  0.37920000  0.99800000  0.54820000  1
  C  C22  1  0.38480000  0.12450000  0.49670000  1
  C  C23  1  0.41880000  0.02970000  0.80870000  1
  C  C24  1  0.47450000  0.74580000  0.61540000  1
  C  C25  1  0.49230000  0.87480000  0.55280000  1
  C  C26  1  0.50770000  0.12520000  0.44720000  1
  C  C27  1  0.52550000  0.25420000  0.38460000  1
  C  C28  1  0.58120000  0.97030000  0.19130000  1
  C  C29  1  0.61520000  0.87550000  0.50330000  1
  C  C30  1  0.62080000  0.00200000  0.45180000  1
  C  C31  1  0.64310000  0.80140000  0.03780000  1
  C  C32  1  0.72270000  0.86550000  0.17190000  1
  C  C33  1  0.74260000  0.74440000  0.50560000  1
  C  C34  1  0.74930000  0.78540000  0.10430000  1
  C  C35  1  0.83400000  0.84490000  0.22520000  1
  C  C36  1  0.87210000  0.45550000  0.85000000  1
  C  C37  1  0.88280000  0.68760000  0.09520000  1
  C  C38  1  0.91910000  0.27750000  0.71700000  1
  C  C39  1  0.96730000  0.74240000  0.21990000  1
  C  C40  1  0.99170000  0.66290000  0.15410000  1
  O  O41  1  0.10170000  0.64330000  0.37730000  1
  O  O42  1  0.14250000  0.24880000  0.52270000  1
  O  O43  1  0.14290000  0.47170000  0.09300000  1
  O  O44  1  0.14650000  0.79260000  0.23880000  1
  O  O45  1  0.22580000  0.51470000  0.20570000  1
  O  O46  1  0.26380000  0.36860000  0.46820000  1
  O  O47  1  0.31210000  0.21350000  0.05440000  1
  O  O48  1  0.42520000  0.70010000  0.56980000  1
  O  O49  1  0.42700000  0.90950000  0.82710000  1
  O  O50  1  0.47630000  0.17600000  0.93150000  1
  O  O51  1  0.48300000  0.94060000  0.22400000  1
  O  O52  1  0.49320000  0.30850000  0.28760000  1
  O  O53  1  0.50680000  0.69150000  0.71240000  1
  O  O54  1  0.51700000  0.05940000  0.77600000  1
  O  O55  1  0.52370000  0.82400000  0.06850000  1
  O  O56  1  0.57300000  0.09050000  0.17290000  1
  O  O57  1  0.57480000  0.29990000  0.43020000  1
  O  O58  1  0.68790000  0.78650000  0.94560000  1
  O  O59  1  0.73620000  0.63140000  0.53180000  1
  O  O60  1  0.77420000  0.48530000  0.79430000  1
  O  O61  1  0.85350000  0.20740000  0.76120000  1
  O  O62  1  0.85710000  0.52830000  0.90700000  1
  O  O63  1  0.85750000  0.75120000  0.47730000  1
  O  O64  1  0.89830000  0.35670000  0.62270000  1
