# generated using pymatgen
data_ZnH8C12(IN2)2
_symmetry_space_group_name_H-M   'P 1'
_cell_length_a   14.64640000
_cell_length_b   18.36749177
_cell_length_c   31.95210000
_cell_angle_alpha   98.38482741
_cell_angle_beta   90.00000000
_cell_angle_gamma   113.49720994
_symmetry_Int_Tables_number   1
_chemical_formula_structural   ZnH8C12(IN2)2
_chemical_formula_sum   'Zn12 H96 C144 I24 N48'
_cell_volume   7782.63083224
_cell_formula_units_Z   12
loop_
 _symmetry_equiv_pos_site_id
 _symmetry_equiv_pos_as_xyz
  1  'x, y, z'
loop_
 _atom_site_type_symbol
 _atom_site_label
 _atom_site_symmetry_multiplicity
 _atom_site_fract_x
 _atom_site_fract_y
 _atom_site_fract_z
 _atom_site_occupancy
  C  C0  1  0.87304000  0.96308000  0.44917000  1
  C  C1  1  0.09004000  0.96308000  0.94917000  1
  C  C2  1  0.81690000  0.96240000  0.04850000  1
  C  C3  1  0.14550000  0.96240000  0.54850000  1
  C  C4  1  0.90410000  0.93540000  0.41132000  1
  C  C5  1  0.03130000  0.93540000  0.91132000  1
  C  C6  1  0.56330000  0.93300000  0.97610000  1
  C  C7  1  0.36970000  0.93300000  0.47610000  1
  C  C8  1  0.86862000  0.92564000  0.48437000  1
  C  C9  1  0.05702000  0.92564000  0.98437000  1
  C  C10  1  0.47860000  0.91460000  0.95010000  1
  C  C11  1  0.43600000  0.91460000  0.45010000  1
  C  C12  1  0.65456000  0.89292000  0.02800000  1
  C  C13  1  0.23836000  0.89292000  0.52800000  1
  C  C14  1  0.56705000  0.87670000  0.99960000  1
  C  C15  1  0.30965000  0.87670000  0.49960000  1
  C  C16  1  0.93080000  0.87040000  0.40867000  1
  C  C17  1  0.93960000  0.87040000  0.90867000  1
  C  C18  1  0.72280000  0.86060000  0.08140000  1
  C  C19  1  0.13780000  0.86060000  0.58140000  1
  C  C20  1  0.89537000  0.86054000  0.48171000  1
  C  C21  1  0.96517000  0.86054000  0.98171000  1
  C  C22  1  0.79790000  0.81020000  0.13370000  1
  C  C23  1  0.71390000  0.81020000  0.11460000  1
  C  C24  1  0.09630000  0.81020000  0.61460000  1
  C  C25  1  0.01230000  0.81020000  0.63370000  1
  C  C26  1  0.48500000  0.80360000  0.99660000  1
  C  C27  1  0.31860000  0.80360000  0.49660000  1
  C  C28  1  0.40340000  0.78880000  0.96970000  1
  C  C29  1  0.38540000  0.78880000  0.46970000  1
  C  C30  1  0.78930000  0.76540000  0.16560000  1
  C  C31  1  0.97610000  0.76540000  0.66560000  1
  C  C32  1  0.40360000  0.76480000  0.84710000  1
  C  C33  1  0.36120000  0.76480000  0.34710000  1
  C  C34  1  0.62420000  0.75960000  0.12610000  1
  C  C35  1  0.13540000  0.75960000  0.62610000  1
  C  C36  1  0.43250000  0.72600000  0.81290000  1
  C  C37  1  0.29350000  0.72600000  0.31290000  1
  C  C38  1  0.62140000  0.71680000  0.15810000  1
  C  C39  1  0.09540000  0.71680000  0.65810000  1
  C  C40  1  0.44940000  0.68720000  0.32920000  1
  C  C41  1  0.23780000  0.68720000  0.82920000  1
  C  C42  1  0.78270000  0.68320000  0.74730000  1
  C  C43  1  0.90050000  0.68320000  0.24730000  1
  C  C44  1  0.68410000  0.67220000  0.74550000  1
  C  C45  1  0.98810000  0.67220000  0.24550000  1
  C  C46  1  0.35920000  0.66540000  0.78570000  1
  C  C47  1  0.30620000  0.66540000  0.28570000  1
  C  C48  1  0.38660000  0.64680000  0.29400000  1
  C  C49  1  0.26020000  0.64680000  0.79400000  1
  C  C50  1  0.77770000  0.63520000  0.40130000  1
  C  C51  1  0.85750000  0.63520000  0.90130000  1
  C  C52  1  0.72690000  0.62480000  0.85780000  1
  C  C53  1  0.89790000  0.62480000  0.35780000  1
  C  C54  1  0.38850000  0.62100000  0.74910000  1
  C  C55  1  0.23250000  0.62100000  0.24910000  1
  C  C56  1  0.61810000  0.61220000  0.71530000  1
  C  C57  1  0.99410000  0.61220000  0.21530000  1
  C  C58  1  0.51013000  0.59686000  0.71500000  1
  C  C59  1  0.08673000  0.59686000  0.21500000  1
  C  C60  1  0.75330000  0.57900000  0.69270000  1
  C  C61  1  0.82570000  0.57900000  0.19270000  1
  C  C62  1  0.70230000  0.57760000  0.37430000  1
  C  C63  1  0.87530000  0.57760000  0.87430000  1
  C  C64  1  0.65370000  0.56540000  0.68840000  1
  C  C65  1  0.91170000  0.56540000  0.18840000  1
  C  C66  1  0.73870000  0.56520000  0.82940000  1
  C  C67  1  0.82650000  0.56520000  0.32940000  1
  C  C68  1  0.72690000  0.54040000  0.33750000  1
  C  C69  1  0.81350000  0.54040000  0.83750000  1
  C  C70  1  0.34948000  0.52316000  0.69240000  1
  C  C71  1  0.17368000  0.52316000  0.19240000  1
  C  C72  1  0.65052000  0.47684000  0.30760000  1
  C  C73  1  0.82632000  0.47684000  0.80760000  1
  C  C74  1  0.27310000  0.45960000  0.66250000  1
  C  C75  1  0.18650000  0.45960000  0.16250000  1
  C  C76  1  0.26130000  0.43480000  0.17060000  1
  C  C77  1  0.17350000  0.43480000  0.67060000  1
  C  C78  1  0.34630000  0.43460000  0.31160000  1
  C  C79  1  0.08830000  0.43460000  0.81160000  1
  C  C80  1  0.29770000  0.42240000  0.62570000  1
  C  C81  1  0.12470000  0.42240000  0.12570000  1
  C  C82  1  0.24670000  0.42100000  0.30730000  1
  C  C83  1  0.17430000  0.42100000  0.80730000  1
  C  C84  1  0.48987000  0.40314000  0.28500000  1
  C  C85  1  0.91327000  0.40314000  0.78500000  1
  C  C86  1  0.38190000  0.38780000  0.28470000  1
  C  C87  1  0.00590000  0.38780000  0.78470000  1
  C  C88  1  0.61150000  0.37900000  0.25090000  1
  C  C89  1  0.76750000  0.37900000  0.75090000  1
  C  C90  1  0.27310000  0.37520000  0.14220000  1
  C  C91  1  0.10210000  0.37520000  0.64220000  1
  C  C92  1  0.22230000  0.36480000  0.59870000  1
  C  C93  1  0.14250000  0.36480000  0.09870000  1
  C  C94  1  0.61340000  0.35320000  0.70600000  1
  C  C95  1  0.73980000  0.35320000  0.20600000  1
  C  C96  1  0.64080000  0.33460000  0.21430000  1
  C  C97  1  0.69380000  0.33460000  0.71430000  1
  C  C98  1  0.31590000  0.32780000  0.25450000  1
  C  C99  1  0.01190000  0.32780000  0.75450000  1
  C  C100  1  0.21730000  0.31680000  0.25270000  1
  C  C101  1  0.09950000  0.31680000  0.75270000  1
  C  C102  1  0.55060000  0.31280000  0.67080000  1
  C  C103  1  0.76220000  0.31280000  0.17080000  1
  C  C104  1  0.37860000  0.28320000  0.84190000  1
  C  C105  1  0.90460000  0.28320000  0.34190000  1
  C  C106  1  0.56750000  0.27400000  0.18710000  1
  C  C107  1  0.70650000  0.27400000  0.68710000  1
  C  C108  1  0.37580000  0.24040000  0.87390000  1
  C  C109  1  0.86460000  0.24040000  0.37390000  1
  C  C110  1  0.59640000  0.23520000  0.15290000  1
  C  C111  1  0.63880000  0.23520000  0.65290000  1
  C  C112  1  0.21070000  0.23460000  0.83440000  1
  C  C113  1  0.02390000  0.23460000  0.33440000  1
  C  C114  1  0.59660000  0.21120000  0.03030000  1
  C  C115  1  0.61460000  0.21120000  0.53030000  1
  C  C116  1  0.51500000  0.19640000  0.00340000  1
  C  C117  1  0.68140000  0.19640000  0.50340000  1
  C  C118  1  0.28610000  0.18980000  0.88540000  1
  C  C119  1  0.20210000  0.18980000  0.86630000  1
  C  C120  1  0.98770000  0.18980000  0.36630000  1
  C  C121  1  0.90370000  0.18980000  0.38540000  1
  C  C122  1  0.10463000  0.13946000  0.51829000  1
  C  C123  1  0.03483000  0.13946000  0.01829000  1
  C  C124  1  0.27720000  0.13940000  0.91860000  1
  C  C125  1  0.86220000  0.13940000  0.41860000  1
  C  C126  1  0.06920000  0.12960000  0.59133000  1
  C  C127  1  0.06040000  0.12960000  0.09133000  1
  C  C128  1  0.43295000  0.12330000  0.00040000  1
  C  C129  1  0.69035000  0.12330000  0.50040000  1
  C  C130  1  0.34544000  0.10708000  0.97200000  1
  C  C131  1  0.76164000  0.10708000  0.47200000  1
  C  C132  1  0.52140000  0.08540000  0.04990000  1
  C  C133  1  0.56400000  0.08540000  0.54990000  1
  C  C134  1  0.13138000  0.07436000  0.51563000  1
  C  C135  1  0.94298000  0.07436000  0.01563000  1
  C  C136  1  0.43670000  0.06700000  0.02390000  1
  C  C137  1  0.63030000  0.06700000  0.52390000  1
  C  C138  1  0.09590000  0.06460000  0.58868000  1
  C  C139  1  0.96870000  0.06460000  0.08868000  1
  C  C140  1  0.18310000  0.03760000  0.95150000  1
  C  C141  1  0.85450000  0.03760000  0.45150000  1
  C  C142  1  0.12696000  0.03692000  0.55083000  1
  C  C143  1  0.90996000  0.03692000  0.05083000  1
  H  H144  1  0.61790000  0.98360000  0.97780000  1
  H  H145  1  0.36570000  0.98360000  0.47780000  1
  H  H146  1  0.90700000  0.96100000  0.38730000  1
  H  H147  1  0.05400000  0.96100000  0.88730000  1
  H  H148  1  0.47740000  0.95360000  0.43410000  1
  H  H149  1  0.47620000  0.95360000  0.93410000  1
  H  H150  1  0.84750000  0.94460000  0.51020000  1
  H  H151  1  0.09710000  0.94460000  0.01020000  1
  H  H152  1  0.89950000  0.85140000  0.88280000  1
  H  H153  1  0.95190000  0.85140000  0.38280000  1
  H  H154  1  0.86200000  0.84120000  0.12490000  1
  H  H155  1  0.97920000  0.84120000  0.62490000  1
  H  H156  1  0.89240000  0.83500000  0.50580000  1
  H  H157  1  0.94260000  0.83500000  0.00580000  1
  H  H158  1  0.45400000  0.80740000  0.86540000  1
  H  H159  1  0.35340000  0.80740000  0.36540000  1
  H  H160  1  0.84810000  0.76640000  0.17870000  1
  H  H161  1  0.91830000  0.76640000  0.67870000  1
  H  H162  1  0.48500000  0.76420000  0.01280000  1
  H  H163  1  0.27920000  0.76420000  0.51280000  1
  H  H164  1  0.56410000  0.75420000  0.11210000  1
  H  H165  1  0.19010000  0.75420000  0.61210000  1
  H  H166  1  0.50120000  0.74060000  0.80810000  1
  H  H167  1  0.23940000  0.74060000  0.30810000  1
  H  H168  1  0.39030000  0.73840000  0.46730000  1
  H  H169  1  0.34810000  0.73840000  0.96730000  1
  H  H170  1  0.82800000  0.72520000  0.76760000  1
  H  H171  1  0.89720000  0.72520000  0.26760000  1
  H  H172  1  0.66170000  0.70540000  0.76460000  1
  H  H173  1  0.04370000  0.70540000  0.26460000  1
  H  H174  1  0.55810000  0.68200000  0.16580000  1
  H  H175  1  0.12390000  0.68200000  0.66580000  1
  H  H176  1  0.50318333  0.67300000  0.33510000  1
  H  H177  1  0.16981667  0.67300000  0.83510000  1
  H  H178  1  0.76050000  0.65940000  0.42670000  1
  H  H179  1  0.89890000  0.65940000  0.92670000  1
  H  H180  1  0.67610000  0.64220000  0.85150000  1
  H  H181  1  0.96610000  0.64220000  0.35150000  1
  H  H182  1  0.39810000  0.60640000  0.27550000  1
  H  H183  1  0.20830000  0.60640000  0.77550000  1
  H  H184  1  0.63450000  0.56340000  0.38060000  1
  H  H185  1  0.92890000  0.56340000  0.88060000  1
  H  H186  1  0.76850000  0.54580000  0.17440000  1
  H  H187  1  0.77730000  0.54580000  0.67440000  1
  H  H188  1  0.69540000  0.54120000  0.80450000  1
  H  H189  1  0.84580000  0.54120000  0.30450000  1
  H  H190  1  0.61030000  0.52420000  0.66710000  1
  H  H191  1  0.91390000  0.52420000  0.16710000  1
  H  H192  1  0.38970000  0.47580000  0.33290000  1
  H  H193  1  0.08610000  0.47580000  0.83290000  1
  H  H194  1  0.30460000  0.45880000  0.19550000  1
  H  H195  1  0.15420000  0.45880000  0.69550000  1
  H  H196  1  0.23150000  0.45420000  0.82560000  1
  H  H197  1  0.22270000  0.45420000  0.32560000  1
  H  H198  1  0.36550000  0.43660000  0.61940000  1
  H  H199  1  0.07110000  0.43660000  0.11940000  1
  H  H200  1  0.60190000  0.39360000  0.72450000  1
  H  H201  1  0.79170000  0.39360000  0.22450000  1
  H  H202  1  0.32390000  0.35780000  0.14850000  1
  H  H203  1  0.03390000  0.35780000  0.64850000  1
  H  H204  1  0.23950000  0.34060000  0.57330000  1
  H  H205  1  0.10110000  0.34060000  0.07330000  1
  H  H206  1  0.49681667  0.32700000  0.66490000  1
  H  H207  1  0.83018333  0.32700000  0.16490000  1
  H  H208  1  0.44190000  0.31800000  0.83420000  1
  H  H209  1  0.87610000  0.31800000  0.33420000  1
  H  H210  1  0.33830000  0.29460000  0.23540000  1
  H  H211  1  0.95630000  0.29460000  0.73540000  1
  H  H212  1  0.17200000  0.27480000  0.23240000  1
  H  H213  1  0.10280000  0.27480000  0.73240000  1
  H  H214  1  0.60970000  0.26160000  0.53270000  1
  H  H215  1  0.65190000  0.26160000  0.03270000  1
  H  H216  1  0.49880000  0.25940000  0.19190000  1
  H  H217  1  0.76060000  0.25940000  0.69190000  1
  H  H218  1  0.43590000  0.24580000  0.88790000  1
  H  H219  1  0.80990000  0.24580000  0.38790000  1
  H  H220  1  0.51500000  0.23580000  0.98720000  1
  H  H221  1  0.72080000  0.23580000  0.48720000  1
  H  H222  1  0.15190000  0.23360000  0.82130000  1
  H  H223  1  0.08170000  0.23360000  0.32130000  1
  H  H224  1  0.54600000  0.19260000  0.13460000  1
  H  H225  1  0.64660000  0.19260000  0.63460000  1
  H  H226  1  0.10760000  0.16500000  0.49420000  1
  H  H227  1  0.05740000  0.16500000  0.99420000  1
  H  H228  1  0.13800000  0.15880000  0.87510000  1
  H  H229  1  0.02080000  0.15880000  0.37510000  1
  H  H230  1  0.10050000  0.14860000  0.11720000  1
  H  H231  1  0.04810000  0.14860000  0.61720000  1
  H  H232  1  0.15250000  0.05540000  0.48980000  1
  H  H233  1  0.90290000  0.05540000  0.98980000  1
  H  H234  1  0.52260000  0.04640000  0.56590000  1
  H  H235  1  0.52380000  0.04640000  0.06590000  1
  H  H236  1  0.09300000  0.03900000  0.61270000  1
  H  H237  1  0.94600000  0.03900000  0.11270000  1
  H  H238  1  0.38210000  0.01640000  0.02220000  1
  H  H239  1  0.63430000  0.01640000  0.52220000  1
  I  I240  1  0.64704000  0.94136000  0.37748000  1
  I  I241  1  0.29432000  0.94136000  0.87748000  1
  I  I242  1  0.66303000  0.80122000  0.89412000  1
  I  I243  1  0.13819000  0.80122000  0.39412000  1
  I  I244  1  0.71473000  0.75022000  0.29876000  1
  I  I245  1  0.03549000  0.75022000  0.79876000  1
  I  I246  1  0.59272000  0.71994000  0.43928000  1
  I  I247  1  0.12722000  0.71994000  0.93928000  1
  I  I248  1  0.71435000  0.69388000  0.00467000  1
  I  I249  1  0.97953000  0.69388000  0.50467000  1
  I  I250  1  0.53736000  0.52902000  0.20710000  1
  I  I251  1  0.99166000  0.52902000  0.70710000  1
  I  I252  1  0.46264000  0.47098000  0.79290000  1
  I  I253  1  0.00834000  0.47098000  0.29290000  1
  I  I254  1  0.28565000  0.30612000  0.99533000  1
  I  I255  1  0.02047000  0.30612000  0.49533000  1
  I  I256  1  0.40728000  0.28006000  0.56072000  1
  I  I257  1  0.87278000  0.28006000  0.06072000  1
  I  I258  1  0.28527000  0.24978000  0.70124000  1
  I  I259  1  0.96451000  0.24978000  0.20124000  1
  I  I260  1  0.33697000  0.19878000  0.10588000  1
  I  I261  1  0.86181000  0.19878000  0.60588000  1
  I  I262  1  0.35296000  0.05864000  0.62252000  1
  I  I263  1  0.70568000  0.05864000  0.12252000  1
  N  N264  1  0.74153000  0.95166000  0.02142000  1
  N  N265  1  0.21013000  0.95166000  0.52142000  1
  N  N266  1  0.81264000  0.91668000  0.07760000  1
  N  N267  1  0.10404000  0.91668000  0.57760000  1
  N  N268  1  0.64031000  0.84722000  0.05823000  1
  N  N269  1  0.20691000  0.84722000  0.55823000  1
  N  N270  1  0.44341000  0.84342000  0.44692000  1
  N  N271  1  0.40001000  0.84342000  0.94692000  1
  N  N272  1  0.90655000  0.83290000  0.94387000  1
  N  N273  1  0.92635000  0.83290000  0.44387000  1
  N  N274  1  0.43744000  0.74588000  0.35580000  1
  N  N275  1  0.30844000  0.74588000  0.85580000  1
  N  N276  1  0.70126000  0.72092000  0.17870000  1
  N  N277  1  0.01966000  0.72092000  0.67870000  1
  N  N278  1  0.78450000  0.65900000  0.89349000  1
  N  N279  1  0.87450000  0.65900000  0.39349000  1
  N  N280  1  0.48652000  0.64264000  0.74569000  1
  N  N281  1  0.15612000  0.64264000  0.24569000  1
  N  N282  1  0.81711000  0.63722000  0.72174000  1
  N  N283  1  0.82011000  0.63722000  0.22174000  1
  N  N284  1  0.31674000  0.56128000  0.72389000  1
  N  N285  1  0.24454000  0.56128000  0.22389000  1
  N  N286  1  0.44594000  0.53788000  0.68688000  1
  N  N287  1  0.09194000  0.53788000  0.18688000  1
  N  N288  1  0.55406000  0.46212000  0.31312000  1
  N  N289  1  0.90806000  0.46212000  0.81312000  1
  N  N290  1  0.68326000  0.43872000  0.27611000  1
  N  N291  1  0.75546000  0.43872000  0.77611000  1
  N  N292  1  0.18289000  0.36278000  0.27826000  1
  N  N293  1  0.17989000  0.36278000  0.77826000  1
  N  N294  1  0.51348000  0.35736000  0.25431000  1
  N  N295  1  0.84388000  0.35736000  0.75431000  1
  N  N296  1  0.21550000  0.34100000  0.10651000  1
  N  N297  1  0.12550000  0.34100000  0.60651000  1
  N  N298  1  0.29874000  0.27908000  0.82130000  1
  N  N299  1  0.98034000  0.27908000  0.32130000  1
  N  N300  1  0.56256000  0.25412000  0.64420000  1
  N  N301  1  0.69156000  0.25412000  0.14420000  1
  N  N302  1  0.09345000  0.16710000  0.05613000  1
  N  N303  1  0.07365000  0.16710000  0.55613000  1
  N  N304  1  0.55659000  0.15658000  0.55308000  1
  N  N305  1  0.59999000  0.15658000  0.05308000  1
  N  N306  1  0.35969000  0.15278000  0.94177000  1
  N  N307  1  0.79309000  0.15278000  0.44177000  1
  N  N308  1  0.18736000  0.08332000  0.92240000  1
  N  N309  1  0.89596000  0.08332000  0.42240000  1
  N  N310  1  0.25847000  0.04834000  0.97858000  1
  N  N311  1  0.78987000  0.04834000  0.47858000  1
  Zn  Zn312  1  0.53790000  0.81444000  0.40581000  1
  Zn  Zn313  1  0.27654000  0.81444000  0.90581000  1
  Zn  Zn314  1  0.76343000  0.74650000  0.93586000  1
  Zn  Zn315  1  0.98307000  0.74650000  0.43586000  1
  Zn  Zn316  1  0.69189000  0.65864000  0.22841000  1
  Zn  Zn317  1  0.96675000  0.65864000  0.72841000  1
  Zn  Zn318  1  0.30811000  0.34136000  0.77159000  1
  Zn  Zn319  1  0.03325000  0.34136000  0.27159000  1
  Zn  Zn320  1  0.23657000  0.25350000  0.06414000  1
  Zn  Zn321  1  0.01693000  0.25350000  0.56414000  1
  Zn  Zn322  1  0.46210000  0.18556000  0.59419000  1
  Zn  Zn323  1  0.72346000  0.18556000  0.09419000  1
