# generated using pymatgen
data_Zn(CO2)3
_symmetry_space_group_name_H-M   'P 1'
_cell_length_a   9.41780000
_cell_length_b   15.45720000
_cell_length_c   18.24510000
_cell_angle_alpha   95.39900000
_cell_angle_beta   91.35200000
_cell_angle_gamma   90.31200000
_symmetry_Int_Tables_number   1
_chemical_formula_structural   Zn(CO2)3
_chemical_formula_sum   'Zn8 C24 O48'
_cell_volume   2643.39307552
_cell_formula_units_Z   8
loop_
 _symmetry_equiv_pos_site_id
 _symmetry_equiv_pos_as_xyz
  1  'x, y, z'
loop_
 _atom_site_type_symbol
 _atom_site_label
 _atom_site_symmetry_multiplicity
 _atom_site_fract_x
 _atom_site_fract_y
 _atom_site_fract_z
 _atom_site_occupancy
  Zn  Zn0  1  0.11070000  0.58318000  0.38737000  1
  Zn  Zn1  1  0.12112000  0.41788000  0.11214000  1
  Zn  Zn2  1  0.25004000  0.91445000  0.46921000  1
  Zn  Zn3  1  0.25341000  0.08870000  0.02975000  1
  Zn  Zn4  1  0.74659000  0.91130000  0.97025000  1
  Zn  Zn5  1  0.74996000  0.08555000  0.53079000  1
  Zn  Zn6  1  0.87888000  0.58212000  0.88786000  1
  Zn  Zn7  1  0.88930000  0.41682000  0.61263000  1
  C  C8  1  0.02720000  0.03630000  0.47790000  1
  C  C9  1  0.02810000  0.96500000  0.02380000  1
  C  C10  1  0.03390000  0.50120000  0.24770000  1
  C  C11  1  0.05150000  0.53870000  0.00930000  1
  C  C12  1  0.05280000  0.46290000  0.49240000  1
  C  C13  1  0.15650000  0.76340000  0.39050000  1
  C  C14  1  0.16500000  0.23900000  0.11070000  1
  C  C15  1  0.19900000  0.50270000  0.25220000  1
  C  C16  1  0.24510000  0.73300000  0.45500000  1
  C  C17  1  0.25580000  0.26940000  0.04810000  1
  C  C18  1  0.47740000  0.99120000  0.95960000  1
  C  C19  1  0.48260000  0.00750000  0.54070000  1
  C  C20  1  0.51740000  0.99250000  0.45930000  1
  C  C21  1  0.52260000  0.00880000  0.04040000  1
  C  C22  1  0.74420000  0.73060000  0.95190000  1
  C  C23  1  0.75490000  0.26700000  0.54500000  1
  C  C24  1  0.80100000  0.49730000  0.74780000  1
  C  C25  1  0.83500000  0.76100000  0.88930000  1
  C  C26  1  0.84350000  0.23660000  0.60950000  1
  C  C27  1  0.94720000  0.53710000  0.50760000  1
  C  C28  1  0.94850000  0.46130000  0.99070000  1
  C  C29  1  0.96610000  0.49880000  0.75230000  1
  C  C30  1  0.97190000  0.03500000  0.97620000  1
  C  C31  1  0.97280000  0.96370000  0.52210000  1
  O  O32  1  0.02180000  0.52910000  0.81050000  1
  O  O33  1  0.02780000  0.46940000  0.69540000  1
  O  O34  1  0.03980000  0.60160000  0.97170000  1
  O  O35  1  0.04670000  0.40110000  0.53160000  1
  O  O36  1  0.05420000  0.09750000  0.96810000  1
  O  O37  1  0.05480000  0.90060000  0.52810000  1
  O  O38  1  0.08690000  0.70470000  0.35190000  1
  O  O39  1  0.09730000  0.29600000  0.14800000  1
  O  O40  1  0.13490000  0.46850000  0.44020000  1
  O  O41  1  0.13850000  0.53230000  0.06090000  1
  O  O42  1  0.14690000  0.02860000  0.45120000  1
  O  O43  1  0.15000000  0.97390000  0.05080000  1
  O  O44  1  0.15880000  0.84130000  0.38040000  1
  O  O45  1  0.16660000  0.16040000  0.11920000  1
  O  O46  1  0.25320000  0.65430000  0.46060000  1
  O  O47  1  0.25670000  0.53680000  0.30900000  1
  O  O48  1  0.26100000  0.46960000  0.19650000  1
  O  O49  1  0.26690000  0.34970000  0.04490000  1
  O  O50  1  0.30380000  0.79100000  0.49690000  1
  O  O51  1  0.31240000  0.21170000  0.00590000  1
  O  O52  1  0.36220000  0.02380000  0.94018000  1
  O  O53  1  0.36880000  0.97340000  0.55984000  1
  O  O54  1  0.43400000  0.94850000  0.41750000  1
  O  O55  1  0.44390000  0.05420000  0.08214000  1
  O  O56  1  0.55610000  0.94580000  0.91786000  1
  O  O57  1  0.56600000  0.05150000  0.58250000  1
  O  O58  1  0.63120000  0.02660000  0.44016000  1
  O  O59  1  0.63780000  0.97620000  0.05982000  1
  O  O60  1  0.68760000  0.78830000  0.99410000  1
  O  O61  1  0.69620000  0.20900000  0.50310000  1
  O  O62  1  0.73310000  0.65030000  0.95510000  1
  O  O63  1  0.73900000  0.53040000  0.80350000  1
  O  O64  1  0.74330000  0.46320000  0.69100000  1
  O  O65  1  0.74680000  0.34570000  0.53940000  1
  O  O66  1  0.83340000  0.83960000  0.88080000  1
  O  O67  1  0.84120000  0.15870000  0.61960000  1
  O  O68  1  0.85000000  0.02610000  0.94920000  1
  O  O69  1  0.85310000  0.97140000  0.54880000  1
  O  O70  1  0.86150000  0.46770000  0.93910000  1
  O  O71  1  0.86510000  0.53150000  0.55980000  1
  O  O72  1  0.90270000  0.70400000  0.85200000  1
  O  O73  1  0.91310000  0.29530000  0.64810000  1
  O  O74  1  0.94520000  0.09940000  0.47190000  1
  O  O75  1  0.94580000  0.90250000  0.03190000  1
  O  O76  1  0.95330000  0.59890000  0.46840000  1
  O  O77  1  0.96020000  0.39840000  0.02830000  1
  O  O78  1  0.97220000  0.53060000  0.30460000  1
  O  O79  1  0.97820000  0.47090000  0.18950000  1
