# generated using pymatgen
data_AgH12(C3N)6
_symmetry_space_group_name_H-M   'P 1'
_cell_length_a   13.75791372
_cell_length_b   13.75791372
_cell_length_c   24.61969703
_cell_angle_alpha   101.59183218
_cell_angle_beta   101.57328515
_cell_angle_gamma   106.34449559
_symmetry_Int_Tables_number   1
_chemical_formula_structural   AgH12(C3N)6
_chemical_formula_sum   'Ag8 H96 C144 N48'
_cell_volume   4213.37388971
_cell_formula_units_Z   8
loop_
 _symmetry_equiv_pos_site_id
 _symmetry_equiv_pos_as_xyz
  1  'x, y, z'
loop_
 _atom_site_type_symbol
 _atom_site_label
 _atom_site_symmetry_multiplicity
 _atom_site_fract_x
 _atom_site_fract_y
 _atom_site_fract_z
 _atom_site_occupancy
  Ag  Ag0  1  0.20585000  0.92759000  0.13230000  1
  Ag  Ag1  1  0.20471000  0.42645000  0.63230000  1
  Ag  Ag2  1  0.43475000  0.61442000  0.63175000  1
  Ag  Ag3  1  0.01733000  0.69700000  0.13175000  1
  Ag  Ag4  1  0.56525000  0.38558000  0.36825000  1
  Ag  Ag5  1  0.98267000  0.30300000  0.86825000  1
  Ag  Ag6  1  0.79415000  0.07241000  0.86770000  1
  Ag  Ag7  1  0.79529000  0.57355000  0.36770000  1
  C  C8  1  0.38277000  0.88592000  0.52469000  1
  C  C9  1  0.63877000  0.64192000  0.02469000  1
  C  C10  1  0.16262000  0.11575000  0.97817000  1
  C  C11  1  0.86242000  0.31555000  0.47817000  1
  C  C12  1  0.15993000  0.70536000  0.58089000  1
  C  C13  1  0.87553000  0.92096000  0.08089000  1
  C  C14  1  0.13125000  0.58528000  0.49033000  1
  C  C15  1  0.90505000  0.85908000  0.99033000  1
  C  C16  1  0.40018000  0.90628000  0.58406000  1
  C  C17  1  0.67778000  0.68388000  0.08406000  1
  C  C18  1  0.37703000  0.78566000  0.49449000  1
  C  C19  1  0.70883000  0.61746000  0.99449000  1
  C  C20  1  0.47258000  0.37861000  0.00579000  1
  C  C21  1  0.62718000  0.03321000  0.50579000  1
  C  C22  1  0.27422000  0.13119000  0.00741000  1
  C  C23  1  0.87622000  0.23319000  0.50741000  1
  C  C24  1  0.17731000  0.63000000  0.60731000  1
  C  C25  1  0.97731000  0.93000000  0.10731000  1
  C  C26  1  0.14960000  0.51387000  0.52007000  1
  C  C27  1  0.00620000  0.87047000  0.02007000  1
  C  C28  1  0.41322000  0.83031000  0.61073000  1
  C  C29  1  0.78042000  0.69751000  0.11073000  1
  C  C30  1  0.39170000  0.71458000  0.52508000  1
  C  C31  1  0.81050000  0.63338000  0.02508000  1
  C  C32  1  0.60467000  0.43690000  0.08817000  1
  C  C33  1  0.65127000  0.98350000  0.58817000  1
  C  C34  1  0.56579000  0.72112000  0.41131000  1
  C  C35  1  0.69019000  0.34552000  0.91131000  1
  C  C36  1  0.62108000  0.86725000  0.50273000  1
  C  C37  1  0.63548000  0.38165000  0.00273000  1
  C  C38  1  0.57800000  0.49642000  0.18542000  1
  C  C39  1  0.68900000  0.10742000  0.68542000  1
  C  C40  1  0.43507000  0.12832000  0.00159000  1
  C  C41  1  0.87327000  0.06652000  0.50159000  1
  C  C42  1  0.48100000  0.07765000  0.90785000  1
  C  C43  1  0.83020000  0.92685000  0.40785000  1
  C  C44  1  0.38850000  0.25942000  0.18412000  1
  C  C45  1  0.92470000  0.29562000  0.68412000  1
  C  C46  1  0.64486000  0.48011000  0.15177000  1
  C  C47  1  0.67166000  0.00691000  0.65177000  1
  C  C48  1  0.40634000  0.17747000  0.08861000  1
  C  C49  1  0.91114000  0.18227000  0.58861000  1
  C  C50  1  0.60795000  0.75785000  0.47060000  1
  C  C51  1  0.71275000  0.36265000  0.97060000  1
  C  C52  1  0.55635000  0.61900000  0.38475000  1
  C  C53  1  0.76575000  0.32840000  0.88475000  1
  C  C54  1  0.62050000  0.53050000  0.24440000  1
  C  C55  1  0.71390000  0.12390000  0.74440000  1
  C  C56  1  0.50896000  0.10818000  0.96714000  1
  C  C57  1  0.85896000  0.95818000  0.46714000  1
  C  C58  1  0.55560000  0.06230000  0.88010000  1
  C  C59  1  0.81780000  0.82450000  0.38010000  1
  C  C60  1  0.42970000  0.29929000  0.24319000  1
  C  C61  1  0.94390000  0.31349000  0.74319000  1
  C  C62  1  0.44804000  0.21880000  0.15224000  1
  C  C63  1  0.93344000  0.20420000  0.65224000  1
  C  C64  1  0.67390000  0.92774000  0.67844000  1
  C  C65  1  0.75070000  0.50454000  0.17844000  1
  C  C66  1  0.41880000  0.73769000  0.75929000  1
  C  C67  1  0.02160000  0.84049000  0.25929000  1
  C  C68  1  0.63668000  0.69002000  0.50010000  1
  C  C69  1  0.81008000  0.36342000  0.00010000  1
  C  C70  1  0.32022000  0.89886000  0.03448000  1
  C  C71  1  0.13562000  0.21426000  0.53448000  1
  C  C72  1  0.69780000  0.95205000  0.73765000  1
  C  C73  1  0.78560000  0.53985000  0.23765000  1
  C  C74  1  0.61032000  0.11985000  0.99657000  1
  C  C75  1  0.87672000  0.88625000  0.49657000  1
  C  C76  1  0.45400000  0.77908000  0.81828000  1
  C  C77  1  0.03920000  0.86428000  0.31828000  1
  C  C78  1  0.37490000  0.40941000  0.53051000  1
  C  C79  1  0.12110000  0.65561000  0.03051000  1
  C  C80  1  0.62510000  0.59059000  0.46949000  1
  C  C81  1  0.87890000  0.34439000  0.96949000  1
  C  C82  1  0.54600000  0.22092000  0.18172000  1
  C  C83  1  0.96080000  0.13572000  0.68172000  1
  C  C84  1  0.38968000  0.88015000  0.00343000  1
  C  C85  1  0.12328000  0.11375000  0.50343000  1
  C  C86  1  0.30220000  0.04795000  0.26235000  1
  C  C87  1  0.21440000  0.46015000  0.76235000  1
  C  C88  1  0.67978000  0.10114000  0.96552000  1
  C  C89  1  0.86438000  0.78574000  0.46552000  1
  C  C90  1  0.36332000  0.30998000  0.49990000  1
  C  C91  1  0.18992000  0.63658000  0.99990000  1
  C  C92  1  0.58120000  0.26231000  0.24071000  1
  C  C93  1  0.97840000  0.15951000  0.74071000  1
  C  C94  1  0.32610000  0.07226000  0.32156000  1
  C  C95  1  0.24930000  0.49546000  0.82156000  1
  C  C96  1  0.55196000  0.78120000  0.84776000  1
  C  C97  1  0.06656000  0.79580000  0.34776000  1
  C  C98  1  0.57030000  0.70071000  0.75681000  1
  C  C99  1  0.05610000  0.68651000  0.25681000  1
  C  C100  1  0.44440000  0.93770000  0.11990000  1
  C  C101  1  0.18220000  0.17550000  0.61990000  1
  C  C102  1  0.49104000  0.89182000  0.03286000  1
  C  C103  1  0.14104000  0.04182000  0.53286000  1
  C  C104  1  0.37950000  0.46950000  0.75560000  1
  C  C105  1  0.28610000  0.87610000  0.25560000  1
  C  C106  1  0.44365000  0.38100000  0.61525000  1
  C  C107  1  0.23425000  0.67160000  0.11525000  1
  C  C108  1  0.39205000  0.24215000  0.52940000  1
  C  C109  1  0.28725000  0.63735000  0.02940000  1
  C  C110  1  0.59366000  0.82253000  0.91139000  1
  C  C111  1  0.08886000  0.81773000  0.41139000  1
  C  C112  1  0.35514000  0.51989000  0.84823000  1
  C  C113  1  0.32834000  0.99309000  0.34823000  1
  C  C114  1  0.61150000  0.74058000  0.81588000  1
  C  C115  1  0.07530000  0.70438000  0.31588000  1
  C  C116  1  0.51900000  0.92235000  0.09215000  1
  C  C117  1  0.16980000  0.07315000  0.59215000  1
  C  C118  1  0.56493000  0.87168000  0.99841000  1
  C  C119  1  0.12673000  0.93348000  0.49841000  1
  C  C120  1  0.42200000  0.50358000  0.81458000  1
  C  C121  1  0.31100000  0.89258000  0.31458000  1
  C  C122  1  0.37892000  0.13275000  0.49727000  1
  C  C123  1  0.36452000  0.61835000  0.99727000  1
  C  C124  1  0.43421000  0.27888000  0.58869000  1
  C  C125  1  0.30981000  0.65448000  0.08869000  1
  C  C126  1  0.39533000  0.56310000  0.91183000  1
  C  C127  1  0.34873000  0.01650000  0.41183000  1
  C  C128  1  0.60830000  0.28542000  0.47492000  1
  C  C129  1  0.18950000  0.36662000  0.97492000  1
  C  C130  1  0.58678000  0.16969000  0.38927000  1
  C  C131  1  0.21958000  0.30249000  0.88927000  1
  C  C132  1  0.85040000  0.48613000  0.47993000  1
  C  C133  1  0.99380000  0.12953000  0.97993000  1
  C  C134  1  0.82269000  0.37000000  0.39269000  1
  C  C135  1  0.02269000  0.07000000  0.89269000  1
  C  C136  1  0.72578000  0.86881000  0.99259000  1
  C  C137  1  0.12378000  0.76681000  0.49259000  1
  C  C138  1  0.52742000  0.62139000  0.99421000  1
  C  C139  1  0.37282000  0.96679000  0.49421000  1
  C  C140  1  0.62297000  0.21434000  0.50551000  1
  C  C141  1  0.29117000  0.38254000  0.00551000  1
  C  C142  1  0.59982000  0.09372000  0.41594000  1
  C  C143  1  0.32222000  0.31612000  0.91594000  1
  C  C144  1  0.86875000  0.41472000  0.50967000  1
  C  C145  1  0.09495000  0.14092000  0.00967000  1
  C  C146  1  0.84007000  0.29464000  0.41911000  1
  C  C147  1  0.12447000  0.07904000  0.91911000  1
  C  C148  1  0.83738000  0.88425000  0.02183000  1
  C  C149  1  0.13758000  0.68445000  0.52183000  1
  C  C150  1  0.61723000  0.11408000  0.47531000  1
  C  C151  1  0.36123000  0.35808000  0.97531000  1
  H  H152  1  0.11720000  0.16470000  0.04970000  1
  H  H153  1  0.88500000  0.43250000  0.54970000  1
  H  H154  1  0.16720000  0.06020000  0.89700000  1
  H  H155  1  0.83680000  0.22980000  0.39700000  1
  H  H156  1  0.40290000  0.97120000  0.60570000  1
  H  H157  1  0.63450000  0.70280000  0.10570000  1
  H  H158  1  0.36350000  0.76730000  0.45460000  1
  H  H159  1  0.68730000  0.59110000  0.95460000  1
  H  H160  1  0.54450000  0.76390000  0.39000000  1
  H  H161  1  0.62610000  0.34550000  0.89000000  1
  H  H162  1  0.50740000  0.48480000  0.16880000  1
  H  H163  1  0.68400000  0.16140000  0.66880000  1
  H  H164  1  0.19270000  0.64600000  0.64730000  1
  H  H165  1  0.00130000  0.95460000  0.14730000  1
  H  H166  1  0.14530000  0.44800000  0.49890000  1
  H  H167  1  0.05090000  0.85360000  0.99890000  1
  H  H168  1  0.32230000  0.25960000  0.16610000  1
  H  H169  1  0.90650000  0.34380000  0.66610000  1
  H  H170  1  0.42540000  0.84620000  0.65060000  1
  H  H171  1  0.80440000  0.72520000  0.15060000  1
  H  H172  1  0.41310000  0.06750000  0.88680000  1
  H  H173  1  0.81930000  0.97370000  0.38680000  1
  H  H174  1  0.38900000  0.64880000  0.50460000  1
  H  H175  1  0.85580000  0.61560000  0.00460000  1
  H  H176  1  0.52680000  0.59410000  0.34510000  1
  H  H177  1  0.75100000  0.31830000  0.84510000  1
  H  H178  1  0.57530000  0.54000000  0.26690000  1
  H  H179  1  0.72690000  0.19160000  0.76690000  1
  H  H180  1  0.38950000  0.32620000  0.26410000  1
  H  H181  1  0.93790000  0.37460000  0.76410000  1
  H  H182  1  0.53660000  0.04360000  0.84000000  1
  H  H183  1  0.79640000  0.80340000  0.34000000  1
  H  H184  1  0.35270000  0.73670000  0.74020000  1
  H  H185  1  0.00350000  0.88750000  0.24020000  1
  H  H186  1  0.25250000  0.89140000  0.01430000  1
  H  H187  1  0.12290000  0.26180000  0.51430000  1
  H  H188  1  0.35500000  0.45410000  0.51030000  1
  H  H189  1  0.05620000  0.65530000  0.01030000  1
  H  H190  1  0.30200000  0.10190000  0.24490000  1
  H  H191  1  0.41230000  0.80560000  0.83830000  1
  H  H192  1  0.03270000  0.92600000  0.33830000  1
  H  H193  1  0.14300000  0.44290000  0.74490000  1
  H  H194  1  0.65960000  0.85930000  0.65670000  1
  H  H195  1  0.79740000  0.49710000  0.15670000  1
  H  H196  1  0.36860000  0.86010000  0.96330000  1
  H  H197  1  0.10320000  0.09470000  0.46330000  1
  H  H198  1  0.66340000  0.71160000  0.54000000  1
  H  H199  1  0.82840000  0.37660000  0.04000000  1
  H  H200  1  0.33660000  0.28840000  0.46000000  1
  H  H201  1  0.17160000  0.62340000  0.96000000  1
  H  H202  1  0.63140000  0.13990000  0.03670000  1
  H  H203  1  0.89680000  0.90530000  0.53670000  1
  H  H204  1  0.34040000  0.14070000  0.34330000  1
  H  H205  1  0.20260000  0.50290000  0.84330000  1
  H  H206  1  0.58770000  0.19440000  0.16170000  1
  H  H207  1  0.69800000  0.89810000  0.75510000  1
  H  H208  1  0.85700000  0.55710000  0.25510000  1
  H  H209  1  0.96730000  0.07400000  0.66170000  1
  H  H210  1  0.64500000  0.54590000  0.48970000  1
  H  H211  1  0.94380000  0.34470000  0.98970000  1
  H  H212  1  0.74750000  0.10860000  0.98570000  1
  H  H213  1  0.87710000  0.73820000  0.48570000  1
  H  H214  1  0.64730000  0.26330000  0.25980000  1
  H  H215  1  0.99650000  0.11250000  0.75980000  1
  H  H216  1  0.46340000  0.95640000  0.16000000  1
  H  H217  1  0.20360000  0.19660000  0.66000000  1
  H  H218  1  0.61050000  0.67380000  0.73590000  1
  H  H219  1  0.06210000  0.62540000  0.23590000  1
  H  H220  1  0.42470000  0.46000000  0.73310000  1
  H  H221  1  0.27310000  0.80840000  0.23310000  1
  H  H222  1  0.47320000  0.40590000  0.65490000  1
  H  H223  1  0.24900000  0.68170000  0.15490000  1
  H  H224  1  0.61100000  0.35120000  0.49540000  1
  H  H225  1  0.14420000  0.38440000  0.99540000  1
  H  H226  1  0.58690000  0.93250000  0.11320000  1
  H  H227  1  0.18070000  0.02630000  0.61320000  1
  H  H228  1  0.57460000  0.15380000  0.34940000  1
  H  H229  1  0.19560000  0.27480000  0.84940000  1
  H  H230  1  0.67770000  0.74040000  0.83390000  1
  H  H231  1  0.09350000  0.65620000  0.33390000  1
  H  H232  1  0.85470000  0.55200000  0.50110000  1
  H  H233  1  0.94910000  0.14640000  0.00110000  1
  H  H234  1  0.80730000  0.35400000  0.35270000  1
  H  H235  1  0.99870000  0.04540000  0.85270000  1
  H  H236  1  0.49260000  0.51520000  0.83120000  1
  H  H237  1  0.31600000  0.83860000  0.33120000  1
  H  H238  1  0.45550000  0.23610000  0.61000000  1
  H  H239  1  0.37390000  0.65450000  0.11000000  1
  H  H240  1  0.63650000  0.23270000  0.54540000  1
  H  H241  1  0.31270000  0.40890000  0.04540000  1
  H  H242  1  0.59710000  0.02880000  0.39430000  1
  H  H243  1  0.36550000  0.29720000  0.89430000  1
  H  H244  1  0.83280000  0.93980000  0.10300000  1
  H  H245  1  0.16320000  0.77020000  0.60300000  1
  H  H246  1  0.88280000  0.83530000  0.95030000  1
  H  H247  1  0.11500000  0.56750000  0.45030000  1
  N  N248  1  0.53568000  0.35932000  0.97300000  1
  N  N249  1  0.61368000  0.93732000  0.47300000  1
  N  N250  1  0.50238000  0.41577000  0.06315000  1
  N  N251  1  0.64738000  0.06077000  0.56315000  1
  N  N252  1  0.33731000  0.11578000  0.97349000  1
  N  N253  1  0.85771000  0.13618000  0.47349000  1
  N  N254  1  0.30475000  0.16146000  0.06481000  1
  N  N255  1  0.90335000  0.26006000  0.56481000  1
  N  N256  1  0.17307000  0.53441000  0.57788000  1
  N  N257  1  0.04347000  0.90481000  0.07788000  1
  N  N258  1  0.40954000  0.73442000  0.58238000  1
  N  N259  1  0.84796000  0.67284000  0.08238000  1
  N  N260  1  0.63777000  0.88507000  0.55984000  1
  N  N261  1  0.67477000  0.42207000  0.05984000  1
  N  N262  1  0.47439000  0.15974000  0.05933000  1
  N  N263  1  0.89959000  0.08494000  0.55933000  1
  N  N264  1  0.72100000  0.05040000  0.77180000  1
  N  N265  1  0.72140000  0.55080000  0.27180000  1
  N  N266  1  0.58677000  0.55421000  0.41218000  1
  N  N267  1  0.85797000  0.32541000  0.91218000  1
  N  N268  1  0.65451000  0.07313000  0.90804000  1
  N  N269  1  0.83491000  0.75353000  0.40804000  1
  N  N270  1  0.52371000  0.30166000  0.27197000  1
  N  N271  1  0.97031000  0.24826000  0.77197000  1
  N  N272  1  0.47629000  0.69834000  0.72803000  1
  N  N273  1  0.02969000  0.75174000  0.22803000  1
  N  N274  1  0.34549000  0.92687000  0.09196000  1
  N  N275  1  0.16509000  0.24647000  0.59196000  1
  N  N276  1  0.41323000  0.44579000  0.58782000  1
  N  N277  1  0.14203000  0.67459000  0.08782000  1
  N  N278  1  0.27900000  0.94960000  0.22820000  1
  N  N279  1  0.27860000  0.44920000  0.72820000  1
  N  N280  1  0.52561000  0.84026000  0.94067000  1
  N  N281  1  0.10041000  0.91506000  0.44067000  1
  N  N282  1  0.36223000  0.11493000  0.44016000  1
  N  N283  1  0.32523000  0.57793000  0.94016000  1
  N  N284  1  0.59046000  0.26558000  0.41762000  1
  N  N285  1  0.15204000  0.32716000  0.91762000  1
  N  N286  1  0.82693000  0.46559000  0.42212000  1
  N  N287  1  0.95653000  0.09519000  0.92212000  1
  N  N288  1  0.69525000  0.83854000  0.93519000  1
  N  N289  1  0.09665000  0.73994000  0.43519000  1
  N  N290  1  0.66269000  0.88422000  0.02651000  1
  N  N291  1  0.14229000  0.86382000  0.52651000  1
  N  N292  1  0.49762000  0.58423000  0.93685000  1
  N  N293  1  0.35262000  0.93923000  0.43685000  1
  N  N294  1  0.46432000  0.64068000  0.02700000  1
  N  N295  1  0.38632000  0.06268000  0.52700000  1
