# generated using pymatgen
data_Fe2C4Cl2O9
_symmetry_space_group_name_H-M   'P 1'
_cell_length_a   8.72435129
_cell_length_b   8.72435129
_cell_length_c   12.52166787
_cell_angle_alpha   100.94522649
_cell_angle_beta   100.94522649
_cell_angle_gamma   117.06331851
_symmetry_Int_Tables_number   1
_chemical_formula_structural   Fe2C4Cl2O9
_chemical_formula_sum   'Fe4 C8 Cl4 O18'
_cell_volume   790.59063724
_cell_formula_units_Z   2
loop_
 _symmetry_equiv_pos_site_id
 _symmetry_equiv_pos_as_xyz
  1  'x, y, z'
loop_
 _atom_site_type_symbol
 _atom_site_label
 _atom_site_symmetry_multiplicity
 _atom_site_fract_x
 _atom_site_fract_y
 _atom_site_fract_z
 _atom_site_occupancy
  C  C0  1  0.50220000  0.58454000  0.21634000  1
  C  C1  1  0.36734000  0.48508000  0.27622000  1
  C  C2  1  0.73508000  0.11734000  0.77622000  1
  C  C3  1  0.83454000  0.25220000  0.71634000  1
  C  C4  1  0.53586000  0.11820000  0.28366000  1
  C  C5  1  0.34112000  0.95886000  0.22378000  1
  C  C6  1  0.20886000  0.09112000  0.72378000  1
  C  C7  1  0.36820000  0.28586000  0.78366000  1
  Cl  Cl8  1  0.77186000  0.90804000  0.51184000  1
  Cl  Cl9  1  0.15804000  0.52186000  0.01184000  1
  Cl  Cl10  1  0.51002000  0.14620000  0.98816000  1
  Cl  Cl11  1  0.39620000  0.26002000  0.48816000  1
  Fe  Fe12  1  0.10494000  0.26062000  0.89072000  1
  Fe  Fe13  1  0.51062000  0.85494000  0.39072000  1
  Fe  Fe14  1  0.46422000  0.11990000  0.60928000  1
  Fe  Fe15  1  0.36990000  0.21422000  0.10928000  1
  O  O16  1  0.15630000  0.15630000  0.00000000  1
  O  O17  1  0.28398000  0.31570000  0.23960000  1
  O  O18  1  0.34727000  0.38411000  0.86096000  1
  O  O19  1  0.58077000  0.75351000  0.25004000  1
  O  O20  1  0.35083000  0.58203000  0.35602000  1
  O  O21  1  0.83203000  0.10083000  0.85602000  1
  O  O22  1  0.00351000  0.33077000  0.75004000  1
  O  O23  1  0.63411000  0.09727000  0.36096000  1
  O  O24  1  0.56570000  0.03398000  0.73960000  1
  O  O25  1  0.40630000  0.90630000  0.50000000  1
  O  O26  1  0.29438000  0.82610000  0.26040000  1
  O  O27  1  0.73631000  0.27315000  0.63904000  1
  O  O28  1  0.58073000  0.25347000  0.24996000  1
  O  O29  1  0.24481000  0.97601000  0.14398000  1
  O  O30  1  0.22601000  0.99481000  0.64398000  1
  O  O31  1  0.50347000  0.33073000  0.74996000  1
  O  O32  1  0.52315000  0.48631000  0.13904000  1
  O  O33  1  0.07610000  0.04438000  0.76040000  1
