# generated using pymatgen
data_CdH2C8S(NO2)2
_symmetry_space_group_name_H-M   'P 1'
_cell_length_a   12.99076803
_cell_length_b   12.99076803
_cell_length_c   12.99076803
_cell_angle_alpha   96.45552195
_cell_angle_beta   96.45552195
_cell_angle_gamma   96.45552195
_symmetry_Int_Tables_number   1
_chemical_formula_structural   CdH2C8S(NO2)2
_chemical_formula_sum   'Cd6 H12 C48 S6 N12 O24'
_cell_volume   2147.17247409
_cell_formula_units_Z   6
loop_
 _symmetry_equiv_pos_site_id
 _symmetry_equiv_pos_as_xyz
  1  'x, y, z'
loop_
 _atom_site_type_symbol
 _atom_site_label
 _atom_site_symmetry_multiplicity
 _atom_site_fract_x
 _atom_site_fract_y
 _atom_site_fract_z
 _atom_site_occupancy
  C  C0  1  0.16510000  0.31110000  0.00910000  1
  C  C1  1  0.63360000  0.11440000  0.12520000  1
  C  C2  1  0.39200000  0.94710000  0.80120000  1
  C  C3  1  0.79060000  0.49830000  0.98040000  1
  C  C4  1  0.44916000  0.85396000  0.94026000  1
  C  C5  1  0.85296000  0.58096000  0.95346000  1
  C  C6  1  0.49830000  0.98040000  0.79060000  1
  C  C7  1  0.74545000  0.14845000  0.11475000  1
  C  C8  1  0.80120000  0.39200000  0.94710000  1
  C  C9  1  0.88883000  0.93103000  0.55573000  1
  C  C10  1  0.55573000  0.88883000  0.93103000  1
  C  C11  1  0.05290000  0.19880000  0.60800000  1
  C  C12  1  0.85396000  0.94026000  0.44916000  1
  C  C13  1  0.01960000  0.20940000  0.50170000  1
  C  C14  1  0.11475000  0.74545000  0.14845000  1
  C  C15  1  0.58096000  0.95346000  0.85296000  1
  C  C16  1  0.93103000  0.55573000  0.88883000  1
  C  C17  1  0.05974000  0.55084000  0.14604000  1
  C  C18  1  0.14845000  0.11475000  0.74545000  1
  C  C19  1  0.31110000  0.00910000  0.16510000  1
  C  C20  1  0.99090000  0.83490000  0.68890000  1
  C  C21  1  0.11440000  0.12520000  0.63360000  1
  C  C22  1  0.95346000  0.85296000  0.58096000  1
  C  C23  1  0.87480000  0.36640000  0.88560000  1
  C  C24  1  0.12520000  0.63360000  0.11440000  1
  C  C25  1  0.04654000  0.14704000  0.41904000  1
  C  C26  1  0.88560000  0.87480000  0.36640000  1
  C  C27  1  0.00910000  0.16510000  0.31110000  1
  C  C28  1  0.68890000  0.99090000  0.83490000  1
  C  C29  1  0.85155000  0.88525000  0.25455000  1
  C  C30  1  0.94026000  0.44916000  0.85396000  1
  C  C31  1  0.06897000  0.44427000  0.11117000  1
  C  C32  1  0.41904000  0.04654000  0.14704000  1
  C  C33  1  0.88525000  0.25455000  0.85155000  1
  C  C34  1  0.98040000  0.79060000  0.49830000  1
  C  C35  1  0.14604000  0.05974000  0.55084000  1
  C  C36  1  0.94710000  0.80120000  0.39200000  1
  C  C37  1  0.44427000  0.11117000  0.06897000  1
  C  C38  1  0.11117000  0.06897000  0.44427000  1
  C  C39  1  0.19880000  0.60800000  0.05290000  1
  C  C40  1  0.25455000  0.85155000  0.88525000  1
  C  C41  1  0.50170000  0.01960000  0.20940000  1
  C  C42  1  0.14704000  0.41904000  0.04654000  1
  C  C43  1  0.55084000  0.14604000  0.05974000  1
  C  C44  1  0.20940000  0.50170000  0.01960000  1
  C  C45  1  0.60800000  0.05290000  0.19880000  1
  C  C46  1  0.36640000  0.88560000  0.87480000  1
  C  C47  1  0.83490000  0.68890000  0.99090000  1
  Cd  Cd48  1  0.10081000  0.95627000  0.19647000  1
  Cd  Cd49  1  0.19647000  0.10081000  0.95627000  1
  Cd  Cd50  1  0.04373000  0.80353000  0.89919000  1
  Cd  Cd51  1  0.95627000  0.19647000  0.10081000  1
  Cd  Cd52  1  0.80353000  0.89919000  0.04373000  1
  Cd  Cd53  1  0.89919000  0.04373000  0.80353000  1
  H  H54  1  0.66090000  0.03210000  0.24320000  1
  H  H55  1  0.26090000  0.48780000  0.97780000  1
  H  H56  1  0.03210000  0.24320000  0.66090000  1
  H  H57  1  0.75680000  0.33910000  0.96790000  1
  H  H58  1  0.97780000  0.26090000  0.48780000  1
  H  H59  1  0.51220000  0.02220000  0.73910000  1
  H  H60  1  0.48780000  0.97780000  0.26090000  1
  H  H61  1  0.02220000  0.73910000  0.51220000  1
  H  H62  1  0.24320000  0.66090000  0.03210000  1
  H  H63  1  0.96790000  0.75680000  0.33910000  1
  H  H64  1  0.73910000  0.51220000  0.02220000  1
  H  H65  1  0.33910000  0.96790000  0.75680000  1
  N  N66  1  0.43879000  0.79239000  0.01649000  1
  N  N67  1  0.85415000  0.00235000  0.62265000  1
  N  N68  1  0.79239000  0.01649000  0.43879000  1
  N  N69  1  0.98351000  0.56121000  0.20761000  1
  N  N70  1  0.62265000  0.85415000  0.00235000  1
  N  N71  1  0.99765000  0.37735000  0.14585000  1
  N  N72  1  0.00235000  0.62265000  0.85415000  1
  N  N73  1  0.37735000  0.14585000  0.99765000  1
  N  N74  1  0.01649000  0.43879000  0.79239000  1
  N  N75  1  0.20761000  0.98351000  0.56121000  1
  N  N76  1  0.14585000  0.99765000  0.37735000  1
  N  N77  1  0.56121000  0.20761000  0.98351000  1
  O  O78  1  0.88034000  0.76641000  0.95306000  1
  O  O79  1  0.77641000  0.24333000  0.12049000  1
  O  O80  1  0.22599000  0.29721000  0.94281000  1
  O  O81  1  0.12049000  0.77641000  0.24333000  1
  O  O82  1  0.07922000  0.10169000  0.80608000  1
  O  O83  1  0.95306000  0.88034000  0.76641000  1
  O  O84  1  0.23359000  0.04694000  0.11966000  1
  O  O85  1  0.10169000  0.80608000  0.07922000  1
  O  O86  1  0.94281000  0.22599000  0.29721000  1
  O  O87  1  0.75667000  0.87951000  0.22359000  1
  O  O88  1  0.29721000  0.94281000  0.22599000  1
  O  O89  1  0.80608000  0.07922000  0.10169000  1
  O  O90  1  0.19392000  0.92078000  0.89831000  1
  O  O91  1  0.70279000  0.05719000  0.77401000  1
  O  O92  1  0.24333000  0.12049000  0.77641000  1
  O  O93  1  0.05719000  0.77401000  0.70279000  1
  O  O94  1  0.89831000  0.19392000  0.92078000  1
  O  O95  1  0.76641000  0.95306000  0.88034000  1
  O  O96  1  0.04694000  0.11966000  0.23359000  1
  O  O97  1  0.92078000  0.89831000  0.19392000  1
  O  O98  1  0.87951000  0.22359000  0.75667000  1
  O  O99  1  0.77401000  0.70279000  0.05719000  1
  O  O100  1  0.22359000  0.75667000  0.87951000  1
  O  O101  1  0.11966000  0.23359000  0.04694000  1
  S  S102  1  0.21764000  0.93019000  0.44664000  1
  S  S103  1  0.93019000  0.44664000  0.21764000  1
  S  S104  1  0.55336000  0.78236000  0.06981000  1
  S  S105  1  0.44664000  0.21764000  0.93019000  1
  S  S106  1  0.06981000  0.55336000  0.78236000  1
  S  S107  1  0.78236000  0.06981000  0.55336000  1
