# generated using pymatgen
data_Cd5H48C84(NO6)4
_symmetry_space_group_name_H-M   'P 1'
_cell_length_a   14.58300000
_cell_length_b   15.63380000
_cell_length_c   23.24100000
_cell_angle_alpha   90.00000000
_cell_angle_beta   90.00000000
_cell_angle_gamma   106.99000000
_symmetry_Int_Tables_number   1
_chemical_formula_structural   Cd5H48C84(NO6)4
_chemical_formula_sum   'Cd10 H96 C168 N8 O48'
_cell_volume   5067.40622618
_cell_formula_units_Z   2
loop_
 _symmetry_equiv_pos_site_id
 _symmetry_equiv_pos_as_xyz
  1  'x, y, z'
loop_
 _atom_site_type_symbol
 _atom_site_label
 _atom_site_symmetry_multiplicity
 _atom_site_fract_x
 _atom_site_fract_y
 _atom_site_fract_z
 _atom_site_occupancy
  Cd  Cd0  1  0.00000000  0.00000000  0.00000000  1
  Cd  Cd1  1  0.00000000  0.50000000  0.50000000  1
  Cd  Cd2  1  0.76363000  0.91625000  0.93763000  1
  Cd  Cd3  1  0.76363000  0.41625000  0.56237000  1
  Cd  Cd4  1  0.74194000  0.80360000  0.80106000  1
  Cd  Cd5  1  0.74194000  0.30360000  0.69894000  1
  Cd  Cd6  1  0.25806000  0.69640000  0.30106000  1
  Cd  Cd7  1  0.25806000  0.19640000  0.19894000  1
  Cd  Cd8  1  0.23637000  0.58375000  0.43763000  1
  Cd  Cd9  1  0.23637000  0.08375000  0.06237000  1
  H  H10  1  0.98100000  0.96570000  0.27960000  1
  H  H11  1  0.98100000  0.46570000  0.22040000  1
  H  H12  1  0.97080000  0.86940000  0.43360000  1
  H  H13  1  0.97080000  0.36940000  0.06640000  1
  H  H14  1  0.96760000  0.11690000  0.44710000  1
  H  H15  1  0.96760000  0.61690000  0.05290000  1
  H  H16  1  0.96410000  0.72620000  0.45750000  1
  H  H17  1  0.96410000  0.22620000  0.04250000  1
  H  H18  1  0.94380000  0.78120000  0.28550000  1
  H  H19  1  0.94380000  0.28120000  0.21450000  1
  H  H20  1  0.93790000  0.76220000  0.83090000  1
  H  H21  1  0.93790000  0.26220000  0.66910000  1
  H  H22  1  0.91990000  0.31870000  0.87890000  1
  H  H23  1  0.91990000  0.81870000  0.62110000  1
  H  H24  1  0.91430000  0.25750000  0.40360000  1
  H  H25  1  0.91430000  0.75750000  0.09640000  1
  H  H26  1  0.89070000  0.18340000  0.31660000  1
  H  H27  1  0.89070000  0.68340000  0.18340000  1
  H  H28  1  0.88390000  0.49420000  0.35520000  1
  H  H29  1  0.88390000  0.99420000  0.14480000  1
  H  H30  1  0.86910000  0.90580000  0.34630000  1
  H  H31  1  0.86910000  0.40580000  0.15370000  1
  H  H32  1  0.85990000  0.45690000  0.93760000  1
  H  H33  1  0.85990000  0.95690000  0.56240000  1
  H  H34  1  0.80550000  0.54140000  0.87190000  1
  H  H35  1  0.80550000  0.04140000  0.62810000  1
  H  H36  1  0.76410000  0.08310000  0.43680000  1
  H  H37  1  0.76410000  0.58310000  0.06320000  1
  H  H38  1  0.76400000  0.53670000  0.30910000  1
  H  H39  1  0.76400000  0.03670000  0.19090000  1
  H  H40  1  0.72320000  0.69720000  0.37140000  1
  H  H41  1  0.72320000  0.19720000  0.12860000  1
  H  H42  1  0.71900000  0.66940000  0.99690000  1
  H  H43  1  0.71900000  0.16940000  0.50310000  1
  H  H44  1  0.71000000  0.83350000  0.49800000  1
  H  H45  1  0.71000000  0.33350000  0.00200000  1
  H  H46  1  0.70980000  0.19270000  0.97130000  1
  H  H47  1  0.70980000  0.69270000  0.52870000  1
  H  H48  1  0.70040000  0.35890000  0.37050000  1
  H  H49  1  0.70040000  0.85890000  0.12950000  1
  H  H50  1  0.68350000  0.29940000  0.27990000  1
  H  H51  1  0.68350000  0.79940000  0.22010000  1
  H  H52  1  0.59710000  0.11990000  0.27970000  1
  H  H53  1  0.59710000  0.61990000  0.22030000  1
  H  H54  1  0.57570000  0.67110000  0.41460000  1
  H  H55  1  0.57570000  0.17110000  0.08540000  1
  H  H56  1  0.55250000  0.90620000  0.76380000  1
  H  H57  1  0.55250000  0.40620000  0.73620000  1
  H  H58  1  0.44750000  0.59380000  0.26380000  1
  H  H59  1  0.44750000  0.09380000  0.23620000  1
  H  H60  1  0.42430000  0.82890000  0.91460000  1
  H  H61  1  0.42430000  0.32890000  0.58540000  1
  H  H62  1  0.40290000  0.38010000  0.77970000  1
  H  H63  1  0.40290000  0.88010000  0.72030000  1
  H  H64  1  0.31650000  0.20060000  0.77990000  1
  H  H65  1  0.31650000  0.70060000  0.72010000  1
  H  H66  1  0.29960000  0.14110000  0.87050000  1
  H  H67  1  0.29960000  0.64110000  0.62950000  1
  H  H68  1  0.29020000  0.30730000  0.47130000  1
  H  H69  1  0.29020000  0.80730000  0.02870000  1
  H  H70  1  0.29000000  0.66650000  0.99800000  1
  H  H71  1  0.29000000  0.16650000  0.50200000  1
  H  H72  1  0.28100000  0.83060000  0.49690000  1
  H  H73  1  0.28100000  0.33060000  0.00310000  1
  H  H74  1  0.27680000  0.80280000  0.87140000  1
  H  H75  1  0.27680000  0.30280000  0.62860000  1
  H  H76  1  0.23600000  0.96330000  0.80910000  1
  H  H77  1  0.23600000  0.46330000  0.69090000  1
  H  H78  1  0.23590000  0.41690000  0.93680000  1
  H  H79  1  0.23590000  0.91690000  0.56320000  1
  H  H80  1  0.19450000  0.95860000  0.37190000  1
  H  H81  1  0.19450000  0.45860000  0.12810000  1
  H  H82  1  0.14010000  0.04310000  0.43760000  1
  H  H83  1  0.14010000  0.54310000  0.06240000  1
  H  H84  1  0.13090000  0.59420000  0.84630000  1
  H  H85  1  0.13090000  0.09420000  0.65370000  1
  H  H86  1  0.11610000  0.00580000  0.85520000  1
  H  H87  1  0.11610000  0.50580000  0.64480000  1
  H  H88  1  0.10930000  0.31660000  0.81660000  1
  H  H89  1  0.10930000  0.81660000  0.68340000  1
  H  H90  1  0.08570000  0.24250000  0.90360000  1
  H  H91  1  0.08570000  0.74250000  0.59640000  1
  H  H92  1  0.08010000  0.18130000  0.37890000  1
  H  H93  1  0.08010000  0.68130000  0.12110000  1
  H  H94  1  0.06210000  0.73780000  0.33090000  1
  H  H95  1  0.06210000  0.23780000  0.16910000  1
  H  H96  1  0.05620000  0.71880000  0.78550000  1
  H  H97  1  0.05620000  0.21880000  0.71450000  1
  H  H98  1  0.03590000  0.77380000  0.95750000  1
  H  H99  1  0.03590000  0.27380000  0.54250000  1
  H  H100  1  0.03240000  0.38310000  0.94710000  1
  H  H101  1  0.03240000  0.88310000  0.55290000  1
  H  H102  1  0.02920000  0.63060000  0.93360000  1
  H  H103  1  0.02920000  0.13060000  0.56640000  1
  H  H104  1  0.01900000  0.53430000  0.77960000  1
  H  H105  1  0.01900000  0.03430000  0.72040000  1
  C  C106  1  0.99810000  0.80330000  0.82660000  1
  C  C107  1  0.99810000  0.30330000  0.67340000  1
  C  C108  1  0.98680000  0.61170000  0.34750000  1
  C  C109  1  0.98680000  0.11170000  0.15250000  1
  C  C110  1  0.97980000  0.99640000  0.31380000  1
  C  C111  1  0.97980000  0.49640000  0.18620000  1
  C  C112  1  0.97170000  0.08560000  0.41360000  1
  C  C113  1  0.97170000  0.58560000  0.08640000  1
  C  C114  1  0.96090000  0.37580000  0.87270000  1
  C  C115  1  0.96090000  0.87580000  0.62730000  1
  C  C116  1  0.95300000  0.42020000  0.82260000  1
  C  C117  1  0.95300000  0.92020000  0.67740000  1
  C  C118  1  0.93910000  0.91730000  0.87861000  1
  C  C119  1  0.93910000  0.41730000  0.62139000  1
  C  C120  1  0.93140000  0.72320000  0.29950000  1
  C  C121  1  0.93140000  0.22320000  0.20050000  1
  C  C122  1  0.91660000  0.83370000  0.45220000  1
  C  C123  1  0.91660000  0.33370000  0.04780000  1
  C  C124  1  0.91410000  0.96050000  0.35380000  1
  C  C125  1  0.91410000  0.46050000  0.14620000  1
  C  C126  1  0.91300000  0.74790000  0.46670000  1
  C  C127  1  0.91300000  0.24790000  0.03330000  1
  C  C128  1  0.91060000  0.00150000  0.40560000  1
  C  C129  1  0.91060000  0.50150000  0.09440000  1
  C  C130  1  0.89640000  0.55210000  0.34100000  1
  C  C131  1  0.89640000  0.05210000  0.15900000  1
  C  C132  1  0.87510000  0.38080000  0.77920000  1
  C  C133  1  0.87510000  0.88080000  0.72080000  1
  C  C134  1  0.86520000  0.26210000  0.37950000  1
  C  C135  1  0.86520000  0.76210000  0.12050000  1
  C  C136  1  0.85270000  0.21960000  0.32670000  1
  C  C137  1  0.85270000  0.71960000  0.17330000  1
  C  C138  1  0.84380000  0.86780000  0.46400000  1
  C  C139  1  0.84380000  0.36780000  0.03600000  1
  C  C140  1  0.84290000  0.66340000  0.29340000  1
  C  C141  1  0.84290000  0.16340000  0.20660000  1
  C  C142  1  0.83350000  0.69290000  0.49520000  1
  C  C143  1  0.83350000  0.19290000  0.00480000  1
  C  C144  1  0.83150000  0.10020000  0.98790000  1
  C  C145  1  0.83150000  0.60020000  0.51210000  1
  C  C146  1  0.82950000  0.49820000  0.95000000  1
  C  C147  1  0.82950000  0.99820000  0.55000000  1
  C  C148  1  0.82440000  0.57740000  0.31370000  1
  C  C149  1  0.82440000  0.07740000  0.18630000  1
  C  C150  1  0.81680000  0.35110000  0.45560000  1
  C  C151  1  0.81680000  0.85110000  0.04440000  1
  C  C152  1  0.81430000  0.00880000  0.49240000  1
  C  C153  1  0.81430000  0.50880000  0.00760000  1
  C  C154  1  0.80650000  0.31070000  0.39630000  1
  C  C155  1  0.80650000  0.81070000  0.10370000  1
  C  C156  1  0.79820000  0.55080000  0.91090000  1
  C  C157  1  0.79820000  0.05080000  0.58910000  1
  C  C158  1  0.78270000  0.23080000  0.28840000  1
  C  C159  1  0.78270000  0.73080000  0.21160000  1
  C  C160  1  0.77320000  0.07430000  0.47570000  1
  C  C161  1  0.77320000  0.57430000  0.02430000  1
  C  C162  1  0.76290000  0.81310000  0.49110000  1
  C  C163  1  0.76290000  0.31310000  0.00890000  1
  C  C164  1  0.76200000  0.22730000  0.99210000  1
  C  C165  1  0.76200000  0.72730000  0.50790000  1
  C  C166  1  0.75830000  0.61400000  0.92630000  1
  C  C167  1  0.75830000  0.11400000  0.57370000  1
  C  C168  1  0.74610000  0.62560000  0.98470000  1
  C  C169  1  0.74610000  0.12560000  0.51530000  1
  C  C170  1  0.73900000  0.32410000  0.35890000  1
  C  C171  1  0.73900000  0.82410000  0.14110000  1
  C  C172  1  0.73310000  0.67500000  0.88270000  1
  C  C173  1  0.73310000  0.17500000  0.61730000  1
  C  C174  1  0.72750000  0.28730000  0.30530000  1
  C  C175  1  0.72750000  0.78730000  0.19470000  1
  C  C176  1  0.67630000  0.66690000  0.29150000  1
  C  C177  1  0.67630000  0.16690000  0.20850000  1
  C  C178  1  0.66800000  0.67780000  0.34920000  1
  C  C179  1  0.66800000  0.17780000  0.15080000  1
  C  C180  1  0.59860000  0.88970000  0.87060000  1
  C  C181  1  0.59860000  0.38970000  0.62940000  1
  C  C182  1  0.59290000  0.63180000  0.25930000  1
  C  C183  1  0.59290000  0.13180000  0.24070000  1
  C  C184  1  0.57970000  0.66070000  0.37540000  1
  C  C185  1  0.57970000  0.16070000  0.12460000  1
  C  C186  1  0.50310000  0.61440000  0.28560000  1
  C  C187  1  0.50310000  0.11440000  0.21440000  1
  C  C188  1  0.50290000  0.87210000  0.84310000  1
  C  C189  1  0.50290000  0.37210000  0.65690000  1
  C  C190  1  0.49710000  0.62790000  0.34310000  1
  C  C191  1  0.49710000  0.12790000  0.15690000  1
  C  C192  1  0.49690000  0.88560000  0.78560000  1
  C  C193  1  0.49690000  0.38560000  0.71440000  1
  C  C194  1  0.42030000  0.83930000  0.87540000  1
  C  C195  1  0.42030000  0.33930000  0.62460000  1
  C  C196  1  0.40710000  0.86820000  0.75930000  1
  C  C197  1  0.40710000  0.36820000  0.74070000  1
  C  C198  1  0.40140000  0.61030000  0.37060000  1
  C  C199  1  0.40140000  0.11030000  0.12940000  1
  C  C200  1  0.33200000  0.82220000  0.84920000  1
  C  C201  1  0.33200000  0.32220000  0.65080000  1
  C  C202  1  0.32370000  0.83310000  0.79150000  1
  C  C203  1  0.32370000  0.33310000  0.70850000  1
  C  C204  1  0.27250000  0.21270000  0.80530000  1
  C  C205  1  0.27250000  0.71270000  0.69470000  1
  C  C206  1  0.26690000  0.82500000  0.38270000  1
  C  C207  1  0.26690000  0.32500000  0.11730000  1
  C  C208  1  0.26100000  0.17590000  0.85890000  1
  C  C209  1  0.26100000  0.67590000  0.64110000  1
  C  C210  1  0.25390000  0.87440000  0.48470000  1
  C  C211  1  0.25390000  0.37440000  0.01530000  1
  C  C212  1  0.24170000  0.88600000  0.42630000  1
  C  C213  1  0.24170000  0.38600000  0.07370000  1
  C  C214  1  0.23800000  0.27270000  0.49210000  1
  C  C215  1  0.23800000  0.77270000  0.00790000  1
  C  C216  1  0.23710000  0.68690000  0.99110000  1
  C  C217  1  0.23710000  0.18690000  0.50890000  1
  C  C218  1  0.22680000  0.42570000  0.97570000  1
  C  C219  1  0.22680000  0.92570000  0.52430000  1
  C  C220  1  0.21730000  0.26920000  0.78840000  1
  C  C221  1  0.21730000  0.76920000  0.71160000  1
  C  C222  1  0.20180000  0.94920000  0.41090000  1
  C  C223  1  0.20180000  0.44920000  0.08910000  1
  C  C224  1  0.19350000  0.18930000  0.89630000  1
  C  C225  1  0.19350000  0.68930000  0.60370000  1
  C  C226  1  0.18570000  0.49120000  0.99240000  1
  C  C227  1  0.18570000  0.99120000  0.50760000  1
  C  C228  1  0.18320000  0.14890000  0.95560000  1
  C  C229  1  0.18320000  0.64890000  0.54440000  1
  C  C230  1  0.17560000  0.92260000  0.81370000  1
  C  C231  1  0.17560000  0.42260000  0.68630000  1
  C  C232  1  0.17050000  0.00180000  0.45000000  1
  C  C233  1  0.17050000  0.50180000  0.05000000  1
  C  C234  1  0.16850000  0.39980000  0.48790000  1
  C  C235  1  0.16850000  0.89980000  0.01210000  1
  C  C236  1  0.16650000  0.80710000  0.99520000  1
  C  C237  1  0.16650000  0.30710000  0.50480000  1
  C  C238  1  0.15710000  0.83660000  0.79340000  1
  C  C239  1  0.15710000  0.33660000  0.70660000  1
  C  C240  1  0.15620000  0.63220000  0.96400000  1
  C  C241  1  0.15620000  0.13220000  0.53600000  1
  C  C242  1  0.14730000  0.28040000  0.82670000  1
  C  C243  1  0.14730000  0.78040000  0.67330000  1
  C  C244  1  0.13480000  0.23790000  0.87950000  1
  C  C245  1  0.13480000  0.73790000  0.62050000  1
  C  C246  1  0.12490000  0.11920000  0.27920000  1
  C  C247  1  0.12490000  0.61920000  0.22080000  1
  C  C248  1  0.10360000  0.94790000  0.84100000  1
  C  C249  1  0.10360000  0.44790000  0.65900000  1
  C  C250  1  0.08940000  0.49850000  0.90560000  1
  C  C251  1  0.08940000  0.99850000  0.59440000  1
  C  C252  1  0.08700000  0.75210000  0.96670000  1
  C  C253  1  0.08700000  0.25210000  0.53330000  1
  C  C254  1  0.08590000  0.53950000  0.85380000  1
  C  C255  1  0.08590000  0.03950000  0.64620000  1
  C  C256  1  0.08340000  0.66630000  0.95220000  1
  C  C257  1  0.08340000  0.16630000  0.54780000  1
  C  C258  1  0.06860000  0.77680000  0.79950000  1
  C  C259  1  0.06860000  0.27680000  0.70050000  1
  C  C260  1  0.06090000  0.58270000  0.37861000  1
  C  C261  1  0.06090000  0.08270000  0.12139000  1
  C  C262  1  0.04700000  0.07980000  0.32260000  1
  C  C263  1  0.04700000  0.57980000  0.17740000  1
  C  C264  1  0.03910000  0.12420000  0.37270000  1
  C  C265  1  0.03910000  0.62420000  0.12730000  1
  C  C266  1  0.02830000  0.41440000  0.91360000  1
  C  C267  1  0.02830000  0.91440000  0.58640000  1
  C  C268  1  0.02020000  0.50360000  0.81380000  1
  C  C269  1  0.02020000  0.00360000  0.68620000  1
  C  C270  1  0.01320000  0.88830000  0.84750000  1
  C  C271  1  0.01320000  0.38830000  0.65250000  1
  C  C272  1  0.00190000  0.69670000  0.32660000  1
  C  C273  1  0.00190000  0.19670000  0.17340000  1
  N  N274  1  0.84630000  0.95680000  0.44988000  1
  N  N275  1  0.84630000  0.45680000  0.05012000  1
  N  N276  1  0.76670000  0.68920000  0.26527000  1
  N  N277  1  0.76670000  0.18920000  0.23473000  1
  N  N278  1  0.23330000  0.81080000  0.76527000  1
  N  N279  1  0.23330000  0.31080000  0.73473000  1
  N  N280  1  0.15370000  0.54320000  0.94988000  1
  N  N281  1  0.15370000  0.04320000  0.55012000  1
  O  O282  1  0.95970000  0.98760000  0.90536000  1
  O  O283  1  0.95970000  0.48760000  0.59464000  1
  O  O284  1  0.89120000  0.36420000  0.48304000  1
  O  O285  1  0.89120000  0.86420000  0.01696000  1
  O  O286  1  0.88910000  0.56680000  0.48457000  1
  O  O287  1  0.88910000  0.06680000  0.01543000  1
  O  O288  1  0.85310000  0.86530000  0.87612000  1
  O  O289  1  0.85310000  0.36530000  0.62388000  1
  O  O290  1  0.85010000  0.93230000  0.75425000  1
  O  O291  1  0.85010000  0.43230000  0.74575000  1
  O  O292  1  0.83700000  0.29860000  0.77985000  1
  O  O293  1  0.83700000  0.79860000  0.72015000  1
  O  O294  1  0.77630000  0.06120000  0.94960000  1
  O  O295  1  0.77630000  0.56120000  0.55040000  1
  O  O296  1  0.76230000  0.67170000  0.83120000  1
  O  O297  1  0.76230000  0.17170000  0.66880000  1
  O  O298  1  0.74050000  0.36670000  0.47468000  1
  O  O299  1  0.74050000  0.86670000  0.02532000  1
  O  O300  1  0.68720000  0.72610000  0.89780000  1
  O  O301  1  0.68720000  0.22610000  0.60220000  1
  O  O302  1  0.67220000  0.90460000  0.84112000  1
  O  O303  1  0.67220000  0.40460000  0.65888000  1
  O  O304  1  0.60320000  0.88870000  0.92356000  1
  O  O305  1  0.60320000  0.38870000  0.57644000  1
  O  O306  1  0.39680000  0.61130000  0.42356000  1
  O  O307  1  0.39680000  0.11130000  0.07644000  1
  O  O308  1  0.32780000  0.59540000  0.34112000  1
  O  O309  1  0.32780000  0.09540000  0.15888000  1
  O  O310  1  0.31280000  0.77390000  0.39780000  1
  O  O311  1  0.31280000  0.27390000  0.10220000  1
  O  O312  1  0.25950000  0.13330000  0.97468000  1
  O  O313  1  0.25950000  0.63330000  0.52532000  1
  O  O314  1  0.23770000  0.82830000  0.33120000  1
  O  O315  1  0.23770000  0.32830000  0.16880000  1
  O  O316  1  0.22370000  0.43880000  0.44960000  1
  O  O317  1  0.22370000  0.93880000  0.05040000  1
  O  O318  1  0.16300000  0.20140000  0.27985000  1
  O  O319  1  0.16300000  0.70140000  0.22015000  1
  O  O320  1  0.14990000  0.56770000  0.25425000  1
  O  O321  1  0.14990000  0.06770000  0.24575000  1
  O  O322  1  0.14690000  0.63470000  0.37612000  1
  O  O323  1  0.14690000  0.13470000  0.12388000  1
  O  O324  1  0.11090000  0.93320000  0.98457000  1
  O  O325  1  0.11090000  0.43320000  0.51543000  1
  O  O326  1  0.10880000  0.13580000  0.98304000  1
  O  O327  1  0.10880000  0.63580000  0.51696000  1
  O  O328  1  0.04030000  0.51240000  0.40536000  1
  O  O329  1  0.04030000  0.01240000  0.09464000  1
