# generated using pymatgen
data_ZnSiH24C48N8(O4F3)2
_symmetry_space_group_name_H-M   'P 1'
_cell_length_a   7.47680000
_cell_length_b   19.73900000
_cell_length_c   19.73900000
_cell_angle_alpha   90.00000000
_cell_angle_beta   90.00000000
_cell_angle_gamma   90.00000000
_symmetry_Int_Tables_number   1
_chemical_formula_structural   ZnSiH24C48N8(O4F3)2
_chemical_formula_sum   'Zn1 Si1 H24 C48 N8 O8 F6'
_cell_volume   2913.17153509
_cell_formula_units_Z   1
loop_
 _symmetry_equiv_pos_site_id
 _symmetry_equiv_pos_as_xyz
  1  'x, y, z'
loop_
 _atom_site_type_symbol
 _atom_site_label
 _atom_site_symmetry_multiplicity
 _atom_site_fract_x
 _atom_site_fract_y
 _atom_site_fract_z
 _atom_site_occupancy
  Zn  Zn0  1  0.00000000  0.00000000  0.00000000  1
  Si  Si1  1  0.50000000  0.00000000  0.00000000  1
  H  H2  1  0.25630000  0.00000000  0.12050000  1
  H  H3  1  0.74370000  0.00000000  0.12050000  1
  H  H4  1  0.26460000  0.00000000  0.23690000  1
  H  H5  1  0.73540000  0.00000000  0.23690000  1
  H  H6  1  0.26460000  0.00000000  0.76310000  1
  H  H7  1  0.73540000  0.00000000  0.76310000  1
  H  H8  1  0.25630000  1.00000000  0.87950000  1
  H  H9  1  0.74370000  1.00000000  0.87950000  1
  H  H10  1  0.25630000  0.12050000  0.00000000  1
  H  H11  1  0.74370000  0.12050000  0.00000000  1
  H  H12  1  1.00000000  0.16290000  0.44040000  1
  H  H13  1  0.00000000  0.16290000  0.55960000  1
  H  H14  1  0.26460000  0.23690000  0.00000000  1
  H  H15  1  0.73540000  0.23690000  0.00000000  1
  H  H16  1  1.00000000  0.44040000  0.16290000  1
  H  H17  1  1.00000000  0.44040000  0.83710000  1
  H  H18  1  0.00000000  0.55960000  0.16290000  1
  H  H19  1  1.00000000  0.55960000  0.83710000  1
  H  H20  1  0.26460000  0.76310000  0.00000000  1
  H  H21  1  0.73540000  0.76310000  0.00000000  1
  H  H22  1  1.00000000  0.83710000  0.44040000  1
  H  H23  1  1.00000000  0.83710000  0.55960000  1
  H  H24  1  0.25630000  0.87950000  0.00000000  1
  H  H25  1  0.74370000  0.87950000  0.00000000  1
  C  C26  1  0.14620000  0.00000000  0.14450000  1
  C  C27  1  0.85380000  0.00000000  0.14450000  1
  C  C28  1  0.15280000  0.00000000  0.21410000  1
  C  C29  1  0.84720000  0.00000000  0.21410000  1
  C  C30  1  1.00000000  0.00000000  0.24910000  1
  C  C31  1  1.00000000  0.00000000  0.46430000  1
  C  C32  1  1.00000000  0.00000000  0.53570000  1
  C  C33  1  1.00000000  0.00000000  0.75090000  1
  C  C34  1  0.15280000  0.00000000  0.78590000  1
  C  C35  1  0.84720000  0.00000000  0.78590000  1
  C  C36  1  0.14620000  0.00000000  0.85550000  1
  C  C37  1  0.85380000  0.00000000  0.85550000  1
  C  C38  1  1.00000000  0.06250000  0.35460000  1
  C  C39  1  1.00000000  0.06250000  0.64540000  1
  C  C40  1  1.00000000  0.06280000  0.42970000  1
  C  C41  1  0.00000000  0.06280000  0.57030000  1
  C  C42  1  1.00000000  0.12110000  0.46420000  1
  C  C43  1  1.00000000  0.12110000  0.53580000  1
  C  C44  1  0.14620000  0.14450000  0.00000000  1
  C  C45  1  0.85380000  0.14450000  0.00000000  1
  C  C46  1  0.15280000  0.21410000  0.00000000  1
  C  C47  1  0.84720000  0.21410000  0.00000000  1
  C  C48  1  1.00000000  0.24910000  0.00000000  1
  C  C49  1  1.00000000  0.35460000  0.06250000  1
  C  C50  1  1.00000000  0.35460000  0.93750000  1
  C  C51  1  1.00000000  0.42970000  0.06280000  1
  C  C52  1  0.00000000  0.42970000  0.93720000  1
  C  C53  1  1.00000000  0.46420000  0.12110000  1
  C  C54  1  1.00000000  0.46420000  0.87890000  1
  C  C55  1  1.00000000  0.46430000  0.00000000  1
  C  C56  1  1.00000000  0.53570000  0.00000000  1
  C  C57  1  1.00000000  0.53580000  0.12110000  1
  C  C58  1  1.00000000  0.53580000  0.87890000  1
  C  C59  1  1.00000000  0.57030000  0.06280000  1
  C  C60  1  1.00000000  0.57030000  0.93720000  1
  C  C61  1  1.00000000  0.64540000  0.06250000  1
  C  C62  1  0.00000000  0.64540000  0.93750000  1
  C  C63  1  1.00000000  0.75090000  0.00000000  1
  C  C64  1  0.15280000  0.78590000  0.00000000  1
  C  C65  1  0.84720000  0.78590000  0.00000000  1
  C  C66  1  0.14620000  0.85550000  0.00000000  1
  C  C67  1  0.85380000  0.85550000  0.00000000  1
  C  C68  1  1.00000000  0.87890000  0.46420000  1
  C  C69  1  1.00000000  0.87890000  0.53580000  1
  C  C70  1  0.00000000  0.93720000  0.42970000  1
  C  C71  1  1.00000000  0.93720000  0.57030000  1
  C  C72  1  1.00000000  0.93750000  0.35460000  1
  C  C73  1  1.00000000  0.93750000  0.64540000  1
  N  N74  1  0.00000000  1.00000000  0.10960000  1
  N  N75  1  0.00000000  0.00000000  0.32260000  1
  N  N76  1  1.00000000  0.00000000  0.67740000  1
  N  N77  1  1.00000000  1.00000000  0.89040000  1
  N  N78  1  1.00000000  0.10960000  0.00000000  1
  N  N79  1  1.00000000  0.32260000  0.00000000  1
  N  N80  1  1.00000000  0.67740000  0.00000000  1
  N  N81  1  1.00000000  0.89040000  0.00000000  1
  O  O82  1  0.00000000  0.11490000  0.32170000  1
  O  O83  1  1.00000000  0.11490000  0.67830000  1
  O  O84  1  0.00000000  0.32170000  0.11490000  1
  O  O85  1  1.00000000  0.32170000  0.88510000  1
  O  O86  1  1.00000000  0.67830000  0.11490000  1
  O  O87  1  1.00000000  0.67830000  0.88510000  1
  O  O88  1  1.00000000  0.88510000  0.32170000  1
  O  O89  1  1.00000000  0.88510000  0.67830000  1
  F  F90  1  0.27150000  0.00000000  0.00000000  1
  F  F91  1  0.72850000  0.00000000  0.00000000  1
  F  F92  1  0.50000000  0.05982000  0.05982000  1
  F  F93  1  0.50000000  0.05982000  0.94018000  1
  F  F94  1  0.50000000  0.94018000  0.05982000  1
  F  F95  1  0.50000000  0.94018000  0.94018000  1
