# generated using pymatgen
data_ZnH12C18N2O3
_symmetry_space_group_name_H-M   'P 1'
_cell_length_a   5.06620000
_cell_length_b   19.09938710
_cell_length_c   19.09938710
_cell_angle_alpha   88.99211533
_cell_angle_beta   82.37856000
_cell_angle_gamma   82.37856000
_symmetry_Int_Tables_number   1
_chemical_formula_structural   ZnH12C18N2O3
_chemical_formula_sum   'Zn4 H48 C72 N8 O12'
_cell_volume   1815.57405347
_cell_formula_units_Z   4
loop_
 _symmetry_equiv_pos_site_id
 _symmetry_equiv_pos_as_xyz
  1  'x, y, z'
loop_
 _atom_site_type_symbol
 _atom_site_label
 _atom_site_symmetry_multiplicity
 _atom_site_fract_x
 _atom_site_fract_y
 _atom_site_fract_z
 _atom_site_occupancy
  C  C0  1  0.89920000  0.76620000  0.21680000  1
  C  C1  1  0.15135000  0.74566000  0.23044000  1
  C  C2  1  0.33020000  0.21380000  0.72240000  1
  C  C3  1  0.92963000  0.56810000  0.35864000  1
  C  C4  1  0.82190000  0.17370000  0.75070000  1
  C  C5  1  0.60186000  0.63088000  0.28660000  1
  C  C6  1  0.14296000  0.51834000  0.36454000  1
  C  C7  1  0.81567000  0.57743000  0.29383000  1
  C  C8  1  0.50411000  0.63639000  0.22259000  1
  C  C9  1  0.49250000  0.36454000  0.48166000  1
  C  C10  1  0.27030000  0.15480000  0.68920000  1
  C  C11  1  0.02988000  0.13333000  0.70571000  1
  C  C12  1  0.43276000  0.30707000  0.52621000  1
  C  C13  1  0.28798000  0.66255000  0.13009000  1
  C  C14  1  0.71173000  0.35864000  0.43190000  1
  C  C15  1  0.26017000  0.47379000  0.30707000  1
  C  C16  1  0.92907000  0.53115000  0.23551000  1
  C  C17  1  0.60386000  0.24404000  0.52004000  1
  C  C18  1  0.60732000  0.58984000  0.16632000  1
  C  C19  1  0.96579000  0.06872000  0.67090000  1
  C  C20  1  0.15210000  0.47996000  0.24404000  1
  C  C21  1  0.89050000  0.29383000  0.42257000  1
  C  C22  1  0.81933000  0.53777000  0.17117000  1
  C  C23  1  0.83542000  0.23551000  0.46885000  1
  C  C24  1  0.11154000  0.28660000  0.36912000  1
  C  C25  1  0.00950000  0.17117000  0.46223000  1
  C  C26  1  0.36331000  0.67090000  0.93128000  1
  C  C27  1  0.27330000  0.22259000  0.36361000  1
  C  C28  1  0.42740000  0.75070000  0.82630000  1
  C  C29  1  0.22636000  0.16632000  0.41016000  1
  C  C30  1  0.26441000  0.70571000  0.86667000  1
  C  C31  1  0.33460000  0.78320000  0.76620000  1
  C  C32  1  0.04050000  0.68920000  0.84520000  1
  C  C33  1  0.04947000  0.86991000  0.66255000  1
  C  C34  1  0.10299000  0.76956000  0.74566000  1
  C  C35  1  0.94740000  0.72240000  0.78620000  1
  C  C36  1  0.45600000  0.27760000  0.21380000  1
  C  C37  1  0.61821000  0.23044000  0.25434000  1
  C  C38  1  0.58193000  0.13009000  0.33745000  1
  C  C39  1  0.57490000  0.31080000  0.15480000  1
  C  C40  1  0.88400000  0.21680000  0.23380000  1
  C  C41  1  0.83679000  0.29429000  0.13333000  1
  C  C42  1  0.80284000  0.83368000  0.58984000  1
  C  C43  1  0.00440000  0.24930000  0.17370000  1
  C  C44  1  0.85950000  0.77741000  0.63639000  1
  C  C45  1  0.96549000  0.32910000  0.06872000  1
  C  C46  1  0.64290000  0.82883000  0.53777000  1
  C  C47  1  0.76726000  0.71340000  0.63088000  1
  C  C48  1  0.53978000  0.76449000  0.53115000  1
  C  C49  1  0.52827000  0.46223000  0.82883000  1
  C  C50  1  0.60690000  0.70617000  0.57743000  1
  C  C51  1  0.87610000  0.52004000  0.75596000  1
  C  C52  1  0.70541000  0.93128000  0.32910000  1
  C  C53  1  0.36348000  0.41016000  0.83368000  1
  C  C54  1  0.36794000  0.75596000  0.47996000  1
  C  C55  1  0.69573000  0.46885000  0.76449000  1
  C  C56  1  0.04103000  0.52621000  0.69293000  1
  C  C57  1  0.50227000  0.64136000  0.56810000  1
  C  C58  1  0.08062000  0.33745000  0.86991000  1
  C  C59  1  0.26604000  0.69293000  0.47379000  1
  C  C60  1  0.86892000  0.86667000  0.29429000  1
  C  C61  1  0.11430000  0.84520000  0.31080000  1
  C  C62  1  0.33870000  0.63546000  0.51834000  1
  C  C63  1  0.36309000  0.36361000  0.77741000  1
  C  C64  1  0.68693000  0.42257000  0.70617000  1
  C  C65  1  0.02584000  0.48166000  0.63546000  1
  C  C66  1  0.51934000  0.36912000  0.71340000  1
  C  C67  1  0.74630000  0.82630000  0.24930000  1
  C  C68  1  0.85637000  0.43190000  0.64136000  1
  C  C69  1  0.26640000  0.78620000  0.27760000  1
  C  C70  1  0.12745000  0.25434000  0.76956000  1
  C  C71  1  0.88220000  0.23380000  0.78320000  1
  H  H72  1  0.85490000  0.59720000  0.39800000  1
  H  H73  1  0.52760000  0.66210000  0.32450000  1
  H  H74  1  0.50580000  0.22710000  0.71370000  1
  H  H75  1  0.82350000  0.73980000  0.18480000  1
  H  H76  1  0.21500000  0.51330000  0.40810000  1
  H  H77  1  0.64620000  0.16040000  0.75860000  1
  H  H78  1  0.37690000  0.40810000  0.48670000  1
  H  H79  1  0.27630000  0.31170000  0.56010000  1
  H  H80  1  0.74710000  0.39800000  0.40280000  1
  H  H81  1  0.16470000  0.68570000  0.10110000  1
  H  H82  1  0.40000000  0.12990000  0.65490000  1
  H  H83  1  0.56550000  0.20580000  0.55060000  1
  H  H84  1  0.41200000  0.43990000  0.31170000  1
  H  H85  1  0.14790000  0.32450000  0.33790000  1
  H  H86  1  0.22870000  0.44940000  0.20580000  1
  H  H87  1  0.88960000  0.50730000  0.13250000  1
  H  H88  1  0.56760000  0.07517000  0.56183000  1
  H  H89  1  0.97790000  0.13250000  0.49270000  1
  H  H90  1  0.59520000  0.75860000  0.83960000  1
  H  H91  1  0.14960000  0.89890000  0.68570000  1
  H  H92  1  0.43670000  0.81520000  0.73980000  1
  H  H93  1  0.94510000  0.65490000  0.87010000  1
  H  H94  1  0.26710000  0.28630000  0.22710000  1
  H  H95  1  0.35723000  0.43817000  0.07517000  1
  H  H96  1  0.87057000  0.56183000  0.92483000  1
  H  H97  1  0.78050000  0.71370000  0.77290000  1
  H  H98  1  0.47010000  0.34510000  0.12990000  1
  H  H99  1  0.99170000  0.18480000  0.26020000  1
  H  H100  1  0.73420000  0.10110000  0.31430000  1
  H  H101  1  0.19340000  0.24140000  0.16040000  1
  H  H102  1  0.60310000  0.86750000  0.50730000  1
  H  H103  1  0.20460000  0.92483000  0.43817000  1
  H  H104  1  0.52940000  0.49270000  0.86750000  1
  H  H105  1  0.88390000  0.55060000  0.79420000  1
  H  H106  1  0.81030000  0.67550000  0.66210000  1
  H  H107  1  0.16360000  0.56010000  0.68830000  1
  H  H108  1  0.32190000  0.79420000  0.44940000  1
  H  H109  1  0.18480000  0.87010000  0.34510000  1
  H  H110  1  0.95150000  0.31430000  0.89890000  1
  H  H111  1  0.54790000  0.60200000  0.59720000  1
  H  H112  1  0.14810000  0.68830000  0.43990000  1
  H  H113  1  0.27170000  0.59190000  0.51330000  1
  H  H114  1  0.56520000  0.83960000  0.24140000  1
  H  H115  1  0.13640000  0.48670000  0.59190000  1
  H  H116  1  0.74810000  0.26020000  0.81520000  1
  H  H117  1  0.44660000  0.77290000  0.28630000  1
  H  H118  1  0.51420000  0.33790000  0.67550000  1
  H  H119  1  0.85010000  0.40280000  0.60200000  1
  N  N120  1  0.30071000  0.68302000  0.19716000  1
  N  N121  1  0.46288000  0.60767000  0.10937000  1
  N  N122  1  0.50213000  0.19716000  0.31698000  1
  N  N123  1  0.42775000  0.10937000  0.39233000  1
  N  N124  1  0.92945000  0.89063000  0.60767000  1
  N  N125  1  0.01627000  0.80284000  0.68302000  1
  N  N126  1  0.17992000  0.39233000  0.89063000  1
  N  N127  1  0.18089000  0.31698000  0.80284000  1
  O  O128  1  0.72090000  0.05180000  0.68520000  1
  O  O129  1  0.09444000  0.05121000  0.61211000  1
  O  O130  1  0.59390000  0.68520000  0.94820000  1
  O  O131  1  0.60495000  0.03035000  0.53195000  1
  O  O132  1  0.29345000  0.61211000  0.94879000  1
  O  O133  1  0.86310000  0.53195000  0.96965000  1
  O  O134  1  0.36470000  0.46805000  0.03035000  1
  O  O135  1  0.85435000  0.38789000  0.05121000  1
  O  O136  1  0.16725000  0.96965000  0.46805000  1
  O  O137  1  0.22730000  0.31480000  0.05180000  1
  O  O138  1  0.75776000  0.94879000  0.38789000  1
  O  O139  1  0.45790000  0.94820000  0.31480000  1
  Zn  Zn140  1  0.50479000  0.55770000  0.01614000  1
  Zn  Zn141  1  0.93751000  0.98386000  0.55770000  1
  Zn  Zn142  1  0.47907000  0.01614000  0.44230000  1
  Zn  Zn143  1  0.07863000  0.44230000  0.98386000  1
