# generated using pymatgen
data_CoH4C12NO3F4
_symmetry_space_group_name_H-M   'P 1'
_cell_length_a   6.40180000
_cell_length_b   8.99090000
_cell_length_c   26.27100000
_cell_angle_alpha   90.00000000
_cell_angle_beta   90.00000000
_cell_angle_gamma   90.00000000
_symmetry_Int_Tables_number   1
_chemical_formula_structural   CoH4C12NO3F4
_chemical_formula_sum   'Co4 H16 C48 N4 O12 F16'
_cell_volume   1512.10473684
_cell_formula_units_Z   4
loop_
 _symmetry_equiv_pos_site_id
 _symmetry_equiv_pos_as_xyz
  1  'x, y, z'
loop_
 _atom_site_type_symbol
 _atom_site_label
 _atom_site_symmetry_multiplicity
 _atom_site_fract_x
 _atom_site_fract_y
 _atom_site_fract_z
 _atom_site_occupancy
  Co  Co0  1  0.00000000  0.00000000  0.28523000  1
  Co  Co1  1  0.00000000  0.00000000  0.71477000  1
  Co  Co2  1  0.50000000  0.00000000  0.21477000  1
  Co  Co3  1  0.50000000  0.00000000  0.78523000  1
  H  H4  1  0.24560000  0.12330000  0.37350000  1
  H  H5  1  0.24560000  0.12330000  0.62650000  1
  H  H6  1  0.24790000  0.12800000  0.03940000  1
  H  H7  1  0.24790000  0.12800000  0.96060000  1
  H  H8  1  0.25210000  0.12800000  0.46060000  1
  H  H9  1  0.25210000  0.12800000  0.53940000  1
  H  H10  1  0.25440000  0.12330000  0.12650000  1
  H  H11  1  0.25440000  0.12330000  0.87350000  1
  H  H12  1  0.74560000  0.87670000  0.12650000  1
  H  H13  1  0.74560000  0.87670000  0.87350000  1
  H  H14  1  0.74790000  0.87200000  0.46060000  1
  H  H15  1  0.74790000  0.87200000  0.53940000  1
  H  H16  1  0.75210000  0.87200000  0.03940000  1
  H  H17  1  0.75210000  0.87200000  0.96060000  1
  H  H18  1  0.75440000  0.87670000  0.37350000  1
  H  H19  1  0.75440000  0.87670000  0.62650000  1
  C  C20  1  0.00000000  0.00000000  0.47130000  1
  C  C21  1  0.00000000  0.00000000  0.52870000  1
  C  C22  1  0.14280000  0.07190000  0.39130000  1
  C  C23  1  0.14280000  0.07190000  0.60870000  1
  C  C24  1  0.14810000  0.07500000  0.44390000  1
  C  C25  1  0.14810000  0.07500000  0.55610000  1
  C  C26  1  0.23950000  0.66280000  0.20590000  1
  C  C27  1  0.23950000  0.66280000  0.79410000  1
  C  C28  1  0.24370000  0.50840000  0.20599000  1
  C  C29  1  0.24370000  0.50840000  0.79401000  1
  C  C30  1  0.25000000  0.25830000  0.25000000  1
  C  C31  1  0.25000000  0.25830000  0.75000000  1
  C  C32  1  0.25000000  0.42690000  0.25000000  1
  C  C33  1  0.25000000  0.42690000  0.75000000  1
  C  C34  1  0.25000000  0.74400000  0.25000000  1
  C  C35  1  0.25000000  0.74400000  0.75000000  1
  C  C36  1  0.25630000  0.50840000  0.29401000  1
  C  C37  1  0.25630000  0.50840000  0.70599000  1
  C  C38  1  0.26050000  0.66280000  0.29410000  1
  C  C39  1  0.26050000  0.66280000  0.70590000  1
  C  C40  1  0.35190000  0.07500000  0.05610000  1
  C  C41  1  0.35190000  0.07500000  0.94390000  1
  C  C42  1  0.35720000  0.07190000  0.10870000  1
  C  C43  1  0.35720000  0.07190000  0.89130000  1
  C  C44  1  0.50000000  0.00000000  0.02870000  1
  C  C45  1  0.50000000  0.00000000  0.97130000  1
  C  C46  1  0.64280000  0.92810000  0.10870000  1
  C  C47  1  0.64280000  0.92810000  0.89130000  1
  C  C48  1  0.64810000  0.92500000  0.05610000  1
  C  C49  1  0.64810000  0.92500000  0.94390000  1
  C  C50  1  0.73950000  0.33720000  0.29410000  1
  C  C51  1  0.73950000  0.33720000  0.70590000  1
  C  C52  1  0.74370000  0.49160000  0.29401000  1
  C  C53  1  0.74370000  0.49160000  0.70599000  1
  C  C54  1  0.75000000  0.25600000  0.25000000  1
  C  C55  1  0.75000000  0.25600000  0.75000000  1
  C  C56  1  0.75000000  0.57310000  0.25000000  1
  C  C57  1  0.75000000  0.57310000  0.75000000  1
  C  C58  1  0.75000000  0.74170000  0.25000000  1
  C  C59  1  0.75000000  0.74170000  0.75000000  1
  C  C60  1  0.75630000  0.49160000  0.20599000  1
  C  C61  1  0.75630000  0.49160000  0.79401000  1
  C  C62  1  0.76050000  0.33720000  0.20590000  1
  C  C63  1  0.76050000  0.33720000  0.79410000  1
  C  C64  1  0.85190000  0.92500000  0.44390000  1
  C  C65  1  0.85190000  0.92500000  0.55610000  1
  C  C66  1  0.85720000  0.92810000  0.39130000  1
  C  C67  1  0.85720000  0.92810000  0.60870000  1
  N  N68  1  0.00000000  0.00000000  0.36500000  1
  N  N69  1  0.00000000  0.00000000  0.63500000  1
  N  N70  1  0.50000000  0.00000000  0.13500000  1
  N  N71  1  0.50000000  0.00000000  0.86500000  1
  O  O72  1  0.16380000  0.19580000  0.28692000  1
  O  O73  1  0.16380000  0.19580000  0.71308000  1
  O  O74  1  0.25000000  0.89490000  0.25000000  1
  O  O75  1  0.25000000  0.89490000  0.75000000  1
  O  O76  1  0.33620000  0.19580000  0.21308000  1
  O  O77  1  0.33620000  0.19580000  0.78692000  1
  O  O78  1  0.66380000  0.80420000  0.21308000  1
  O  O79  1  0.66380000  0.80420000  0.78692000  1
  O  O80  1  0.75000000  0.10510000  0.25000000  1
  O  O81  1  0.75000000  0.10510000  0.75000000  1
  O  O82  1  0.83620000  0.80420000  0.28692000  1
  O  O83  1  0.83620000  0.80420000  0.71308000  1
  F  F84  1  0.22720000  0.73460000  0.16077000  1
  F  F85  1  0.22720000  0.73460000  0.83923000  1
  F  F86  1  0.23400000  0.44120000  0.15987000  1
  F  F87  1  0.23400000  0.44120000  0.84013000  1
  F  F88  1  0.26600000  0.44120000  0.34013000  1
  F  F89  1  0.26600000  0.44120000  0.65987000  1
  F  F90  1  0.27280000  0.73460000  0.33923000  1
  F  F91  1  0.27280000  0.73460000  0.66077000  1
  F  F92  1  0.72720000  0.26540000  0.33923000  1
  F  F93  1  0.72720000  0.26540000  0.66077000  1
  F  F94  1  0.73400000  0.55880000  0.34013000  1
  F  F95  1  0.73400000  0.55880000  0.65987000  1
  F  F96  1  0.76600000  0.55880000  0.15987000  1
  F  F97  1  0.76600000  0.55880000  0.84013000  1
  F  F98  1  0.77280000  0.26540000  0.16077000  1
  F  F99  1  0.77280000  0.26540000  0.83923000  1
