# generated using pymatgen
data_AgH12(C3N)6
_symmetry_space_group_name_H-M   'P 1'
_cell_length_a   13.73980737
_cell_length_b   13.73980737
_cell_length_c   24.55421237
_cell_angle_alpha   101.64357749
_cell_angle_beta   101.31890861
_cell_angle_gamma   106.77262302
_symmetry_Int_Tables_number   1
_chemical_formula_structural   AgH12(C3N)6
_chemical_formula_sum   'Ag8 H96 C144 N48'
_cell_volume   4183.71234234
_cell_formula_units_Z   8
loop_
 _symmetry_equiv_pos_site_id
 _symmetry_equiv_pos_as_xyz
  1  'x, y, z'
loop_
 _atom_site_type_symbol
 _atom_site_label
 _atom_site_symmetry_multiplicity
 _atom_site_fract_x
 _atom_site_fract_y
 _atom_site_fract_z
 _atom_site_occupancy
  Ag  Ag0  1  0.61359000  0.43396000  0.13209000  1
  Ag  Ag1  1  0.69813000  0.01850000  0.63209000  1
  Ag  Ag2  1  0.42483000  0.20343000  0.13272000  1
  Ag  Ag3  1  0.92929000  0.20789000  0.63272000  1
  Ag  Ag4  1  0.57517000  0.79657000  0.86728000  1
  Ag  Ag5  1  0.07071000  0.79211000  0.36728000  1
  Ag  Ag6  1  0.38641000  0.56604000  0.86791000  1
  Ag  Ag7  1  0.30187000  0.98150000  0.36791000  1
  C  C8  1  0.07560000  0.47810000  0.40710000  1
  C  C9  1  0.92900000  0.83150000  0.90710000  1
  C  C10  1  0.11990000  0.60950000  0.49640000  1
  C  C11  1  0.88690000  0.87650000  0.99640000  1
  C  C12  1  0.36170000  0.80910000  0.49980000  1
  C  C13  1  0.69070000  0.63810000  0.99980000  1
  C  C14  1  0.38110000  0.44410000  0.11580000  1
  C  C15  1  0.67170000  0.23470000  0.61580000  1
  C  C16  1  0.40850000  0.37300000  0.03050000  1
  C  C17  1  0.65750000  0.12200000  0.53050000  1
  C  C18  1  0.10680000  0.50730000  0.46690000  1
  C  C19  1  0.95960000  0.86010000  0.96690000  1
  C  C20  1  0.34550000  0.69000000  0.41110000  1
  C  C21  1  0.72110000  0.56560000  0.91110000  1
  C  C22  1  0.17320000  0.18110000  0.12030000  1
  C  C23  1  0.93920000  0.44710000  0.62030000  1
  C  C24  1  0.21330000  0.13570000  0.03520000  1
  C  C25  1  0.89950000  0.32190000  0.53520000  1
  C  C26  1  0.36240000  0.71250000  0.47010000  1
  C  C27  1  0.75760000  0.60770000  0.97010000  1
  C  C28  1  0.12790000  0.43360000  0.50090000  1
  C  C29  1  0.06730000  0.87300000  0.00090000  1
  C  C30  1  0.38130000  0.63580000  0.50250000  1
  C  C31  1  0.86670000  0.62120000  0.00250000  1
  C  C32  1  0.46410000  0.37720000  0.25570000  1
  C  C33  1  0.87850000  0.29160000  0.75570000  1
  C  C34  1  0.63350000  0.81090000  0.52600000  1
  C  C35  1  0.71510000  0.39250000  0.02600000  1
  C  C36  1  0.22300000  0.54610000  0.68150000  1
  C  C37  1  0.13540000  0.95850000  0.18150000  1
  C  C38  1  0.18220000  0.90990000  0.08810000  1
  C  C39  1  0.17820000  0.40590000  0.58810000  1
  C  C40  1  0.23420000  0.87630000  0.00670000  1
  C  C41  1  0.13040000  0.27250000  0.50670000  1
  C  C42  1  0.29550000  0.84190000  0.91860000  1
  C  C43  1  0.07670000  0.12310000  0.41860000  1
  C  C44  1  0.51210000  0.14910000  0.02040000  1
  C  C45  1  0.87130000  0.00830000  0.52040000  1
  C  C46  1  0.68780000  0.05970000  0.75730000  1
  C  C47  1  0.69760000  0.56950000  0.25730000  1
  C  C48  1  0.50030000  0.41990000  0.31500000  1
  C  C49  1  0.89510000  0.31470000  0.81500000  1
  C  C50  1  0.61770000  0.70860000  0.49510000  1
  C  C51  1  0.78650000  0.37740000  0.99510000  1
  C  C52  1  0.31400000  0.32160000  0.41500000  1
  C  C53  1  0.09340000  0.60100000  0.91500000  1
  C  C54  1  0.37800000  0.47200000  0.50520000  1
  C  C55  1  0.03320000  0.62720000  0.00520000  1
  C  C56  1  0.43700000  0.60480000  0.58760000  1
  C  C57  1  0.98280000  0.65060000  0.08760000  1
  C  C58  1  0.26500000  0.58110000  0.74030000  1
  C  C59  1  0.15920000  0.97530000  0.24030000  1
  C  C60  1  0.21990000  0.44720000  0.65190000  1
  C  C61  1  0.20470000  0.93200000  0.15190000  1
  C  C62  1  0.31680000  0.86350000  0.97750000  1
  C  C63  1  0.11400000  0.16070000  0.47750000  1
  C  C64  1  0.50510000  0.75160000  0.67810000  1
  C  C65  1  0.92650000  0.67300000  0.17810000  1
  C  C66  1  0.37170000  0.82450000  0.89220000  1
  C  C67  1  0.06770000  0.02050000  0.39220000  1
  C  C68  1  0.70510000  0.07790000  0.81660000  1
  C  C69  1  0.73870000  0.61150000  0.31660000  1
  C  C70  1  0.58430000  0.13100000  0.99070000  1
  C  C71  1  0.85970000  0.90640000  0.49070000  1
  C  C72  1  0.29960000  0.21810000  0.38830000  1
  C  C73  1  0.17020000  0.58870000  0.88830000  1
  C  C74  1  0.35670000  0.35970000  0.47460000  1
  C  C75  1  0.11490000  0.61790000  0.97460000  1
  C  C76  1  0.48100000  0.64580000  0.65140000  1
  C  C77  1  0.00560000  0.67040000  0.15140000  1
  C  C78  1  0.54110000  0.78690000  0.73740000  1
  C  C79  1  0.95050000  0.69630000  0.23740000  1
  C  C80  1  0.45890000  0.21310000  0.26260000  1
  C  C81  1  0.04950000  0.30370000  0.76260000  1
  C  C82  1  0.51900000  0.35420000  0.34860000  1
  C  C83  1  0.99440000  0.32960000  0.84860000  1
  C  C84  1  0.64330000  0.64030000  0.52540000  1
  C  C85  1  0.88510000  0.38210000  0.02540000  1
  C  C86  1  0.70040000  0.78190000  0.61170000  1
  C  C87  1  0.82980000  0.41130000  0.11170000  1
  C  C88  1  0.41570000  0.86900000  0.00930000  1
  C  C89  1  0.14030000  0.09360000  0.50930000  1
  C  C90  1  0.29490000  0.92210000  0.18340000  1
  C  C91  1  0.26130000  0.38850000  0.68340000  1
  C  C92  1  0.62830000  0.17550000  0.10780000  1
  C  C93  1  0.93230000  0.97950000  0.60780000  1
  C  C94  1  0.49490000  0.24840000  0.32190000  1
  C  C95  1  0.07350000  0.32700000  0.82190000  1
  C  C96  1  0.68320000  0.13650000  0.02250000  1
  C  C97  1  0.88600000  0.83930000  0.52250000  1
  C  C98  1  0.78010000  0.55280000  0.34810000  1
  C  C99  1  0.79530000  0.06800000  0.84810000  1
  C  C100  1  0.73500000  0.41890000  0.25970000  1
  C  C101  1  0.84080000  0.02470000  0.75970000  1
  C  C102  1  0.56300000  0.39520000  0.41240000  1
  C  C103  1  0.01720000  0.34940000  0.91240000  1
  C  C104  1  0.62200000  0.52800000  0.49480000  1
  C  C105  1  0.96680000  0.37280000  0.99480000  1
  C  C106  1  0.68600000  0.67840000  0.58500000  1
  C  C107  1  0.90660000  0.39900000  0.08500000  1
  C  C108  1  0.38230000  0.29140000  0.50490000  1
  C  C109  1  0.21350000  0.62260000  0.00490000  1
  C  C110  1  0.49970000  0.58010000  0.68500000  1
  C  C111  1  0.10490000  0.68530000  0.18500000  1
  C  C112  1  0.31220000  0.94030000  0.24270000  1
  C  C113  1  0.30240000  0.43050000  0.74270000  1
  C  C114  1  0.48790000  0.85090000  0.97960000  1
  C  C115  1  0.12870000  0.99170000  0.47960000  1
  C  C116  1  0.70450000  0.15810000  0.08140000  1
  C  C117  1  0.92330000  0.87690000  0.58140000  1
  C  C118  1  0.76580000  0.12370000  0.99330000  1
  C  C119  1  0.86960000  0.72750000  0.49330000  1
  C  C120  1  0.81780000  0.09010000  0.91190000  1
  C  C121  1  0.82180000  0.59410000  0.41190000  1
  C  C122  1  0.77700000  0.45390000  0.31850000  1
  C  C123  1  0.86460000  0.04150000  0.81850000  1
  C  C124  1  0.36650000  0.18910000  0.47400000  1
  C  C125  1  0.28490000  0.60750000  0.97400000  1
  C  C126  1  0.53590000  0.62280000  0.74430000  1
  C  C127  1  0.12150000  0.70840000  0.24430000  1
  C  C128  1  0.61870000  0.36420000  0.49750000  1
  C  C129  1  0.13330000  0.37880000  0.99750000  1
  C  C130  1  0.87210000  0.56640000  0.49910000  1
  C  C131  1  0.93270000  0.12700000  0.99910000  1
  C  C132  1  0.63760000  0.28750000  0.52990000  1
  C  C133  1  0.24240000  0.39230000  0.02990000  1
  C  C134  1  0.78670000  0.86430000  0.96480000  1
  C  C135  1  0.10050000  0.67810000  0.46480000  1
  C  C136  1  0.82680000  0.81890000  0.87970000  1
  C  C137  1  0.06080000  0.55290000  0.37970000  1
  C  C138  1  0.65450000  0.31000000  0.58890000  1
  C  C139  1  0.27890000  0.43440000  0.08890000  1
  C  C140  1  0.89320000  0.49270000  0.53310000  1
  C  C141  1  0.04040000  0.13990000  0.03310000  1
  C  C142  1  0.59150000  0.62700000  0.96950000  1
  C  C143  1  0.34250000  0.87800000  0.46950000  1
  C  C144  1  0.61890000  0.55590000  0.88420000  1
  C  C145  1  0.32830000  0.76530000  0.38420000  1
  C  C146  1  0.63830000  0.19090000  0.50020000  1
  C  C147  1  0.30930000  0.36190000  0.00020000  1
  C  C148  1  0.88010000  0.39050000  0.50360000  1
  C  C149  1  0.11310000  0.12350000  0.00360000  1
  C  C150  1  0.92440000  0.52190000  0.59290000  1
  C  C151  1  0.07100000  0.16850000  0.09290000  1
  H  H152  1  0.06480000  0.40980000  0.38600000  1
  H  H153  1  0.97620000  0.82120000  0.88600000  1
  H  H154  1  0.14120000  0.63160000  0.53660000  1
  H  H155  1  0.90500000  0.89540000  0.03660000  1
  H  H156  1  0.37420000  0.82690000  0.53970000  1
  H  H157  1  0.71280000  0.66550000  0.03970000  1
  H  H158  1  0.40630000  0.47450000  0.15560000  1
  H  H159  1  0.68110000  0.24930000  0.65560000  1
  H  H160  1  0.34560000  0.62590000  0.38990000  1
  H  H161  1  0.76400000  0.54430000  0.88990000  1
  H  H162  1  0.45260000  0.35190000  0.01010000  1
  H  H163  1  0.65820000  0.05750000  0.51010000  1
  H  H164  1  0.19410000  0.20260000  0.16050000  1
  H  H165  1  0.95790000  0.46640000  0.66050000  1
  H  H166  1  0.26130000  0.12330000  0.01520000  1
  H  H167  1  0.89190000  0.25390000  0.51520000  1
  H  H168  1  0.45200000  0.42140000  0.23300000  1
  H  H169  1  0.81160000  0.28100000  0.73300000  1
  H  H170  1  0.61460000  0.85590000  0.50570000  1
  H  H171  1  0.64980000  0.39110000  0.00570000  1
  H  H172  1  0.19690000  0.58810000  0.66160000  1
  H  H173  1  0.07350000  0.96470000  0.16160000  1
  H  H174  1  0.23080000  0.83900000  0.89660000  1
  H  H175  1  0.05760000  0.16580000  0.39660000  1
  H  H176  1  0.62700000  0.06670000  0.73650000  1
  H  H177  1  0.66980000  0.60950000  0.23650000  1
  H  H178  1  0.44640000  0.14550000  0.99930000  1
  H  H179  1  0.85380000  0.05290000  0.49930000  1
  H  H180  1  0.29540000  0.36520000  0.39360000  1
  H  H181  1  0.02840000  0.59820000  0.89360000  1
  H  H182  1  0.51170000  0.49070000  0.33180000  1
  H  H183  1  0.84110000  0.32010000  0.83180000  1
  H  H184  1  0.49730000  0.79820000  0.65630000  1
  H  H185  1  0.85810000  0.65900000  0.15630000  1
  H  H186  1  0.59070000  0.68640000  0.45510000  1
  H  H187  1  0.76870000  0.36440000  0.95510000  1
  H  H188  1  0.26590000  0.64720000  0.75950000  1
  H  H189  1  0.11230000  0.99360000  0.25950000  1
  H  H190  1  0.65720000  0.09640000  0.83480000  1
  H  H191  1  0.73840000  0.67760000  0.33480000  1
  H  H192  1  0.35620000  0.80930000  0.85210000  1
  H  H193  1  0.04280000  0.99590000  0.35210000  1
  H  H194  1  0.56730000  0.11580000  0.95070000  1
  H  H195  1  0.83490000  0.88340000  0.45070000  1
  H  H196  1  0.27020000  0.19310000  0.34850000  1
  H  H197  1  0.15540000  0.57830000  0.84850000  1
  H  H198  1  0.55680000  0.85820000  0.75500000  1
  H  H199  1  0.89680000  0.69820000  0.25500000  1
  H  H200  1  0.44320000  0.14180000  0.24500000  1
  H  H201  1  0.10320000  0.30180000  0.74500000  1
  H  H202  1  0.72980000  0.80690000  0.65150000  1
  H  H203  1  0.84460000  0.42170000  0.15150000  1
  H  H204  1  0.43270000  0.88420000  0.04930000  1
  H  H205  1  0.16510000  0.11660000  0.54930000  1
  H  H206  1  0.64380000  0.19070000  0.14790000  1
  H  H207  1  0.95720000  0.00410000  0.64790000  1
  H  H208  1  0.34280000  0.90360000  0.16520000  1
  H  H209  1  0.26160000  0.32240000  0.66520000  1
  H  H210  1  0.73410000  0.35280000  0.24050000  1
  H  H211  1  0.88770000  0.00640000  0.74050000  1
  H  H212  1  0.40930000  0.31360000  0.54490000  1
  H  H213  1  0.23130000  0.63560000  0.04490000  1
  H  H214  1  0.50270000  0.20180000  0.34370000  1
  H  H215  1  0.14190000  0.34100000  0.84370000  1
  H  H216  1  0.48830000  0.50930000  0.66820000  1
  H  H217  1  0.15890000  0.67990000  0.16820000  1
  H  H218  1  0.70460000  0.63480000  0.60640000  1
  H  H219  1  0.97160000  0.40180000  0.10640000  1
  H  H220  1  0.55360000  0.85450000  0.00070000  1
  H  H221  1  0.14620000  0.94710000  0.50070000  1
  H  H222  1  0.37300000  0.93330000  0.26350000  1
  H  H223  1  0.33020000  0.39050000  0.76350000  1
  H  H224  1  0.76920000  0.16100000  0.10340000  1
  H  H225  1  0.94240000  0.83420000  0.60340000  1
  H  H226  1  0.80310000  0.41190000  0.33840000  1
  H  H227  1  0.92650000  0.03530000  0.83840000  1
  H  H228  1  0.38540000  0.14410000  0.49430000  1
  H  H229  1  0.35020000  0.60890000  0.99430000  1
  H  H230  1  0.54800000  0.57860000  0.76700000  1
  H  H231  1  0.18840000  0.71900000  0.26700000  1
  H  H232  1  0.73870000  0.87670000  0.98480000  1
  H  H233  1  0.10810000  0.74610000  0.48480000  1
  H  H234  1  0.80590000  0.79740000  0.83950000  1
  H  H235  1  0.04210000  0.53360000  0.33950000  1
  H  H236  1  0.54740000  0.64810000  0.98990000  1
  H  H237  1  0.34180000  0.94250000  0.48990000  1
  H  H238  1  0.65440000  0.37410000  0.61010000  1
  H  H239  1  0.23600000  0.45570000  0.11010000  1
  H  H240  1  0.59370000  0.52550000  0.84440000  1
  H  H241  1  0.31890000  0.75070000  0.34440000  1
  H  H242  1  0.62580000  0.17310000  0.46030000  1
  H  H243  1  0.28720000  0.33450000  0.96030000  1
  H  H244  1  0.85880000  0.36840000  0.46340000  1
  H  H245  1  0.09500000  0.10460000  0.96340000  1
  H  H246  1  0.93520000  0.59020000  0.61400000  1
  H  H247  1  0.02380000  0.17880000  0.11400000  1
  N  N248  1  0.44559000  0.41252000  0.08791000  1
  N  N249  1  0.67539000  0.14232000  0.58791000  1
  N  N250  1  0.24434000  0.16418000  0.09272000  1
  N  N251  1  0.92854000  0.34838000  0.59272000  1
  N  N252  1  0.16016000  0.47325000  0.55861000  1
  N  N253  1  0.08536000  0.89845000  0.05861000  1
  N  N254  1  0.13761000  0.85819000  0.97300000  1
  N  N255  1  0.11481000  0.33539000  0.47300000  1
  N  N256  1  0.35806000  0.53476000  0.47242000  1
  N  N257  1  0.93766000  0.61436000  0.97242000  1
  N  N258  1  0.42104000  0.67395000  0.55939000  1
  N  N259  1  0.88544000  0.63835000  0.05939000  1
  N  N260  1  0.44560000  0.27600000  0.22900000  1
  N  N261  1  0.95300000  0.28340000  0.72900000  1
  N  N262  1  0.67422000  0.84848000  0.58330000  1
  N  N263  1  0.73482000  0.40908000  0.08330000  1
  N  N264  1  0.26119000  0.90276000  0.06475000  1
  N  N265  1  0.16199000  0.30356000  0.56475000  1
  N  N266  1  0.53270000  0.17166000  0.07836000  1
  N  N267  1  0.90670000  0.04566000  0.57836000  1
  N  N268  1  0.69530000  0.47541000  0.22831000  1
  N  N269  1  0.75290000  0.03301000  0.72831000  1
  N  N270  1  0.41624000  0.50258000  0.56282000  1
  N  N271  1  0.06024000  0.64658000  0.06282000  1
  N  N272  1  0.58376000  0.49742000  0.43718000  1
  N  N273  1  0.93976000  0.35342000  0.93718000  1
  N  N274  1  0.30470000  0.52459000  0.77169000  1
  N  N275  1  0.24710000  0.96699000  0.27169000  1
  N  N276  1  0.46730000  0.82834000  0.92164000  1
  N  N277  1  0.09330000  0.95434000  0.42164000  1
  N  N278  1  0.73881000  0.09724000  0.93525000  1
  N  N279  1  0.83801000  0.69644000  0.43525000  1
  N  N280  1  0.32578000  0.15152000  0.41670000  1
  N  N281  1  0.26518000  0.59092000  0.91670000  1
  N  N282  1  0.55440000  0.72400000  0.77100000  1
  N  N283  1  0.04700000  0.71660000  0.27100000  1
  N  N284  1  0.57896000  0.32605000  0.44061000  1
  N  N285  1  0.11456000  0.36165000  0.94061000  1
  N  N286  1  0.64194000  0.46524000  0.52758000  1
  N  N287  1  0.06234000  0.38564000  0.02758000  1
  N  N288  1  0.86239000  0.14181000  0.02700000  1
  N  N289  1  0.88519000  0.66461000  0.52700000  1
  N  N290  1  0.83984000  0.52675000  0.44139000  1
  N  N291  1  0.91464000  0.10155000  0.94139000  1
  N  N292  1  0.75566000  0.83582000  0.90728000  1
  N  N293  1  0.07146000  0.65162000  0.40728000  1
  N  N294  1  0.55441000  0.58748000  0.91209000  1
  N  N295  1  0.32461000  0.85768000  0.41209000  1
