# generated using pymatgen
data_CuH12(C8O3)2
_symmetry_space_group_name_H-M   'P 1'
_cell_length_a   6.70520000
_cell_length_b   27.08600000
_cell_length_c   27.08600000
_cell_angle_alpha   90.00000000
_cell_angle_beta   90.00000000
_cell_angle_gamma   90.00000000
_symmetry_Int_Tables_number   1
_chemical_formula_structural   CuH12(C8O3)2
_chemical_formula_sum   'Cu8 H96 C128 O48'
_cell_volume   4919.27934046
_cell_formula_units_Z   8
loop_
 _symmetry_equiv_pos_site_id
 _symmetry_equiv_pos_as_xyz
  1  'x, y, z'
loop_
 _atom_site_type_symbol
 _atom_site_label
 _atom_site_symmetry_multiplicity
 _atom_site_fract_x
 _atom_site_fract_y
 _atom_site_fract_z
 _atom_site_occupancy
  Cu  Cu0  1  0.84841000  0.02097000  0.52097000  1
  Cu  Cu1  1  0.15159000  0.02097000  0.97903000  1
  Cu  Cu2  1  0.15159000  0.47903000  0.52097000  1
  Cu  Cu3  1  0.84841000  0.47903000  0.97903000  1
  Cu  Cu4  1  0.15159000  0.52097000  0.02097000  1
  Cu  Cu5  1  0.84841000  0.52097000  0.47903000  1
  Cu  Cu6  1  0.84841000  0.97903000  0.02097000  1
  Cu  Cu7  1  0.15159000  0.97903000  0.47903000  1
  H  H8  1  0.20040000  0.01660000  0.74840000  1
  H  H9  1  0.79960000  0.01660000  0.75160000  1
  H  H10  1  0.04480000  0.02090000  0.67280000  1
  H  H11  1  0.95520000  0.02090000  0.82720000  1
  H  H12  1  0.50830000  0.04720000  0.10980000  1
  H  H13  1  0.49170000  0.04720000  0.39020000  1
  H  H14  1  0.81770000  0.06650000  0.12380000  1
  H  H15  1  0.18230000  0.06650000  0.37620000  1
  H  H16  1  0.92190000  0.10150000  0.16200000  1
  H  H17  1  0.07810000  0.10150000  0.33800000  1
  H  H18  1  0.49170000  0.10980000  0.04720000  1
  H  H19  1  0.50830000  0.10980000  0.45280000  1
  H  H20  1  0.70650000  0.11370000  0.14310000  1
  H  H21  1  0.29350000  0.11370000  0.35690000  1
  H  H22  1  0.18230000  0.12380000  0.06650000  1
  H  H23  1  0.81770000  0.12380000  0.43350000  1
  H  H24  1  0.29350000  0.14310000  0.11370000  1
  H  H25  1  0.70650000  0.14310000  0.38630000  1
  H  H26  1  0.07810000  0.16200000  0.10150000  1
  H  H27  1  0.92190000  0.16200000  0.39850000  1
  H  H28  1  0.04480000  0.17280000  0.52090000  1
  H  H29  1  0.95520000  0.17280000  0.97910000  1
  H  H30  1  0.20040000  0.24840000  0.51660000  1
  H  H31  1  0.79960000  0.24840000  0.98340000  1
  H  H32  1  0.79960000  0.25160000  0.51660000  1
  H  H33  1  0.20040000  0.25160000  0.98340000  1
  H  H34  1  0.95520000  0.32720000  0.52090000  1
  H  H35  1  0.04480000  0.32720000  0.97910000  1
  H  H36  1  0.92190000  0.33800000  0.10150000  1
  H  H37  1  0.07810000  0.33800000  0.39850000  1
  H  H38  1  0.70650000  0.35690000  0.11370000  1
  H  H39  1  0.29350000  0.35690000  0.38630000  1
  H  H40  1  0.81770000  0.37620000  0.06650000  1
  H  H41  1  0.18230000  0.37620000  0.43350000  1
  H  H42  1  0.29350000  0.38630000  0.14310000  1
  H  H43  1  0.70650000  0.38630000  0.35690000  1
  H  H44  1  0.50830000  0.39020000  0.04720000  1
  H  H45  1  0.49170000  0.39020000  0.45280000  1
  H  H46  1  0.07810000  0.39850000  0.16200000  1
  H  H47  1  0.92190000  0.39850000  0.33800000  1
  H  H48  1  0.18230000  0.43350000  0.12380000  1
  H  H49  1  0.81770000  0.43350000  0.37620000  1
  H  H50  1  0.49170000  0.45280000  0.10980000  1
  H  H51  1  0.50830000  0.45280000  0.39020000  1
  H  H52  1  0.95520000  0.47910000  0.67280000  1
  H  H53  1  0.04480000  0.47910000  0.82720000  1
  H  H54  1  0.79960000  0.48340000  0.74840000  1
  H  H55  1  0.20040000  0.48340000  0.75160000  1
  H  H56  1  0.79960000  0.51660000  0.24840000  1
  H  H57  1  0.20040000  0.51660000  0.25160000  1
  H  H58  1  0.95520000  0.52090000  0.17280000  1
  H  H59  1  0.04480000  0.52090000  0.32720000  1
  H  H60  1  0.49170000  0.54720000  0.60980000  1
  H  H61  1  0.50830000  0.54720000  0.89020000  1
  H  H62  1  0.18230000  0.56650000  0.62380000  1
  H  H63  1  0.81770000  0.56650000  0.87620000  1
  H  H64  1  0.07810000  0.60150000  0.66200000  1
  H  H65  1  0.92190000  0.60150000  0.83800000  1
  H  H66  1  0.50830000  0.60980000  0.54720000  1
  H  H67  1  0.49170000  0.60980000  0.95280000  1
  H  H68  1  0.29350000  0.61370000  0.64310000  1
  H  H69  1  0.70650000  0.61370000  0.85690000  1
  H  H70  1  0.81770000  0.62380000  0.56650000  1
  H  H71  1  0.18230000  0.62380000  0.93350000  1
  H  H72  1  0.70650000  0.64310000  0.61370000  1
  H  H73  1  0.29350000  0.64310000  0.88630000  1
  H  H74  1  0.92190000  0.66200000  0.60150000  1
  H  H75  1  0.07810000  0.66200000  0.89850000  1
  H  H76  1  0.95520000  0.67280000  0.02090000  1
  H  H77  1  0.04480000  0.67280000  0.47910000  1
  H  H78  1  0.79960000  0.74840000  0.01660000  1
  H  H79  1  0.20040000  0.74840000  0.48340000  1
  H  H80  1  0.20040000  0.75160000  0.01660000  1
  H  H81  1  0.79960000  0.75160000  0.48340000  1
  H  H82  1  0.04480000  0.82720000  0.02090000  1
  H  H83  1  0.95520000  0.82720000  0.47910000  1
  H  H84  1  0.07810000  0.83800000  0.60150000  1
  H  H85  1  0.92190000  0.83800000  0.89850000  1
  H  H86  1  0.29350000  0.85690000  0.61370000  1
  H  H87  1  0.70650000  0.85690000  0.88630000  1
  H  H88  1  0.18230000  0.87620000  0.56650000  1
  H  H89  1  0.81770000  0.87620000  0.93350000  1
  H  H90  1  0.70650000  0.88630000  0.64310000  1
  H  H91  1  0.29350000  0.88630000  0.85690000  1
  H  H92  1  0.49170000  0.89020000  0.54720000  1
  H  H93  1  0.50830000  0.89020000  0.95280000  1
  H  H94  1  0.92190000  0.89850000  0.66200000  1
  H  H95  1  0.07810000  0.89850000  0.83800000  1
  H  H96  1  0.81770000  0.93350000  0.62380000  1
  H  H97  1  0.18230000  0.93350000  0.87620000  1
  H  H98  1  0.50830000  0.95280000  0.60980000  1
  H  H99  1  0.49170000  0.95280000  0.89020000  1
  H  H100  1  0.04480000  0.97910000  0.17280000  1
  H  H101  1  0.95520000  0.97910000  0.32720000  1
  H  H102  1  0.20040000  0.98340000  0.24840000  1
  H  H103  1  0.79960000  0.98340000  0.25160000  1
  C  C104  1  0.26410000  0.00385000  0.72068000  1
  C  C105  1  0.73590000  0.00385000  0.77932000  1
  C  C106  1  0.17020000  0.00643000  0.67522000  1
  C  C107  1  0.82980000  0.00643000  0.82478000  1
  C  C108  1  0.16380000  0.00887000  0.08374000  1
  C  C109  1  0.83620000  0.00887000  0.41626000  1
  C  C110  1  0.26110000  0.01230000  0.13355000  1
  C  C111  1  0.73890000  0.01230000  0.36645000  1
  C  C112  1  0.44870000  0.01709000  0.22561000  1
  C  C113  1  0.55130000  0.01709000  0.27439000  1
  C  C114  1  0.44550000  0.03437000  0.13756000  1
  C  C115  1  0.55450000  0.03437000  0.36244000  1
  C  C116  1  0.53660000  0.03726000  0.18349000  1
  C  C117  1  0.46340000  0.03726000  0.31651000  1
  C  C118  1  0.83620000  0.08374000  0.00887000  1
  C  C119  1  0.16380000  0.08374000  0.49113000  1
  C  C120  1  0.79680000  0.08760000  0.15184000  1
  C  C121  1  0.20320000  0.08760000  0.34816000  1
  C  C122  1  0.73890000  0.13355000  0.01230000  1
  C  C123  1  0.26110000  0.13355000  0.48770000  1
  C  C124  1  0.55450000  0.13756000  0.03437000  1
  C  C125  1  0.44550000  0.13756000  0.46563000  1
  C  C126  1  0.20320000  0.15184000  0.08760000  1
  C  C127  1  0.79680000  0.15184000  0.41240000  1
  C  C128  1  0.17020000  0.17522000  0.50643000  1
  C  C129  1  0.82980000  0.17522000  0.99357000  1
  C  C130  1  0.46340000  0.18349000  0.03726000  1
  C  C131  1  0.53660000  0.18349000  0.46274000  1
  C  C132  1  0.26410000  0.22068000  0.50385000  1
  C  C133  1  0.73590000  0.22068000  0.99615000  1
  C  C134  1  0.55130000  0.22561000  0.01709000  1
  C  C135  1  0.44870000  0.22561000  0.48291000  1
  C  C136  1  0.44870000  0.27439000  0.01709000  1
  C  C137  1  0.55130000  0.27439000  0.48291000  1
  C  C138  1  0.73590000  0.27932000  0.50385000  1
  C  C139  1  0.26410000  0.27932000  0.99615000  1
  C  C140  1  0.53660000  0.31651000  0.03726000  1
  C  C141  1  0.46340000  0.31651000  0.46274000  1
  C  C142  1  0.82980000  0.32478000  0.50643000  1
  C  C143  1  0.17020000  0.32478000  0.99357000  1
  C  C144  1  0.79680000  0.34816000  0.08760000  1
  C  C145  1  0.20320000  0.34816000  0.41240000  1
  C  C146  1  0.44550000  0.36244000  0.03437000  1
  C  C147  1  0.55450000  0.36244000  0.46563000  1
  C  C148  1  0.26110000  0.36645000  0.01230000  1
  C  C149  1  0.73890000  0.36645000  0.48770000  1
  C  C150  1  0.20320000  0.41240000  0.15184000  1
  C  C151  1  0.79680000  0.41240000  0.34816000  1
  C  C152  1  0.16380000  0.41626000  0.00887000  1
  C  C153  1  0.83620000  0.41626000  0.49113000  1
  C  C154  1  0.46340000  0.46274000  0.18349000  1
  C  C155  1  0.53660000  0.46274000  0.31651000  1
  C  C156  1  0.55450000  0.46563000  0.13756000  1
  C  C157  1  0.44550000  0.46563000  0.36244000  1
  C  C158  1  0.55130000  0.48291000  0.22561000  1
  C  C159  1  0.44870000  0.48291000  0.27439000  1
  C  C160  1  0.73890000  0.48770000  0.13355000  1
  C  C161  1  0.26110000  0.48770000  0.36645000  1
  C  C162  1  0.83620000  0.49113000  0.08374000  1
  C  C163  1  0.16380000  0.49113000  0.41626000  1
  C  C164  1  0.82980000  0.49357000  0.67522000  1
  C  C165  1  0.17020000  0.49357000  0.82478000  1
  C  C166  1  0.73590000  0.49615000  0.72068000  1
  C  C167  1  0.26410000  0.49615000  0.77932000  1
  C  C168  1  0.73590000  0.50385000  0.22068000  1
  C  C169  1  0.26410000  0.50385000  0.27932000  1
  C  C170  1  0.82980000  0.50643000  0.17522000  1
  C  C171  1  0.17020000  0.50643000  0.32478000  1
  C  C172  1  0.83620000  0.50887000  0.58374000  1
  C  C173  1  0.16380000  0.50887000  0.91626000  1
  C  C174  1  0.73890000  0.51230000  0.63355000  1
  C  C175  1  0.26110000  0.51230000  0.86645000  1
  C  C176  1  0.55130000  0.51709000  0.72561000  1
  C  C177  1  0.44870000  0.51709000  0.77439000  1
  C  C178  1  0.55450000  0.53437000  0.63756000  1
  C  C179  1  0.44550000  0.53437000  0.86244000  1
  C  C180  1  0.46340000  0.53726000  0.68349000  1
  C  C181  1  0.53660000  0.53726000  0.81651000  1
  C  C182  1  0.16380000  0.58374000  0.50887000  1
  C  C183  1  0.83620000  0.58374000  0.99113000  1
  C  C184  1  0.20320000  0.58760000  0.65184000  1
  C  C185  1  0.79680000  0.58760000  0.84816000  1
  C  C186  1  0.26110000  0.63355000  0.51230000  1
  C  C187  1  0.73890000  0.63355000  0.98770000  1
  C  C188  1  0.44550000  0.63756000  0.53437000  1
  C  C189  1  0.55450000  0.63756000  0.96563000  1
  C  C190  1  0.79680000  0.65184000  0.58760000  1
  C  C191  1  0.20320000  0.65184000  0.91240000  1
  C  C192  1  0.82980000  0.67522000  0.00643000  1
  C  C193  1  0.17020000  0.67522000  0.49357000  1
  C  C194  1  0.53660000  0.68349000  0.53726000  1
  C  C195  1  0.46340000  0.68349000  0.96274000  1
  C  C196  1  0.73590000  0.72068000  0.00385000  1
  C  C197  1  0.26410000  0.72068000  0.49615000  1
  C  C198  1  0.44870000  0.72561000  0.51709000  1
  C  C199  1  0.55130000  0.72561000  0.98291000  1
  C  C200  1  0.55130000  0.77439000  0.51709000  1
  C  C201  1  0.44870000  0.77439000  0.98291000  1
  C  C202  1  0.26410000  0.77932000  0.00385000  1
  C  C203  1  0.73590000  0.77932000  0.49615000  1
  C  C204  1  0.46340000  0.81651000  0.53726000  1
  C  C205  1  0.53660000  0.81651000  0.96274000  1
  C  C206  1  0.17020000  0.82478000  0.00643000  1
  C  C207  1  0.82980000  0.82478000  0.49357000  1
  C  C208  1  0.20320000  0.84816000  0.58760000  1
  C  C209  1  0.79680000  0.84816000  0.91240000  1
  C  C210  1  0.55450000  0.86244000  0.53437000  1
  C  C211  1  0.44550000  0.86244000  0.96563000  1
  C  C212  1  0.73890000  0.86645000  0.51230000  1
  C  C213  1  0.26110000  0.86645000  0.98770000  1
  C  C214  1  0.79680000  0.91240000  0.65184000  1
  C  C215  1  0.20320000  0.91240000  0.84816000  1
  C  C216  1  0.83620000  0.91626000  0.50887000  1
  C  C217  1  0.16380000  0.91626000  0.99113000  1
  C  C218  1  0.53660000  0.96274000  0.68349000  1
  C  C219  1  0.46340000  0.96274000  0.81651000  1
  C  C220  1  0.44550000  0.96563000  0.63756000  1
  C  C221  1  0.55450000  0.96563000  0.86244000  1
  C  C222  1  0.44870000  0.98291000  0.72561000  1
  C  C223  1  0.55130000  0.98291000  0.77439000  1
  C  C224  1  0.26110000  0.98770000  0.63355000  1
  C  C225  1  0.73890000  0.98770000  0.86645000  1
  C  C226  1  0.16380000  0.99113000  0.58374000  1
  C  C227  1  0.83620000  0.99113000  0.91626000  1
  C  C228  1  0.17020000  0.99357000  0.17522000  1
  C  C229  1  0.82980000  0.99357000  0.32478000  1
  C  C230  1  0.26410000  0.99615000  0.22068000  1
  C  C231  1  0.73590000  0.99615000  0.27932000  1
  O  O232  1  0.99520000  0.01076000  0.58266000  1
  O  O233  1  0.00480000  0.01076000  0.91734000  1
  O  O234  1  0.25450000  0.02504000  0.04689000  1
  O  O235  1  0.74550000  0.02504000  0.45311000  1
  O  O236  1  0.74550000  0.04689000  0.02504000  1
  O  O237  1  0.25450000  0.04689000  0.47496000  1
  O  O238  1  0.71500000  0.05976000  0.19096000  1
  O  O239  1  0.28500000  0.05976000  0.30904000  1
  O  O240  1  0.99520000  0.08266000  0.51076000  1
  O  O241  1  0.00480000  0.08266000  0.98924000  1
  O  O242  1  0.28500000  0.19096000  0.05976000  1
  O  O243  1  0.71500000  0.19096000  0.44024000  1
  O  O244  1  0.71500000  0.30904000  0.05976000  1
  O  O245  1  0.28500000  0.30904000  0.44024000  1
  O  O246  1  0.00480000  0.41734000  0.51076000  1
  O  O247  1  0.99520000  0.41734000  0.98924000  1
  O  O248  1  0.28500000  0.44024000  0.19096000  1
  O  O249  1  0.71500000  0.44024000  0.30904000  1
  O  O250  1  0.25450000  0.45311000  0.02504000  1
  O  O251  1  0.74550000  0.45311000  0.47496000  1
  O  O252  1  0.74550000  0.47496000  0.04689000  1
  O  O253  1  0.25450000  0.47496000  0.45311000  1
  O  O254  1  0.00480000  0.48924000  0.58266000  1
  O  O255  1  0.99520000  0.48924000  0.91734000  1
  O  O256  1  0.00480000  0.51076000  0.08266000  1
  O  O257  1  0.99520000  0.51076000  0.41734000  1
  O  O258  1  0.74550000  0.52504000  0.54689000  1
  O  O259  1  0.25450000  0.52504000  0.95311000  1
  O  O260  1  0.25450000  0.54689000  0.52504000  1
  O  O261  1  0.74550000  0.54689000  0.97496000  1
  O  O262  1  0.28500000  0.55976000  0.69096000  1
  O  O263  1  0.71500000  0.55976000  0.80904000  1
  O  O264  1  0.00480000  0.58266000  0.01076000  1
  O  O265  1  0.99520000  0.58266000  0.48924000  1
  O  O266  1  0.71500000  0.69096000  0.55976000  1
  O  O267  1  0.28500000  0.69096000  0.94024000  1
  O  O268  1  0.28500000  0.80904000  0.55976000  1
  O  O269  1  0.71500000  0.80904000  0.94024000  1
  O  O270  1  0.99520000  0.91734000  0.01076000  1
  O  O271  1  0.00480000  0.91734000  0.48924000  1
  O  O272  1  0.71500000  0.94024000  0.69096000  1
  O  O273  1  0.28500000  0.94024000  0.80904000  1
  O  O274  1  0.74550000  0.95311000  0.52504000  1
  O  O275  1  0.25450000  0.95311000  0.97496000  1
  O  O276  1  0.25450000  0.97496000  0.54689000  1
  O  O277  1  0.74550000  0.97496000  0.95311000  1
  O  O278  1  0.99520000  0.98924000  0.08266000  1
  O  O279  1  0.00480000  0.98924000  0.41734000  1
