# generated using pymatgen
data_VPH4C3O5
_symmetry_space_group_name_H-M   'P 1'
_cell_length_a   6.40410000
_cell_length_b   7.72710000
_cell_length_c   17.62520000
_cell_angle_alpha   90.00000000
_cell_angle_beta   90.00000000
_cell_angle_gamma   95.58600000
_symmetry_Int_Tables_number   1
_chemical_formula_structural   VPH4C3O5
_chemical_formula_sum   'V4 P4 H16 C12 O20'
_cell_volume   868.04333616
_cell_formula_units_Z   4
loop_
 _symmetry_equiv_pos_site_id
 _symmetry_equiv_pos_as_xyz
  1  'x, y, z'
loop_
 _atom_site_type_symbol
 _atom_site_label
 _atom_site_symmetry_multiplicity
 _atom_site_fract_x
 _atom_site_fract_y
 _atom_site_fract_z
 _atom_site_occupancy
  V  V0  1  0.98390000  0.18130000  0.74890000  1
  V  V1  1  0.51160000  0.31790000  0.56670000  1
  V  V2  1  0.48840000  0.68210000  0.06670000  1
  V  V3  1  0.01610000  0.81870000  0.24890000  1
  P  P4  1  0.99390000  0.24470000  0.57010000  1
  P  P5  1  0.50300000  0.74350000  0.24490000  1
  P  P6  1  0.49700000  0.25650000  0.74490000  1
  P  P7  1  0.00610000  0.75530000  0.07010000  1
  H  H8  1  0.89260000  0.97300000  0.99630000  1
  H  H9  1  0.88890000  0.25660000  0.40940000  1
  H  H10  1  0.86580000  0.72820000  0.91580000  1
  H  H11  1  0.86230000  0.02140000  0.49220000  1
  H  H12  1  0.64210000  0.76530000  0.40680000  1
  H  H13  1  0.63110000  0.47710000  0.82380000  1
  H  H14  1  0.61340000  0.52760000  0.32060000  1
  H  H15  1  0.60290000  0.24270000  0.91070000  1
  H  H16  1  0.39710000  0.75730000  0.41070000  1
  H  H17  1  0.38660000  0.47240000  0.82060000  1
  H  H18  1  0.36890000  0.52290000  0.32380000  1
  H  H19  1  0.35790000  0.23470000  0.90680000  1
  H  H20  1  0.13770000  0.97860000  0.99220000  1
  H  H21  1  0.13420000  0.27180000  0.41580000  1
  H  H22  1  0.11110000  0.74340000  0.90940000  1
  H  H23  1  0.10740000  0.02700000  0.49630000  1
  C  C24  1  0.99150000  0.09820000  0.49120000  1
  C  C25  1  0.99110000  0.80950000  0.91590000  1
  C  C26  1  0.98140000  0.93590000  0.84900000  1
  C  C27  1  0.51390000  0.68750000  0.40470000  1
  C  C28  1  0.51290000  0.56480000  0.46830000  1
  C  C29  1  0.50190000  0.40050000  0.82560000  1
  C  C30  1  0.49810000  0.59950000  0.32560000  1
  C  C31  1  0.48710000  0.43520000  0.96830000  1
  C  C32  1  0.48610000  0.31250000  0.90470000  1
  C  C33  1  0.01860000  0.06410000  0.34900000  1
  C  C34  1  0.00890000  0.19050000  0.41590000  1
  C  C35  1  0.00850000  0.90180000  0.99120000  1
  O  O36  1  0.99660000  0.10170000  0.85910000  1
  O  O37  1  0.97590000  0.87870000  0.78250000  1
  O  O38  1  0.95250000  0.12600000  0.63960000  1
  O  O39  1  0.82890000  0.36870000  0.55740000  1
  O  O40  1  0.79510000  0.64880000  0.07360000  1
  O  O41  1  0.71220000  0.85360000  0.24200000  1
  O  O42  1  0.67380000  0.13650000  0.75300000  1
  O  O43  1  0.53620000  0.37630000  0.67560000  1
  O  O44  1  0.53190000  0.61770000  0.53560000  1
  O  O45  1  0.50360000  0.40450000  0.45580000  1
  O  O46  1  0.49640000  0.59550000  0.95580000  1
  O  O47  1  0.46810000  0.38230000  0.03560000  1
  O  O48  1  0.46380000  0.62370000  0.17560000  1
  O  O49  1  0.32620000  0.86350000  0.25300000  1
  O  O50  1  0.28780000  0.14640000  0.74200000  1
  O  O51  1  0.20490000  0.35120000  0.57360000  1
  O  O52  1  0.17110000  0.63130000  0.05740000  1
  O  O53  1  0.04750000  0.87400000  0.13960000  1
  O  O54  1  0.02410000  0.12130000  0.28250000  1
  O  O55  1  0.00340000  0.89830000  0.35910000  1
