# generated using pymatgen
data_TbH8C12(NO3)2
_symmetry_space_group_name_H-M   'P 1'
_cell_length_a   10.70265000
_cell_length_b   10.70265000
_cell_length_c   18.60050000
_cell_angle_alpha   74.65038134
_cell_angle_beta   74.65038134
_cell_angle_gamma   63.78372497
_symmetry_Int_Tables_number   1
_chemical_formula_structural   TbH8C12(NO3)2
_chemical_formula_sum   'Tb4 H32 C48 N8 O24'
_cell_volume   1816.18270653
_cell_formula_units_Z   4
loop_
 _symmetry_equiv_pos_site_id
 _symmetry_equiv_pos_as_xyz
  1  'x, y, z'
loop_
 _atom_site_type_symbol
 _atom_site_label
 _atom_site_symmetry_multiplicity
 _atom_site_fract_x
 _atom_site_fract_y
 _atom_site_fract_z
 _atom_site_occupancy
  C  C0  1  0.43220000  0.76920000  0.92770000  1
  C  C1  1  0.76920000  0.43220000  0.42770000  1
  C  C2  1  0.46370000  0.76590000  0.47270000  1
  C  C3  1  0.76590000  0.46370000  0.97270000  1
  C  C4  1  0.54780000  0.68860000  0.20810000  1
  C  C5  1  0.68860000  0.54780000  0.70810000  1
  C  C6  1  0.42060000  0.91460000  0.89030000  1
  C  C7  1  0.91460000  0.42060000  0.39030000  1
  C  C8  1  0.47920000  0.88840000  0.48680000  1
  C  C9  1  0.88840000  0.47920000  0.98680000  1
  C  C10  1  0.56600000  0.82400000  0.17410000  1
  C  C11  1  0.82400000  0.56600000  0.67410000  1
  C  C12  1  0.43970000  0.95530000  0.81140000  1
  C  C13  1  0.95530000  0.43970000  0.31140000  1
  C  C14  1  0.40350000  0.00770000  0.93480000  1
  C  C15  1  0.00770000  0.40350000  0.43480000  1
  C  C16  1  0.55160000  0.86860000  0.54350000  1
  C  C17  1  0.86860000  0.55160000  0.04350000  1
  C  C18  1  0.42590000  0.02310000  0.44310000  1
  C  C19  1  0.02310000  0.42590000  0.94310000  1
  C  C20  1  0.58800000  0.86420000  0.09540000  1
  C  C21  1  0.86420000  0.58800000  0.59540000  1
  C  C22  1  0.55620000  0.91080000  0.21960000  1
  C  C23  1  0.91080000  0.55620000  0.71960000  1
  C  C24  1  0.44380000  0.08920000  0.78040000  1
  C  C25  1  0.08920000  0.44380000  0.28040000  1
  C  C26  1  0.41200000  0.13580000  0.90460000  1
  C  C27  1  0.13580000  0.41200000  0.40460000  1
  C  C28  1  0.57410000  0.97690000  0.55690000  1
  C  C29  1  0.97690000  0.57410000  0.05690000  1
  C  C30  1  0.44840000  0.13140000  0.45650000  1
  C  C31  1  0.13140000  0.44840000  0.95650000  1
  C  C32  1  0.59650000  0.99230000  0.06520000  1
  C  C33  1  0.99230000  0.59650000  0.56520000  1
  C  C34  1  0.56030000  0.04470000  0.18860000  1
  C  C35  1  0.04470000  0.56030000  0.68860000  1
  C  C36  1  0.43400000  0.17600000  0.82590000  1
  C  C37  1  0.17600000  0.43400000  0.32590000  1
  C  C38  1  0.52080000  0.11160000  0.51320000  1
  C  C39  1  0.11160000  0.52080000  0.01320000  1
  C  C40  1  0.57940000  0.08540000  0.10970000  1
  C  C41  1  0.08540000  0.57940000  0.60970000  1
  C  C42  1  0.45220000  0.31140000  0.79190000  1
  C  C43  1  0.31140000  0.45220000  0.29190000  1
  C  C44  1  0.53630000  0.23410000  0.52730000  1
  C  C45  1  0.23410000  0.53630000  0.02730000  1
  C  C46  1  0.56780000  0.23080000  0.07230000  1
  C  C47  1  0.23080000  0.56780000  0.57230000  1
  H  H48  1  0.37560000  0.86940000  0.76380000  1
  H  H49  1  0.86940000  0.37560000  0.26380000  1
  H  H50  1  0.58600000  0.77980000  0.57330000  1
  H  H51  1  0.77980000  0.58600000  0.07330000  1
  H  H52  1  0.38560000  0.98260000  0.98710000  1
  H  H53  1  0.98260000  0.38560000  0.48710000  1
  H  H54  1  0.48070000  0.91090000  0.71530000  1
  H  H55  1  0.91090000  0.48070000  0.21530000  1
  H  H56  1  0.59680000  0.80500000  0.06410000  1
  H  H57  1  0.80500000  0.59680000  0.56410000  1
  H  H58  1  0.27310000  0.13670000  0.39320000  1
  H  H59  1  0.13670000  0.27310000  0.89320000  1
  H  H60  1  0.54670000  0.88110000  0.27170000  1
  H  H61  1  0.88110000  0.54670000  0.77170000  1
  H  H62  1  0.39600000  0.06700000  0.34380000  1
  H  H63  1  0.06700000  0.39600000  0.84380000  1
  H  H64  1  0.60400000  0.93300000  0.65620000  1
  H  H65  1  0.93300000  0.60400000  0.15620000  1
  H  H66  1  0.45330000  0.11890000  0.72830000  1
  H  H67  1  0.11890000  0.45330000  0.22830000  1
  H  H68  1  0.72690000  0.86330000  0.60680000  1
  H  H69  1  0.86330000  0.72690000  0.10680000  1
  H  H70  1  0.40320000  0.19500000  0.93590000  1
  H  H71  1  0.19500000  0.40320000  0.43590000  1
  H  H72  1  0.51930000  0.08910000  0.28470000  1
  H  H73  1  0.08910000  0.51930000  0.78470000  1
  H  H74  1  0.61440000  0.01740000  0.01290000  1
  H  H75  1  0.01740000  0.61440000  0.51290000  1
  H  H76  1  0.41400000  0.22020000  0.42670000  1
  H  H77  1  0.22020000  0.41400000  0.92670000  1
  H  H78  1  0.62440000  0.13060000  0.23620000  1
  H  H79  1  0.13060000  0.62440000  0.73620000  1
  N  N80  1  0.45540000  0.87340000  0.76060000  1
  N  N81  1  0.87340000  0.45540000  0.26060000  1
  N  N82  1  0.34590000  0.05750000  0.38840000  1
  N  N83  1  0.05750000  0.34590000  0.88840000  1
  N  N84  1  0.65410000  0.94250000  0.61160000  1
  N  N85  1  0.94250000  0.65410000  0.11160000  1
  N  N86  1  0.54460000  0.12660000  0.23940000  1
  N  N87  1  0.12660000  0.54460000  0.73940000  1
  O  O88  1  0.39988000  0.74748000  0.99885000  1
  O  O89  1  0.74748000  0.39988000  0.49885000  1
  O  O90  1  0.47680000  0.67580000  0.88700000  1
  O  O91  1  0.67580000  0.47680000  0.38700000  1
  O  O92  1  0.50820000  0.64800000  0.51480000  1
  O  O93  1  0.64800000  0.50820000  0.01480000  1
  O  O94  1  0.56664000  0.60824000  0.16329000  1
  O  O95  1  0.60824000  0.56664000  0.66329000  1
  O  O96  1  0.51769000  0.66009000  0.27816000  1
  O  O97  1  0.66009000  0.51769000  0.77816000  1
  O  O98  1  0.40860000  0.78300000  0.41691000  1
  O  O99  1  0.78300000  0.40860000  0.91691000  1
  O  O100  1  0.59140000  0.21700000  0.58309000  1
  O  O101  1  0.21700000  0.59140000  0.08309000  1
  O  O102  1  0.48231000  0.33991000  0.72184000  1
  O  O103  1  0.33991000  0.48231000  0.22184000  1
  O  O104  1  0.43336000  0.39176000  0.83671000  1
  O  O105  1  0.39176000  0.43336000  0.33671000  1
  O  O106  1  0.49180000  0.35200000  0.48520000  1
  O  O107  1  0.35200000  0.49180000  0.98520000  1
  O  O108  1  0.52320000  0.32420000  0.11300000  1
  O  O109  1  0.32420000  0.52320000  0.61300000  1
  O  O110  1  0.60012000  0.25252000  0.00115000  1
  O  O111  1  0.25252000  0.60012000  0.50115000  1
  Tb  Tb112  1  0.43632000  0.56618000  0.10220000  1
  Tb  Tb113  1  0.56618000  0.43632000  0.60220000  1
  Tb  Tb114  1  0.56368000  0.43382000  0.89780000  1
  Tb  Tb115  1  0.43382000  0.56368000  0.39780000  1
