# generated using pymatgen
data_AgH12(C3N)6
_symmetry_space_group_name_H-M   'P 1'
_cell_length_a   13.76202210
_cell_length_b   13.76202210
_cell_length_c   24.56056508
_cell_angle_alpha   101.85463753
_cell_angle_beta   101.45529038
_cell_angle_gamma   106.19683889
_symmetry_Int_Tables_number   1
_chemical_formula_structural   AgH12(C3N)6
_chemical_formula_sum   'Ag8 H96 C144 N48'
_cell_volume   4206.52330440
_cell_formula_units_Z   8
loop_
 _symmetry_equiv_pos_site_id
 _symmetry_equiv_pos_as_xyz
  1  'x, y, z'
loop_
 _atom_site_type_symbol
 _atom_site_label
 _atom_site_symmetry_multiplicity
 _atom_site_fract_x
 _atom_site_fract_y
 _atom_site_fract_z
 _atom_site_occupancy
  Ag  Ag0  1  0.61304000  0.43411000  0.13253000  1
  Ag  Ag1  1  0.69842000  0.01949000  0.63253000  1
  Ag  Ag2  1  0.42318000  0.20125000  0.13309000  1
  Ag  Ag3  1  0.93184000  0.20991000  0.63309000  1
  Ag  Ag4  1  0.57682000  0.79875000  0.86691000  1
  Ag  Ag5  1  0.06816000  0.79009000  0.36691000  1
  Ag  Ag6  1  0.38696000  0.56589000  0.86747000  1
  Ag  Ag7  1  0.30158000  0.98051000  0.36747000  1
  C  C8  1  0.07390000  0.47660000  0.40630000  1
  C  C9  1  0.92970000  0.83240000  0.90630000  1
  C  C10  1  0.11890000  0.60780000  0.49530000  1
  C  C11  1  0.88750000  0.87640000  0.99530000  1
  C  C12  1  0.36100000  0.80800000  0.49880000  1
  C  C13  1  0.69080000  0.63780000  0.99880000  1
  C  C14  1  0.37970000  0.44290000  0.11660000  1
  C  C15  1  0.67370000  0.23690000  0.61660000  1
  C  C16  1  0.34400000  0.68870000  0.41010000  1
  C  C17  1  0.72140000  0.56610000  0.91010000  1
  C  C18  1  0.40790000  0.37360000  0.03190000  1
  C  C19  1  0.65830000  0.12400000  0.53190000  1
  C  C20  1  0.10720000  0.50630000  0.46590000  1
  C  C21  1  0.95960000  0.85870000  0.96590000  1
  C  C22  1  0.21170000  0.13600000  0.03610000  1
  C  C23  1  0.90010000  0.32440000  0.53610000  1
  C  C24  1  0.17280000  0.18210000  0.12150000  1
  C  C25  1  0.93940000  0.44870000  0.62150000  1
  C  C26  1  0.36130000  0.71070000  0.46880000  1
  C  C27  1  0.75810000  0.60750000  0.96880000  1
  C  C28  1  0.12670000  0.43120000  0.49990000  1
  C  C29  1  0.06870000  0.87320000  0.99990000  1
  C  C30  1  0.38020000  0.63420000  0.50100000  1
  C  C31  1  0.86680000  0.62080000  0.00100000  1
  C  C32  1  0.46340000  0.37680000  0.25640000  1
  C  C33  1  0.87960000  0.29300000  0.75640000  1
  C  C34  1  0.63330000  0.81070000  0.52660000  1
  C  C35  1  0.71590000  0.39330000  0.02660000  1
  C  C36  1  0.22270000  0.54510000  0.68040000  1
  C  C37  1  0.13530000  0.95770000  0.18040000  1
  C  C38  1  0.18210000  0.90870000  0.08700000  1
  C  C39  1  0.17830000  0.40490000  0.58700000  1
  C  C40  1  0.23460000  0.87660000  0.00600000  1
  C  C41  1  0.12940000  0.27140000  0.50600000  1
  C  C42  1  0.29640000  0.84150000  0.91790000  1
  C  C43  1  0.07640000  0.12150000  0.41790000  1
  C  C44  1  0.51220000  0.14890000  0.02150000  1
  C  C45  1  0.87260000  0.00930000  0.52150000  1
  C  C46  1  0.68800000  0.05970000  0.75810000  1
  C  C47  1  0.69840000  0.57010000  0.25810000  1
  C  C48  1  0.49920000  0.41950000  0.31570000  1
  C  C49  1  0.89620000  0.31650000  0.81570000  1
  C  C50  1  0.61830000  0.70930000  0.49540000  1
  C  C51  1  0.78610000  0.37710000  0.99540000  1
  C  C52  1  0.31380000  0.32040000  0.41420000  1
  C  C53  1  0.09380000  0.60040000  0.91420000  1
  C  C54  1  0.37700000  0.47110000  0.50410000  1
  C  C55  1  0.03300000  0.62710000  0.00410000  1
  C  C56  1  0.43590000  0.60320000  0.58670000  1
  C  C57  1  0.98350000  0.65080000  0.08670000  1
  C  C58  1  0.26500000  0.58140000  0.73960000  1
  C  C59  1  0.15820000  0.97460000  0.23960000  1
  C  C60  1  0.22050000  0.44690000  0.65120000  1
  C  C61  1  0.20430000  0.93070000  0.15120000  1
  C  C62  1  0.31610000  0.86310000  0.97680000  1
  C  C63  1  0.11370000  0.16070000  0.47680000  1
  C  C64  1  0.50370000  0.75050000  0.67740000  1
  C  C65  1  0.92690000  0.67370000  0.17740000  1
  C  C66  1  0.37320000  0.82420000  0.89160000  1
  C  C67  1  0.06740000  0.01840000  0.39160000  1
  C  C68  1  0.70520000  0.07880000  0.81740000  1
  C  C69  1  0.73860000  0.61220000  0.31740000  1
  C  C70  1  0.58460000  0.13050000  0.99130000  1
  C  C71  1  0.86080000  0.90670000  0.49130000  1
  C  C72  1  0.35630000  0.35950000  0.47360000  1
  C  C73  1  0.11410000  0.61730000  0.97360000  1
  C  C74  1  0.29980000  0.21700000  0.38820000  1
  C  C75  1  0.17120000  0.58840000  0.88820000  1
  C  C76  1  0.48020000  0.64450000  0.65050000  1
  C  C77  1  0.00600000  0.67030000  0.15050000  1
  C  C78  1  0.54040000  0.78560000  0.73620000  1
  C  C79  1  0.95060000  0.69580000  0.23620000  1
  C  C80  1  0.45960000  0.21440000  0.26380000  1
  C  C81  1  0.04940000  0.30420000  0.76380000  1
  C  C82  1  0.51980000  0.35550000  0.34950000  1
  C  C83  1  0.99400000  0.32970000  0.84950000  1
  C  C84  1  0.70020000  0.78300000  0.61180000  1
  C  C85  1  0.82880000  0.41160000  0.11180000  1
  C  C86  1  0.64370000  0.64050000  0.52640000  1
  C  C87  1  0.88590000  0.38270000  0.02640000  1
  C  C88  1  0.41540000  0.86950000  0.00870000  1
  C  C89  1  0.13920000  0.09330000  0.50870000  1
  C  C90  1  0.29480000  0.92120000  0.18260000  1
  C  C91  1  0.26140000  0.38780000  0.68260000  1
  C  C92  1  0.62680000  0.17580000  0.10840000  1
  C  C93  1  0.93260000  0.98160000  0.60840000  1
  C  C94  1  0.49630000  0.24950000  0.32260000  1
  C  C95  1  0.07310000  0.32630000  0.82260000  1
  C  C96  1  0.68390000  0.13690000  0.02320000  1
  C  C97  1  0.88630000  0.83930000  0.52320000  1
  C  C98  1  0.77950000  0.55310000  0.34880000  1
  C  C99  1  0.79570000  0.06930000  0.84880000  1
  C  C100  1  0.73500000  0.41860000  0.26040000  1
  C  C101  1  0.84180000  0.02540000  0.76040000  1
  C  C102  1  0.56410000  0.39680000  0.41330000  1
  C  C103  1  0.01650000  0.34920000  0.91330000  1
  C  C104  1  0.62300000  0.52890000  0.49590000  1
  C  C105  1  0.96700000  0.37290000  0.99590000  1
  C  C106  1  0.68620000  0.67960000  0.58580000  1
  C  C107  1  0.90620000  0.39960000  0.08580000  1
  C  C108  1  0.38170000  0.29070000  0.50460000  1
  C  C109  1  0.21390000  0.62290000  0.00460000  1
  C  C110  1  0.50080000  0.58050000  0.68430000  1
  C  C111  1  0.10380000  0.68350000  0.18430000  1
  C  C112  1  0.31200000  0.94030000  0.24190000  1
  C  C113  1  0.30160000  0.42990000  0.74190000  1
  C  C114  1  0.48780000  0.85110000  0.97850000  1
  C  C115  1  0.12740000  0.99070000  0.47850000  1
  C  C116  1  0.70360000  0.15850000  0.08210000  1
  C  C117  1  0.92360000  0.87850000  0.58210000  1
  C  C118  1  0.76540000  0.12340000  0.99400000  1
  C  C119  1  0.87060000  0.72860000  0.49400000  1
  C  C120  1  0.81790000  0.09130000  0.91300000  1
  C  C121  1  0.82170000  0.59510000  0.41300000  1
  C  C122  1  0.77730000  0.45490000  0.31960000  1
  C  C123  1  0.86470000  0.04230000  0.81960000  1
  C  C124  1  0.36670000  0.18930000  0.47340000  1
  C  C125  1  0.28410000  0.60670000  0.97340000  1
  C  C126  1  0.53660000  0.62320000  0.74360000  1
  C  C127  1  0.12040000  0.70700000  0.24360000  1
  C  C128  1  0.61980000  0.36580000  0.49900000  1
  C  C129  1  0.13320000  0.37920000  0.99900000  1
  C  C130  1  0.87330000  0.56880000  0.50010000  1
  C  C131  1  0.93130000  0.12680000  0.00010000  1
  C  C132  1  0.63870000  0.28930000  0.53120000  1
  C  C133  1  0.24190000  0.39250000  0.03120000  1
  C  C134  1  0.82720000  0.81790000  0.87850000  1
  C  C135  1  0.06060000  0.55130000  0.37850000  1
  C  C136  1  0.78830000  0.86400000  0.96390000  1
  C  C137  1  0.09990000  0.67560000  0.46390000  1
  C  C138  1  0.89280000  0.49370000  0.53410000  1
  C  C139  1  0.04040000  0.14130000  0.03410000  1
  C  C140  1  0.59210000  0.62640000  0.96810000  1
  C  C141  1  0.34170000  0.87600000  0.46810000  1
  C  C142  1  0.65600000  0.31130000  0.58990000  1
  C  C143  1  0.27860000  0.43390000  0.08990000  1
  C  C144  1  0.62030000  0.55710000  0.88340000  1
  C  C145  1  0.32630000  0.76310000  0.38340000  1
  C  C146  1  0.63900000  0.19200000  0.50120000  1
  C  C147  1  0.30920000  0.36220000  0.00120000  1
  C  C148  1  0.88110000  0.39220000  0.50470000  1
  C  C149  1  0.11250000  0.12360000  0.00470000  1
  C  C150  1  0.92610000  0.52340000  0.59370000  1
  C  C151  1  0.07030000  0.16760000  0.09370000  1
  H  H152  1  0.06080000  0.40770000  0.38530000  1
  H  H153  1  0.97760000  0.82450000  0.88530000  1
  H  H154  1  0.13930000  0.62960000  0.53550000  1
  H  H155  1  0.90590000  0.89620000  0.03550000  1
  H  H156  1  0.37390000  0.82630000  0.53880000  1
  H  H157  1  0.71250000  0.66490000  0.03880000  1
  H  H158  1  0.40440000  0.47240000  0.15640000  1
  H  H159  1  0.68400000  0.25200000  0.65640000  1
  H  H160  1  0.34430000  0.62470000  0.38880000  1
  H  H161  1  0.76410000  0.54450000  0.88880000  1
  H  H162  1  0.45250000  0.35310000  0.01160000  1
  H  H163  1  0.65850000  0.05910000  0.51160000  1
  H  H164  1  0.19420000  0.20520000  0.16160000  1
  H  H165  1  0.95640000  0.46740000  0.66160000  1
  H  H166  1  0.25950000  0.12360000  0.01590000  1
  H  H167  1  0.89230000  0.25640000  0.51590000  1
  H  H168  1  0.45110000  0.42080000  0.23370000  1
  H  H169  1  0.81290000  0.28260000  0.73370000  1
  H  H170  1  0.61310000  0.85530000  0.50640000  1
  H  H171  1  0.65110000  0.39330000  0.00640000  1
  H  H172  1  0.19570000  0.58630000  0.66020000  1
  H  H173  1  0.07390000  0.96450000  0.16020000  1
  H  H174  1  0.23200000  0.83860000  0.89560000  1
  H  H175  1  0.05700000  0.16360000  0.39560000  1
  H  H176  1  0.62680000  0.06560000  0.73720000  1
  H  H177  1  0.67160000  0.61040000  0.23720000  1
  H  H178  1  0.44640000  0.14510000  0.00050000  1
  H  H179  1  0.85540000  0.05410000  0.50050000  1
  H  H180  1  0.29520000  0.36330000  0.39230000  1
  H  H181  1  0.02900000  0.59710000  0.89230000  1
  H  H182  1  0.50921667  0.48981667  0.33240000  1
  H  H183  1  0.84258333  0.32318333  0.83240000  1
  H  H184  1  0.49450000  0.79680000  0.65570000  1
  H  H185  1  0.85890000  0.66120000  0.15570000  1
  H  H186  1  0.59230000  0.68750000  0.45540000  1
  H  H187  1  0.76790000  0.36310000  0.95540000  1
  H  H188  1  0.26630000  0.64780000  0.75870000  1
  H  H189  1  0.11090000  0.99240000  0.25870000  1
  H  H190  1  0.65730000  0.09770000  0.83560000  1
  H  H191  1  0.73790000  0.67830000  0.33560000  1
  H  H192  1  0.35820000  0.80890000  0.85150000  1
  H  H193  1  0.04260000  0.99330000  0.35150000  1
  H  H194  1  0.56720000  0.11430000  0.95110000  1
  H  H195  1  0.83680000  0.88390000  0.45110000  1
  H  H196  1  0.27060000  0.19140000  0.34840000  1
  H  H197  1  0.15700000  0.57780000  0.84840000  1
  H  H198  1  0.55650000  0.85700000  0.75370000  1
  H  H199  1  0.89670000  0.69720000  0.25370000  1
  H  H200  1  0.44350000  0.14300000  0.24630000  1
  H  H201  1  0.10330000  0.30280000  0.74630000  1
  H  H202  1  0.72940000  0.80860000  0.65160000  1
  H  H203  1  0.84300000  0.42220000  0.15160000  1
  H  H204  1  0.43280000  0.88570000  0.04890000  1
  H  H205  1  0.16320000  0.11610000  0.54890000  1
  H  H206  1  0.64180000  0.19110000  0.14850000  1
  H  H207  1  0.95740000  0.00670000  0.64850000  1
  H  H208  1  0.34270000  0.90230000  0.16440000  1
  H  H209  1  0.26210000  0.32170000  0.66440000  1
  H  H210  1  0.73370000  0.35220000  0.24130000  1
  H  H211  1  0.88910000  0.00760000  0.74130000  1
  H  H212  1  0.40770000  0.31250000  0.54460000  1
  H  H213  1  0.23210000  0.63690000  0.04460000  1
  H  H214  1  0.50550000  0.20320000  0.34430000  1
  H  H215  1  0.14110000  0.33880000  0.84430000  1
  H  H216  1  0.49078333  0.51018333  0.66760000  1
  H  H217  1  0.15741667  0.67681667  0.16760000  1
  H  H218  1  0.70480000  0.63670000  0.60770000  1
  H  H219  1  0.97100000  0.40290000  0.10770000  1
  H  H220  1  0.55360000  0.85490000  0.99950000  1
  H  H221  1  0.14460000  0.94590000  0.49950000  1
  H  H222  1  0.37320000  0.93440000  0.26280000  1
  H  H223  1  0.32840000  0.38960000  0.76280000  1
  H  H224  1  0.76800000  0.16140000  0.10440000  1
  H  H225  1  0.94300000  0.83640000  0.60440000  1
  H  H226  1  0.80430000  0.41370000  0.33980000  1
  H  H227  1  0.92610000  0.03550000  0.83980000  1
  H  H228  1  0.38690000  0.14470000  0.49360000  1
  H  H229  1  0.34890000  0.60670000  0.99360000  1
  H  H230  1  0.54890000  0.57920000  0.76630000  1
  H  H231  1  0.18710000  0.71740000  0.26630000  1
  H  H232  1  0.74050000  0.87640000  0.98410000  1
  H  H233  1  0.10770000  0.74360000  0.48410000  1
  H  H234  1  0.80580000  0.79480000  0.83840000  1
  H  H235  1  0.04360000  0.53260000  0.33840000  1
  H  H236  1  0.54750000  0.64690000  0.98840000  1
  H  H237  1  0.34150000  0.94090000  0.48840000  1
  H  H238  1  0.65570000  0.37530000  0.61120000  1
  H  H239  1  0.23590000  0.45550000  0.11120000  1
  H  H240  1  0.59560000  0.52760000  0.84360000  1
  H  H241  1  0.31600000  0.74800000  0.34360000  1
  H  H242  1  0.62610000  0.17370000  0.46120000  1
  H  H243  1  0.28750000  0.33510000  0.96120000  1
  H  H244  1  0.86070000  0.37040000  0.46450000  1
  H  H245  1  0.09410000  0.10380000  0.96450000  1
  H  H246  1  0.93920000  0.59230000  0.61470000  1
  H  H247  1  0.02240000  0.17550000  0.11470000  1
  N  N248  1  0.44420000  0.41190000  0.08890000  1
  N  N249  1  0.67700000  0.14470000  0.58890000  1
  N  N250  1  0.24350000  0.16460000  0.09350000  1
  N  N251  1  0.92890000  0.35000000  0.59350000  1
  N  N252  1  0.16020000  0.47210000  0.55790000  1
  N  N253  1  0.08580000  0.89770000  0.05790000  1
  N  N254  1  0.13830000  0.85850000  0.97240000  1
  N  N255  1  0.11390000  0.33410000  0.47240000  1
  N  N256  1  0.35870000  0.53390000  0.47160000  1
  N  N257  1  0.93770000  0.61290000  0.97160000  1
  N  N258  1  0.41960000  0.67250000  0.55830000  1
  N  N259  1  0.88580000  0.63870000  0.05830000  1
  N  N260  1  0.44530000  0.27660000  0.22990000  1
  N  N261  1  0.95330000  0.28460000  0.72990000  1
  N  N262  1  0.67440000  0.84840000  0.58320000  1
  N  N263  1  0.73480000  0.40880000  0.08320000  1
  N  N264  1  0.26090000  0.90220000  0.06390000  1
  N  N265  1  0.16170000  0.30300000  0.56390000  1
  N  N266  1  0.53330000  0.17160000  0.07870000  1
  N  N267  1  0.90710000  0.04540000  0.57870000  1
  N  N268  1  0.69550000  0.47600000  0.22910000  1
  N  N269  1  0.75310000  0.03360000  0.72910000  1
  N  N270  1  0.41510000  0.50140000  0.56210000  1
  N  N271  1  0.06070000  0.64700000  0.06210000  1
  N  N272  1  0.58490000  0.49860000  0.43790000  1
  N  N273  1  0.93930000  0.35300000  0.93790000  1
  N  N274  1  0.30450000  0.52400000  0.77090000  1
  N  N275  1  0.24690000  0.96640000  0.27090000  1
  N  N276  1  0.46670000  0.82840000  0.92130000  1
  N  N277  1  0.09290000  0.95460000  0.42130000  1
  N  N278  1  0.73910000  0.09780000  0.93610000  1
  N  N279  1  0.83830000  0.69700000  0.43610000  1
  N  N280  1  0.32560000  0.15160000  0.41680000  1
  N  N281  1  0.26520000  0.59120000  0.91680000  1
  N  N282  1  0.55470000  0.72340000  0.77010000  1
  N  N283  1  0.04670000  0.71540000  0.27010000  1
  N  N284  1  0.58040000  0.32750000  0.44170000  1
  N  N285  1  0.11420000  0.36130000  0.94170000  1
  N  N286  1  0.64130000  0.46610000  0.52840000  1
  N  N287  1  0.06230000  0.38710000  0.02840000  1
  N  N288  1  0.86170000  0.14150000  0.02760000  1
  N  N289  1  0.88610000  0.66590000  0.52760000  1
  N  N290  1  0.83980000  0.52790000  0.44210000  1
  N  N291  1  0.91420000  0.10230000  0.94210000  1
  N  N292  1  0.75650000  0.83540000  0.90650000  1
  N  N293  1  0.07110000  0.65000000  0.40650000  1
  N  N294  1  0.55580000  0.58810000  0.91110000  1
  N  N295  1  0.32300000  0.85530000  0.41110000  1
