# generated using pymatgen
data_InH4C12(SO4)2
_symmetry_space_group_name_H-M   'P 1'
_cell_length_a   13.51000000
_cell_length_b   13.51000000
_cell_length_c   16.06840000
_cell_angle_alpha   90.00000000
_cell_angle_beta   90.00000000
_cell_angle_gamma   90.00000000
_symmetry_Int_Tables_number   1
_chemical_formula_structural   InH4C12(SO4)2
_chemical_formula_sum   'In4 H16 C48 S8 O32'
_cell_volume   2932.80597484
_cell_formula_units_Z   4
loop_
 _symmetry_equiv_pos_site_id
 _symmetry_equiv_pos_as_xyz
  1  'x, y, z'
loop_
 _atom_site_type_symbol
 _atom_site_label
 _atom_site_symmetry_multiplicity
 _atom_site_fract_x
 _atom_site_fract_y
 _atom_site_fract_z
 _atom_site_occupancy
  In  In0  1  0.00000000  0.41831000  0.00000000  1
  In  In1  1  0.00000000  0.58169000  0.50000000  1
  In  In2  1  0.41831000  0.00000000  0.75000000  1
  In  In3  1  0.58169000  0.00000000  0.25000000  1
  H  H4  1  0.07210000  0.39480000  0.75670000  1
  H  H5  1  0.07210000  0.60520000  0.74330000  1
  H  H6  1  0.15190000  0.24940000  0.81640000  1
  H  H7  1  0.15190000  0.75060000  0.68360000  1
  H  H8  1  0.24940000  0.15190000  0.93360000  1
  H  H9  1  0.24940000  0.84810000  0.56640000  1
  H  H10  1  0.39480000  0.07210000  0.99330000  1
  H  H11  1  0.39480000  0.92790000  0.50670000  1
  H  H12  1  0.60520000  0.07210000  0.00670000  1
  H  H13  1  0.60520000  0.92790000  0.49330000  1
  H  H14  1  0.75060000  0.15190000  0.06640000  1
  H  H15  1  0.75060000  0.84810000  0.43360000  1
  H  H16  1  0.84810000  0.24940000  0.18360000  1
  H  H17  1  0.84810000  0.75060000  0.31640000  1
  H  H18  1  0.92790000  0.39480000  0.24330000  1
  H  H19  1  0.92790000  0.60520000  0.25670000  1
  C  C20  1  0.09370000  0.44750000  0.58950000  1
  C  C21  1  0.09370000  0.55250000  0.91050000  1
  C  C22  1  0.11490000  0.35400000  0.72710000  1
  C  C23  1  0.11490000  0.64600000  0.77290000  1
  C  C24  1  0.13710000  0.36810000  0.64500000  1
  C  C25  1  0.13710000  0.63190000  0.85500000  1
  C  C26  1  0.14680000  0.29410000  0.02880000  1
  C  C27  1  0.14680000  0.70590000  0.47120000  1
  C  C28  1  0.16250000  0.27220000  0.76250000  1
  C  C29  1  0.16250000  0.72780000  0.73750000  1
  C  C30  1  0.22750000  0.23010000  0.70640000  1
  C  C31  1  0.22750000  0.76990000  0.79360000  1
  C  C32  1  0.23010000  0.22750000  0.04360000  1
  C  C33  1  0.23010000  0.77250000  0.45640000  1
  C  C34  1  0.27220000  0.16250000  0.98750000  1
  C  C35  1  0.27220000  0.83750000  0.51250000  1
  C  C36  1  0.29410000  0.14680000  0.72120000  1
  C  C37  1  0.29410000  0.85320000  0.77880000  1
  C  C38  1  0.35400000  0.11490000  0.02290000  1
  C  C39  1  0.35400000  0.88510000  0.47710000  1
  C  C40  1  0.36810000  0.13710000  0.10500000  1
  C  C41  1  0.36810000  0.86290000  0.39500000  1
  C  C42  1  0.44750000  0.09370000  0.16050000  1
  C  C43  1  0.44750000  0.90630000  0.33950000  1
  C  C44  1  0.55250000  0.09370000  0.83950000  1
  C  C45  1  0.55250000  0.90630000  0.66050000  1
  C  C46  1  0.63190000  0.13710000  0.89500000  1
  C  C47  1  0.63190000  0.86290000  0.60500000  1
  C  C48  1  0.64600000  0.11490000  0.97710000  1
  C  C49  1  0.64600000  0.88510000  0.52290000  1
  C  C50  1  0.70590000  0.14680000  0.27880000  1
  C  C51  1  0.70590000  0.85320000  0.22120000  1
  C  C52  1  0.72780000  0.16250000  0.01250000  1
  C  C53  1  0.72780000  0.83750000  0.48750000  1
  C  C54  1  0.76990000  0.22750000  0.95640000  1
  C  C55  1  0.76990000  0.77250000  0.54360000  1
  C  C56  1  0.77250000  0.23010000  0.29360000  1
  C  C57  1  0.77250000  0.76990000  0.20640000  1
  C  C58  1  0.83750000  0.27220000  0.23750000  1
  C  C59  1  0.83750000  0.72780000  0.26250000  1
  C  C60  1  0.85320000  0.29410000  0.97120000  1
  C  C61  1  0.85320000  0.70590000  0.52880000  1
  C  C62  1  0.86290000  0.36810000  0.35500000  1
  C  C63  1  0.86290000  0.63190000  0.14500000  1
  C  C64  1  0.88510000  0.35400000  0.27290000  1
  C  C65  1  0.88510000  0.64600000  0.22710000  1
  C  C66  1  0.90630000  0.44750000  0.41050000  1
  C  C67  1  0.90630000  0.55250000  0.08950000  1
  S  S68  1  0.22180000  0.28620000  0.61063000  1
  S  S69  1  0.22180000  0.71380000  0.88937000  1
  S  S70  1  0.28620000  0.22180000  0.13937000  1
  S  S71  1  0.28620000  0.77820000  0.36063000  1
  S  S72  1  0.71380000  0.22180000  0.86063000  1
  S  S73  1  0.71380000  0.77820000  0.63937000  1
  S  S74  1  0.77820000  0.28620000  0.38937000  1
  S  S75  1  0.77820000  0.71380000  0.11063000  1
  O  O76  1  0.02600000  0.49800000  0.88240000  1
  O  O77  1  0.02600000  0.50200000  0.61760000  1
  O  O78  1  0.10730000  0.30080000  0.95820000  1
  O  O79  1  0.10730000  0.69920000  0.54180000  1
  O  O80  1  0.11460000  0.34720000  0.08830000  1
  O  O81  1  0.11460000  0.65280000  0.41170000  1
  O  O82  1  0.12390000  0.45550000  0.51700000  1
  O  O83  1  0.12390000  0.54450000  0.98300000  1
  O  O84  1  0.30080000  0.10730000  0.79180000  1
  O  O85  1  0.30080000  0.89270000  0.70820000  1
  O  O86  1  0.34720000  0.11460000  0.66170000  1
  O  O87  1  0.34720000  0.88540000  0.83830000  1
  O  O88  1  0.45550000  0.12390000  0.23300000  1
  O  O89  1  0.45550000  0.87610000  0.26700000  1
  O  O90  1  0.49800000  0.02600000  0.86760000  1
  O  O91  1  0.49800000  0.97400000  0.63240000  1
  O  O92  1  0.50200000  0.02600000  0.13240000  1
  O  O93  1  0.50200000  0.97400000  0.36760000  1
  O  O94  1  0.54450000  0.12390000  0.76700000  1
  O  O95  1  0.54450000  0.87610000  0.73300000  1
  O  O96  1  0.65280000  0.11460000  0.33830000  1
  O  O97  1  0.65280000  0.88540000  0.16170000  1
  O  O98  1  0.69920000  0.10730000  0.20820000  1
  O  O99  1  0.69920000  0.89270000  0.29180000  1
  O  O100  1  0.87610000  0.45550000  0.48300000  1
  O  O101  1  0.87610000  0.54450000  0.01700000  1
  O  O102  1  0.88540000  0.34720000  0.91170000  1
  O  O103  1  0.88540000  0.65280000  0.58830000  1
  O  O104  1  0.89270000  0.30080000  0.04180000  1
  O  O105  1  0.89270000  0.69920000  0.45820000  1
  O  O106  1  0.97400000  0.49800000  0.11760000  1
  O  O107  1  0.97400000  0.50200000  0.38240000  1
