# generated using pymatgen
data_MnH4(C2O)4
_symmetry_space_group_name_H-M   'P 1'
_cell_length_a   10.82670000
_cell_length_b   13.50460000
_cell_length_c   14.44361332
_cell_angle_alpha   86.19900909
_cell_angle_beta   67.98846932
_cell_angle_gamma   66.36850000
_symmetry_Int_Tables_number   1
_chemical_formula_structural   MnH4(C2O)4
_chemical_formula_sum   'Mn6 H24 C48 O24'
_cell_volume   1784.90744249
_cell_formula_units_Z   6
loop_
 _symmetry_equiv_pos_site_id
 _symmetry_equiv_pos_as_xyz
  1  'x, y, z'
loop_
 _atom_site_type_symbol
 _atom_site_label
 _atom_site_symmetry_multiplicity
 _atom_site_fract_x
 _atom_site_fract_y
 _atom_site_fract_z
 _atom_site_occupancy
  Mn  Mn0  1  0.97143000  0.03813000  0.88893000  1
  Mn  Mn1  1  0.03555000  0.25000000  0.75000000  1
  Mn  Mn2  1  0.89849000  0.46187000  0.61107000  1
  Mn  Mn3  1  0.10151000  0.53813000  0.38893000  1
  Mn  Mn4  1  0.96445000  0.75000000  0.25000000  1
  Mn  Mn5  1  0.02857000  0.96187000  0.11107000  1
  H  H6  1  0.86300000  0.54100000  0.09240000  1
  H  H7  1  0.49640000  0.95900000  0.40760000  1
  H  H8  1  0.87680000  0.40790000  0.99090000  1
  H  H9  1  0.60770000  0.18760000  0.25320000  1
  H  H10  1  0.95050000  0.81970000  0.84790000  1
  H  H11  1  0.27560000  0.09210000  0.50910000  1
  H  H12  1  0.38190000  0.31970000  0.34790000  1
  H  H13  1  0.95150000  0.68760000  0.75320000  1
  H  H14  1  0.70890000  0.34060000  0.95120000  1
  H  H15  1  0.54350000  0.37780000  0.11600000  1
  H  H16  1  0.96270000  0.87780000  0.61600000  1
  H  H17  1  0.00070000  0.15940000  0.54880000  1
  H  H18  1  0.99930000  0.84060000  0.45120000  1
  H  H19  1  0.03730000  0.12220000  0.38400000  1
  H  H20  1  0.45650000  0.62220000  0.88400000  1
  H  H21  1  0.29110000  0.65940000  0.04880000  1
  H  H22  1  0.04850000  0.31240000  0.24680000  1
  H  H23  1  0.61810000  0.68030000  0.65210000  1
  H  H24  1  0.72440000  0.90790000  0.49090000  1
  H  H25  1  0.04950000  0.18030000  0.15210000  1
  H  H26  1  0.39230000  0.81240000  0.74680000  1
  H  H27  1  0.12320000  0.59210000  0.00910000  1
  H  H28  1  0.50360000  0.04100000  0.59240000  1
  H  H29  1  0.13700000  0.45900000  0.90760000  1
  C  C30  1  0.09698000  0.53163000  0.89661000  1
  C  C31  1  0.72402000  0.97516000  0.25960000  1
  C  C32  1  0.03486000  0.71921000  0.93927000  1
  C  C33  1  0.97314000  0.19486000  0.99606000  1
  C  C34  1  0.90975000  0.38856000  0.04314000  1
  C  C35  1  0.57520000  0.05984000  0.32056000  1
  C  C36  1  0.47478000  0.03163000  0.39661000  1
  C  C37  1  0.04440000  0.55984000  0.82056000  1
  C  C38  1  0.98532000  0.74758000  0.86138000  1
  C  C39  1  0.54021000  0.16804000  0.30374000  1
  C  C40  1  0.04122000  0.47516000  0.75960000  1
  C  C41  1  0.34145000  0.11144000  0.45686000  1
  C  C42  1  0.98801000  0.66804000  0.80374000  1
  C  C43  1  0.40572000  0.24758000  0.36138000  1
  C  C44  1  0.30666000  0.21921000  0.43927000  1
  C  C45  1  0.16406000  0.30514000  0.50394000  1
  C  C46  1  0.96100000  0.04405000  0.70415000  1
  C  C47  1  0.62507000  0.40485000  0.97081000  1
  C  C48  1  0.52567000  0.42686000  0.06940000  1
  C  C49  1  0.97955000  0.02189000  0.59841000  1
  C  C50  1  0.97807000  0.92686000  0.56940000  1
  C  C51  1  0.00073000  0.09515000  0.52919000  1
  C  C52  1  0.70920000  0.45595000  0.79585000  1
  C  C53  1  0.59985000  0.47811000  0.90159000  1
  C  C54  1  0.40015000  0.52189000  0.09841000  1
  C  C55  1  0.29080000  0.54405000  0.20415000  1
  C  C56  1  0.99927000  0.90485000  0.47081000  1
  C  C57  1  0.02193000  0.07314000  0.43060000  1
  C  C58  1  0.02045000  0.97811000  0.40159000  1
  C  C59  1  0.47433000  0.57314000  0.93060000  1
  C  C60  1  0.37493000  0.59515000  0.02919000  1
  C  C61  1  0.03900000  0.95595000  0.29585000  1
  C  C62  1  0.83594000  0.69486000  0.49606000  1
  C  C63  1  0.69334000  0.78079000  0.56073000  1
  C  C64  1  0.59428000  0.75242000  0.63862000  1
  C  C65  1  0.01199000  0.33196000  0.19626000  1
  C  C66  1  0.65855000  0.88856000  0.54314000  1
  C  C67  1  0.95878000  0.52484000  0.24040000  1
  C  C68  1  0.45979000  0.83196000  0.69626000  1
  C  C69  1  0.01468000  0.25242000  0.13862000  1
  C  C70  1  0.95560000  0.44016000  0.17944000  1
  C  C71  1  0.52522000  0.96837000  0.60339000  1
  C  C72  1  0.42480000  0.94016000  0.67944000  1
  C  C73  1  0.09025000  0.61144000  0.95686000  1
  C  C74  1  0.02686000  0.80514000  0.00394000  1
  C  C75  1  0.96514000  0.28079000  0.06073000  1
  C  C76  1  0.27598000  0.02484000  0.74040000  1
  C  C77  1  0.90302000  0.46837000  0.10339000  1
  O  O78  1  0.80513000  0.00885000  0.19129000  1
  O  O79  1  0.00681000  0.89869000  0.97555000  1
  O  O80  1  0.24314000  0.12069000  0.71743000  1
  O  O81  1  0.95740000  0.21589000  0.91373000  1
  O  O82  1  0.08126000  0.37931000  0.78257000  1
  O  O83  1  0.95287000  0.97246000  0.76280000  1
  O  O84  1  0.99473000  0.50885000  0.69129000  1
  O  O85  1  0.95353000  0.13324000  0.73170000  1
  O  O86  1  0.08702000  0.28411000  0.58627000  1
  O  O87  1  0.11895000  0.39869000  0.47555000  1
  O  O88  1  0.81847000  0.36676000  0.76830000  1
  O  O89  1  0.31187000  0.47246000  0.26280000  1
  O  O90  1  0.68813000  0.52754000  0.73720000  1
  O  O91  1  0.18153000  0.63324000  0.23170000  1
  O  O92  1  0.88105000  0.60131000  0.52445000  1
  O  O93  1  0.91298000  0.71589000  0.41373000  1
  O  O94  1  0.04647000  0.86676000  0.26830000  1
  O  O95  1  0.00527000  0.49115000  0.30871000  1
  O  O96  1  0.04713000  0.02754000  0.23720000  1
  O  O97  1  0.91874000  0.62069000  0.21743000  1
  O  O98  1  0.04260000  0.78411000  0.08627000  1
  O  O99  1  0.75686000  0.87931000  0.28257000  1
  O  O100  1  0.99319000  0.10131000  0.02445000  1
  O  O101  1  0.19487000  0.99115000  0.80871000  1
