# generated using pymatgen
data_CuH8C8(NO3)2
_symmetry_space_group_name_H-M   'P 1'
_cell_length_a   11.70900000
_cell_length_b   12.62600000
_cell_length_c   13.19486729
_cell_angle_alpha   103.48203406
_cell_angle_beta   116.33971309
_cell_angle_gamma   90.00000000
_symmetry_Int_Tables_number   1
_chemical_formula_structural   CuH8C8(NO3)2
_chemical_formula_sum   'Cu3 H24 C24 N6 O18'
_cell_volume   1687.98455743
_cell_formula_units_Z   3
loop_
 _symmetry_equiv_pos_site_id
 _symmetry_equiv_pos_as_xyz
  1  'x, y, z'
loop_
 _atom_site_type_symbol
 _atom_site_label
 _atom_site_symmetry_multiplicity
 _atom_site_fract_x
 _atom_site_fract_y
 _atom_site_fract_z
 _atom_site_occupancy
  Cu  Cu0  1  0.00000000  0.50000000  1.00000000  1
  Cu  Cu1  1  0.98647000  0.09456000  0.97294000  1
  Cu  Cu2  1  0.01353000  0.90544000  0.02706000  1
  H  H3  1  0.41240000  0.02410000  0.35820000  1
  H  H4  1  0.79850000  0.15690000  0.73100000  1
  H  H5  1  0.37590000  0.17640000  0.28760000  1
  H  H6  1  0.75350000  0.30150000  0.64100000  1
  H  H7  1  0.42500000  0.95620000  0.24840000  1
  H  H8  1  0.93250000  0.15690000  0.73100000  1
  H  H9  1  0.41190000  0.12300000  0.18780000  1
  H  H10  1  0.88750000  0.30150000  0.64100000  1
  H  H11  1  0.08830000  0.82360000  0.71240000  1
  H  H12  1  0.22410000  0.87700000  0.81220000  1
  H  H13  1  0.05420000  0.97590000  0.64180000  1
  H  H14  1  0.17660000  0.04380000  0.75160000  1
  H  H15  1  0.82340000  0.95620000  0.24840000  1
  H  H16  1  0.94580000  0.02410000  0.35820000  1
  H  H17  1  0.77590000  0.12300000  0.18780000  1
  H  H18  1  0.91170000  0.17640000  0.28760000  1
  H  H19  1  0.11250000  0.69850000  0.35900000  1
  H  H20  1  0.58810000  0.87700000  0.81220000  1
  H  H21  1  0.06750000  0.84310000  0.26900000  1
  H  H22  1  0.57500000  0.04380000  0.75160000  1
  H  H23  1  0.24650000  0.69850000  0.35900000  1
  H  H24  1  0.62410000  0.82360000  0.71240000  1
  H  H25  1  0.20150000  0.84310000  0.26900000  1
  H  H26  1  0.58760000  0.97590000  0.64180000  1
  C  C27  1  0.92700000  0.28670000  0.85400000  1
  C  C28  1  0.22988000  0.06950000  0.14996000  1
  C  C29  1  0.86830000  0.20330000  0.73660000  1
  C  C30  1  0.36980000  0.10790000  0.23260000  1
  C  C31  1  0.44190000  0.02870000  0.30100000  1
  C  C32  1  0.63149000  0.13640000  0.47218000  1
  C  C33  1  0.81810000  0.25540000  0.63620000  1
  C  C34  1  0.07992000  0.93050000  0.85004000  1
  C  C35  1  0.65140000  0.02910000  0.30280000  1
  C  C36  1  0.84069000  0.13640000  0.47218000  1
  C  C37  1  0.13720000  0.89210000  0.76740000  1
  C  C38  1  0.14090000  0.97130000  0.69900000  1
  C  C39  1  0.85910000  0.02870000  0.30100000  1
  C  C40  1  0.86280000  0.10790000  0.23260000  1
  C  C41  1  0.15931000  0.86360000  0.52782000  1
  C  C42  1  0.34860000  0.97090000  0.69720000  1
  C  C43  1  0.92008000  0.06950000  0.14996000  1
  C  C44  1  0.18190000  0.74460000  0.36380000  1
  C  C45  1  0.36851000  0.86360000  0.52782000  1
  C  C46  1  0.55810000  0.97130000  0.69900000  1
  C  C47  1  0.63020000  0.89210000  0.76740000  1
  C  C48  1  0.13170000  0.79670000  0.26340000  1
  C  C49  1  0.77012000  0.93050000  0.85004000  1
  C  C50  1  0.07300000  0.71330000  0.14600000  1
  N  N51  1  0.58083000  0.06480000  0.36166000  1
  N  N52  1  0.76150000  0.17120000  0.52300000  1
  N  N53  1  0.78083000  0.06480000  0.36166000  1
  N  N54  1  0.21917000  0.93520000  0.63834000  1
  N  N55  1  0.23850000  0.82880000  0.47700000  1
  N  N56  1  0.41917000  0.93520000  0.63834000  1
  O  O57  1  0.97289000  0.25260000  0.94578000  1
  O  O58  1  0.56664000  0.16620000  0.52028000  1
  O  O59  1  0.18951000  0.97420000  0.14022000  1
  O  O60  1  0.16587000  0.13340000  0.09554000  1
  O  O61  1  0.92820000  0.38560000  0.85640000  1
  O  O62  1  0.07033000  0.86660000  0.90446000  1
  O  O63  1  0.04929000  0.02580000  0.85978000  1
  O  O64  1  0.60230000  0.97240000  0.20460000  1
  O  O65  1  0.95364000  0.16620000  0.52028000  1
  O  O66  1  0.04636000  0.83380000  0.47972000  1
  O  O67  1  0.39770000  0.02760000  0.79540000  1
  O  O68  1  0.95071000  0.97420000  0.14022000  1
  O  O69  1  0.92967000  0.13340000  0.09554000  1
  O  O70  1  0.07180000  0.61440000  0.14360000  1
  O  O71  1  0.83413000  0.86660000  0.90446000  1
  O  O72  1  0.81049000  0.02580000  0.85978000  1
  O  O73  1  0.43336000  0.83380000  0.47972000  1
  O  O74  1  0.02711000  0.74740000  0.05422000  1
