# generated using pymatgen
data_MgC6SO4
_symmetry_space_group_name_H-M   'P 1'
_cell_length_a   13.23886654
_cell_length_b   13.23886654
_cell_length_c   15.56370000
_cell_angle_alpha   86.76157494
_cell_angle_beta   86.76157494
_cell_angle_gamma   61.09362208
_symmetry_Int_Tables_number   1
_chemical_formula_structural   MgC6SO4
_chemical_formula_sum   'Mg6 C36 S6 O24'
_cell_volume   2382.81318488
_cell_formula_units_Z   6
loop_
 _symmetry_equiv_pos_site_id
 _symmetry_equiv_pos_as_xyz
  1  'x, y, z'
loop_
 _atom_site_type_symbol
 _atom_site_label
 _atom_site_symmetry_multiplicity
 _atom_site_fract_x
 _atom_site_fract_y
 _atom_site_fract_z
 _atom_site_occupancy
  C  C0  1  0.93140000  0.10220000  0.53650000  1
  C  C1  1  0.19660000  0.84600000  0.96430000  1
  C  C2  1  0.04010000  0.02510000  0.55980000  1
  C  C3  1  0.11560000  0.95520000  0.93860000  1
  C  C4  1  0.10890000  0.03370000  0.62970000  1
  C  C5  1  0.12550000  0.03230000  0.86820000  1
  C  C6  1  0.57910000  0.67750000  0.96870000  1
  C  C7  1  0.65840000  0.64060000  0.04180000  1
  C  C8  1  0.47840000  0.85180000  0.86780000  1
  C  C9  1  0.48330000  0.85130000  0.62650000  1
  C  C10  1  0.54970000  0.78630000  0.94190000  1
  C  C11  1  0.68300000  0.72340000  0.06440000  1
  C  C12  1  0.57150000  0.83690000  0.55940000  1
  C  C13  1  0.13190000  0.30170000  0.53170000  1
  C  C14  1  0.75930000  0.71530000  0.13330000  1
  C  C15  1  0.09160000  0.38460000  0.46290000  1
  C  C16  1  0.71710000  0.76310000  0.43940000  1
  C  C17  1  0.79690000  0.69350000  0.37090000  1
  C  C18  1  0.30650000  0.20310000  0.62910000  1
  C  C19  1  0.23690000  0.28290000  0.56060000  1
  C  C20  1  0.61540000  0.90840000  0.53710000  1
  C  C21  1  0.28470000  0.24070000  0.86670000  1
  C  C22  1  0.69830000  0.86810000  0.46830000  1
  C  C23  1  0.16310000  0.42850000  0.44060000  1
  C  C24  1  0.27660000  0.31700000  0.93560000  1
  C  C25  1  0.21370000  0.45030000  0.05810000  1
  C  C26  1  0.14870000  0.51670000  0.37350000  1
  C  C27  1  0.14820000  0.52160000  0.13220000  1
  C  C28  1  0.35940000  0.34160000  0.95820000  1
  C  C29  1  0.32250000  0.42090000  0.03130000  1
  C  C30  1  0.96770000  0.87450000  0.13180000  1
  C  C31  1  0.96630000  0.89110000  0.37030000  1
  C  C32  1  0.04480000  0.88440000  0.06140000  1
  C  C33  1  0.97490000  0.95990000  0.44020000  1
  C  C34  1  0.15400000  0.80340000  0.03570000  1
  C  C35  1  0.89780000  0.06860000  0.46350000  1
  Mg  Mg36  1  0.32141000  0.86699000  0.73406000  1
  Mg  Mg37  1  0.12519000  0.18281000  0.76204000  1
  Mg  Mg38  1  0.93923000  0.55707000  0.25496000  1
  Mg  Mg39  1  0.44293000  0.06077000  0.74504000  1
  Mg  Mg40  1  0.81719000  0.87481000  0.23796000  1
  Mg  Mg41  1  0.13301000  0.67859000  0.26594000  1
  O  O42  1  0.20450000  0.94810000  0.64090000  1
  O  O43  1  0.04580000  0.13360000  0.86370000  1
  O  O44  1  0.06140000  0.12560000  0.66990000  1
  O  O45  1  0.21207000  0.99607000  0.81650000  1
  O  O46  1  0.45080000  0.77540000  0.63600000  1
  O  O47  1  0.43680000  0.80000000  0.82950000  1
  O  O48  1  0.44190000  0.93670000  0.67350000  1
  O  O49  1  0.46740000  0.94900000  0.84880000  1
  O  O50  1  0.82730000  0.58910000  0.36760000  1
  O  O51  1  0.25800000  0.16340000  0.68320000  1
  O  O52  1  0.80620000  0.62240000  0.17500000  1
  O  O53  1  0.19590000  0.23390000  0.85440000  1
  O  O54  1  0.76610000  0.80410000  0.14560000  1
  O  O55  1  0.37760000  0.19380000  0.82500000  1
  O  O56  1  0.83660000  0.74200000  0.31680000  1
  O  O57  1  0.41090000  0.17270000  0.63240000  1
  O  O58  1  0.05100000  0.53260000  0.15120000  1
  O  O59  1  0.06330000  0.55810000  0.32650000  1
  O  O60  1  0.20000000  0.56320000  0.17050000  1
  O  O61  1  0.22460000  0.54920000  0.36400000  1
  O  O62  1  0.00393000  0.78793000  0.18350000  1
  O  O63  1  0.87440000  0.93860000  0.33010000  1
  O  O64  1  0.86640000  0.95420000  0.13630000  1
  O  O65  1  0.05190000  0.79550000  0.35910000  1
  S  S66  1  0.09549000  0.90451000  0.50000000  1
  S  S67  1  0.99283000  0.00717000  0.00000000  1
  S  S68  1  0.63210000  0.71680000  0.49698000  1
  S  S69  1  0.61501000  0.84543000  0.00049000  1
  S  S70  1  0.15457000  0.38499000  0.99951000  1
  S  S71  1  0.28320000  0.36790000  0.50302000  1
