# generated using pymatgen
data_Zn5H10(C8O9)2
_symmetry_space_group_name_H-M   'P 1'
_cell_length_a   9.15860000
_cell_length_b   9.79690000
_cell_length_c   9.87300000
_cell_angle_alpha   77.59800000
_cell_angle_beta   89.94700000
_cell_angle_gamma   88.06000000
_symmetry_Int_Tables_number   1
_chemical_formula_structural   Zn5H10(C8O9)2
_chemical_formula_sum   'Zn5 H10 C16 O18'
_cell_volume   864.67769556
_cell_formula_units_Z   1
loop_
 _symmetry_equiv_pos_site_id
 _symmetry_equiv_pos_as_xyz
  1  'x, y, z'
loop_
 _atom_site_type_symbol
 _atom_site_label
 _atom_site_symmetry_multiplicity
 _atom_site_fract_x
 _atom_site_fract_y
 _atom_site_fract_z
 _atom_site_occupancy
  Zn  Zn0  1  0.00000000  0.50000000  0.00000000  1
  Zn  Zn1  1  0.22020000  0.28676000  0.19110000  1
  Zn  Zn2  1  0.30280000  0.62976000  0.08942000  1
  Zn  Zn3  1  0.69720000  0.37024000  0.91058000  1
  Zn  Zn4  1  0.77980000  0.71324000  0.80890000  1
  H  H5  1  0.09930000  0.39860000  0.57130000  1
  H  H6  1  0.10350000  0.02320000  0.09490000  1
  H  H7  1  0.27140000  0.45170000  0.94960000  1
  H  H8  1  0.38610000  0.92250000  0.06980000  1
  H  H9  1  0.48970000  0.64520000  0.46770000  1
  H  H10  1  0.51030000  0.35480000  0.53230000  1
  H  H11  1  0.61390000  0.07750000  0.93020000  1
  H  H12  1  0.72860000  0.54830000  0.05040000  1
  H  H13  1  0.89650000  0.97680000  0.90510000  1
  H  H14  1  0.90070000  0.60140000  0.42870000  1
  C  C15  1  0.01520000  0.47430000  0.31070000  1
  C  C16  1  0.02250000  0.04660000  0.03330000  1
  C  C17  1  0.02840000  0.47310000  0.56220000  1
  C  C18  1  0.05010000  0.81090000  0.98480000  1
  C  C19  1  0.40620000  0.45260000  0.34190000  1
  C  C20  1  0.45190000  0.18820000  0.01930000  1
  C  C21  1  0.47400000  0.93530000  0.01810000  1
  C  C22  1  0.48380000  0.44430000  0.47740000  1
  C  C23  1  0.51620000  0.55570000  0.52260000  1
  C  C24  1  0.52600000  0.06470000  0.98190000  1
  C  C25  1  0.54810000  0.81180000  0.98070000  1
  C  C26  1  0.59380000  0.54740000  0.65810000  1
  C  C27  1  0.94990000  0.18910000  0.01520000  1
  C  C28  1  0.97160000  0.52690000  0.43780000  1
  C  C29  1  0.97750000  0.95340000  0.96670000  1
  C  C30  1  0.98480000  0.52570000  0.68930000  1
  O  O31  1  0.00530000  0.27580000  0.07600000  1
  O  O32  1  0.03300000  0.45710000  0.80370000  1
  O  O33  1  0.09700000  0.36640000  0.32820000  1
  O  O34  1  0.16500000  0.78910000  0.05850000  1
  O  O35  1  0.22130000  0.47020000  0.03430000  1
  O  O36  1  0.32860000  0.17080000  0.07510000  1
  O  O37  1  0.35450000  0.57280000  0.28400000  1
  O  O38  1  0.39850000  0.34180000  0.29920000  1
  O  O39  1  0.48600000  0.69550000  0.00290000  1
  O  O40  1  0.51400000  0.30450000  0.99710000  1
  O  O41  1  0.60150000  0.65820000  0.70080000  1
  O  O42  1  0.64550000  0.42720000  0.71600000  1
  O  O43  1  0.67140000  0.82920000  0.92490000  1
  O  O44  1  0.77870000  0.52980000  0.96570000  1
  O  O45  1  0.83500000  0.21090000  0.94150000  1
  O  O46  1  0.90300000  0.63360000  0.67180000  1
  O  O47  1  0.96700000  0.54290000  0.19630000  1
  O  O48  1  0.99470000  0.72420000  0.92400000  1
