# generated using pymatgen
data_Co9H72C108(N9O19)2
_symmetry_space_group_name_H-M   'P 1'
_cell_length_a   13.18520000
_cell_length_b   20.01980000
_cell_length_c   20.01980000
_cell_angle_alpha   76.76800000
_cell_angle_beta   72.33600000
_cell_angle_gamma   72.33610000
_symmetry_Int_Tables_number   1
_chemical_formula_structural   Co9H72C108(N9O19)2
_chemical_formula_sum   'Co9 H72 C108 N18 O38'
_cell_volume   4743.17776214
_cell_formula_units_Z   1
loop_
 _symmetry_equiv_pos_site_id
 _symmetry_equiv_pos_as_xyz
  1  'x, y, z'
loop_
 _atom_site_type_symbol
 _atom_site_label
 _atom_site_symmetry_multiplicity
 _atom_site_fract_x
 _atom_site_fract_y
 _atom_site_fract_z
 _atom_site_occupancy
  Co  Co0  1  0.00000000  0.00000000  0.00000000  1
  Co  Co1  1  0.93259000  0.72433000  0.72433000  1
  Co  Co2  1  0.67754000  0.70746000  0.70746000  1
  Co  Co3  1  0.56307000  0.69267000  0.18197000  1
  Co  Co4  1  0.56307000  0.18197000  0.69267000  1
  Co  Co5  1  0.43693000  0.81803000  0.30733000  1
  Co  Co6  1  0.43693000  0.30733000  0.81803000  1
  Co  Co7  1  0.32246000  0.29254000  0.29254000  1
  Co  Co8  1  0.06741000  0.27567000  0.27567000  1
  H  H9  1  0.96840000  0.84920000  0.03440000  1
  H  H10  1  0.96840000  0.03440000  0.84920000  1
  H  H11  1  0.91170000  0.88830000  0.88830000  1
  H  H12  1  0.89840000  0.56680000  0.27940000  1
  H  H13  1  0.89840000  0.27940000  0.56680000  1
  H  H14  1  0.85490000  0.82720000  0.82720000  1
  H  H15  1  0.85120000  0.26140000  0.26140000  1
  H  H16  1  0.84550000  0.78210000  0.09390000  1
  H  H17  1  0.84550000  0.09390000  0.78210000  1
  H  H18  1  0.83920000  0.94500000  0.68800000  1
  H  H19  1  0.83920000  0.68800000  0.94500000  1
  H  H20  1  0.80700000  0.43920000  0.19600000  1
  H  H21  1  0.80700000  0.19600000  0.43920000  1
  H  H22  1  0.79400000  0.65540000  0.56060000  1
  H  H23  1  0.79400000  0.56060000  0.65540000  1
  H  H24  1  0.77860000  0.20510000  0.20510000  1
  H  H25  1  0.77580000  0.68230000  0.06570000  1
  H  H26  1  0.77580000  0.06570000  0.68230000  1
  H  H27  1  0.77090000  0.11360000  0.01500000  1
  H  H28  1  0.77090000  0.01500000  0.11360000  1
  H  H29  1  0.75760000  0.65740000  0.24980000  1
  H  H30  1  0.75760000  0.24980000  0.65740000  1
  H  H31  1  0.74670000  0.65110000  0.45890000  1
  H  H32  1  0.74670000  0.45890000  0.65110000  1
  H  H33  1  0.66600000  0.53430000  0.17110000  1
  H  H34  1  0.66600000  0.17110000  0.53430000  1
  H  H35  1  0.64710000  0.95200000  0.17820000  1
  H  H36  1  0.64710000  0.17820000  0.95200000  1
  H  H37  1  0.55560000  0.81190000  0.60890000  1
  H  H38  1  0.55560000  0.60890000  0.81190000  1
  H  H39  1  0.54380000  0.93630000  0.68250000  1
  H  H40  1  0.54380000  0.68250000  0.93630000  1
  H  H41  1  0.51740000  0.83200000  0.49460000  1
  H  H42  1  0.51740000  0.49460000  0.83200000  1
  H  H43  1  0.51210000  0.94170000  0.32270000  1
  H  H44  1  0.51210000  0.32270000  0.94170000  1
  H  H45  1  0.48790000  0.67730000  0.05830000  1
  H  H46  1  0.48790000  0.05830000  0.67730000  1
  H  H47  1  0.48260000  0.50540000  0.16800000  1
  H  H48  1  0.48260000  0.16800000  0.50540000  1
  H  H49  1  0.45620000  0.31750000  0.06370000  1
  H  H50  1  0.45620000  0.06370000  0.31750000  1
  H  H51  1  0.44440000  0.39110000  0.18810000  1
  H  H52  1  0.44440000  0.18810000  0.39110000  1
  H  H53  1  0.35290000  0.82180000  0.04800000  1
  H  H54  1  0.35290000  0.04800000  0.82180000  1
  H  H55  1  0.33400000  0.82890000  0.46570000  1
  H  H56  1  0.33400000  0.46570000  0.82890000  1
  H  H57  1  0.25330000  0.54110000  0.34890000  1
  H  H58  1  0.25330000  0.34890000  0.54110000  1
  H  H59  1  0.24240000  0.75020000  0.34260000  1
  H  H60  1  0.24240000  0.34260000  0.75020000  1
  H  H61  1  0.22910000  0.98500000  0.88640000  1
  H  H62  1  0.22910000  0.88640000  0.98500000  1
  H  H63  1  0.22420000  0.93430000  0.31770000  1
  H  H64  1  0.22420000  0.31770000  0.93430000  1
  H  H65  1  0.22140000  0.79490000  0.79490000  1
  H  H66  1  0.20600000  0.43940000  0.34460000  1
  H  H67  1  0.20600000  0.34460000  0.43940000  1
  H  H68  1  0.19300000  0.80400000  0.56080000  1
  H  H69  1  0.19300000  0.56080000  0.80400000  1
  H  H70  1  0.16080000  0.31200000  0.05500000  1
  H  H71  1  0.16080000  0.05500000  0.31200000  1
  H  H72  1  0.15450000  0.90610000  0.21790000  1
  H  H73  1  0.15450000  0.21790000  0.90610000  1
  H  H74  1  0.14880000  0.73860000  0.73860000  1
  H  H75  1  0.14510000  0.17280000  0.17280000  1
  H  H76  1  0.10160000  0.72060000  0.43320000  1
  H  H77  1  0.10160000  0.43320000  0.72060000  1
  H  H78  1  0.08830000  0.11170000  0.11170000  1
  H  H79  1  0.03160000  0.96560000  0.15080000  1
  H  H80  1  0.03160000  0.15080000  0.96560000  1
  C  C81  1  0.96320000  0.85800000  0.85800000  1
  C  C82  1  0.95840000  0.43010000  0.26230000  1
  C  C83  1  0.95840000  0.26230000  0.43010000  1
  C  C84  1  0.92990000  0.82080000  0.82080000  1
  C  C85  1  0.92620000  0.15120000  0.15120000  1
  C  C86  1  0.90160000  0.87102000  0.06262000  1
  C  C87  1  0.90160000  0.06262000  0.87102000  1
  C  C88  1  0.90030000  0.23060000  0.23060000  1
  C  C89  1  0.88510000  0.11280000  0.11280000  1
  C  C90  1  0.86710000  0.49260000  0.24240000  1
  C  C91  1  0.86710000  0.24240000  0.49260000  1
  C  C92  1  0.85430000  0.19690000  0.19690000  1
  C  C93  1  0.85180000  0.55840000  0.25720000  1
  C  C94  1  0.85180000  0.25720000  0.55840000  1
  C  C95  1  0.82870000  0.82972000  0.09872000  1
  C  C96  1  0.82870000  0.09872000  0.82972000  1
  C  C97  1  0.79820000  0.48288000  0.20848000  1
  C  C98  1  0.79820000  0.20848000  0.48288000  1
  C  C99  1  0.78690000  0.96749000  0.10929000  1
  C  C100  1  0.78690000  0.10929000  0.96749000  1
  C  C101  1  0.76680000  0.96681000  0.68621000  1
  C  C102  1  0.76680000  0.68621000  0.96681000  1
  C  C103  1  0.76650000  0.61280000  0.23900000  1
  C  C104  1  0.76650000  0.23900000  0.61280000  1
  C  C105  1  0.73590000  0.84576000  0.69516000  1
  C  C106  1  0.73590000  0.69516000  0.84576000  1
  C  C107  1  0.72890000  0.86159000  0.14279000  1
  C  C108  1  0.72890000  0.14279000  0.86159000  1
  C  C109  1  0.72870000  0.68600000  0.55220000  1
  C  C110  1  0.72870000  0.55220000  0.68600000  1
  C  C111  1  0.72860000  0.68271000  0.03911000  1
  C  C112  1  0.72860000  0.03911000  0.68271000  1
  C  C113  1  0.71380000  0.54140000  0.19320000  1
  C  C114  1  0.71380000  0.19320000  0.54140000  1
  C  C115  1  0.71140000  0.92976000  0.14796000  1
  C  C116  1  0.71140000  0.14796000  0.92976000  1
  C  C117  1  0.70650000  0.68620000  0.48700000  1
  C  C118  1  0.70650000  0.48700000  0.68620000  1
  C  C119  1  0.69820000  0.92685000  0.68705000  1
  C  C120  1  0.69820000  0.68705000  0.92685000  1
  C  C121  1  0.64460000  0.81997000  0.18237000  1
  C  C122  1  0.64460000  0.18237000  0.81997000  1
  C  C123  1  0.62340000  0.74020000  0.46760000  1
  C  C124  1  0.62340000  0.46760000  0.74020000  1
  C  C125  1  0.59430000  0.77870000  0.57830000  1
  C  C126  1  0.59430000  0.57830000  0.77870000  1
  C  C127  1  0.59240000  0.96140000  0.68300000  1
  C  C128  1  0.59240000  0.68300000  0.96140000  1
  C  C129  1  0.59010000  0.74860000  0.39880000  1
  C  C130  1  0.59010000  0.39880000  0.74860000  1
  C  C131  1  0.56810000  0.79150000  0.50890000  1
  C  C132  1  0.56810000  0.50890000  0.79150000  1
  C  C133  1  0.55960000  0.67965000  0.03485000  1
  C  C134  1  0.55960000  0.03485000  0.67965000  1
  C  C135  1  0.44040000  0.96515000  0.32035000  1
  C  C136  1  0.44040000  0.32035000  0.96515000  1
  C  C137  1  0.43190000  0.49110000  0.20850000  1
  C  C138  1  0.43190000  0.20850000  0.49110000  1
  C  C139  1  0.40990000  0.60120000  0.25140000  1
  C  C140  1  0.40990000  0.25140000  0.60120000  1
  C  C141  1  0.40760000  0.31700000  0.03860000  1
  C  C142  1  0.40760000  0.03860000  0.31700000  1
  C  C143  1  0.40570000  0.42170000  0.22130000  1
  C  C144  1  0.40570000  0.22130000  0.42170000  1
  C  C145  1  0.37660000  0.53240000  0.25980000  1
  C  C146  1  0.37660000  0.25980000  0.53240000  1
  C  C147  1  0.35540000  0.81763000  0.18003000  1
  C  C148  1  0.35540000  0.18003000  0.81763000  1
  C  C149  1  0.30180000  0.31295000  0.07315000  1
  C  C150  1  0.30180000  0.07315000  0.31295000  1
  C  C151  1  0.29350000  0.51300000  0.31380000  1
  C  C152  1  0.29350000  0.31380000  0.51300000  1
  C  C153  1  0.28860000  0.85204000  0.07024000  1
  C  C154  1  0.28860000  0.07024000  0.85204000  1
  C  C155  1  0.28620000  0.80680000  0.45860000  1
  C  C156  1  0.28620000  0.45860000  0.80680000  1
  C  C157  1  0.27140000  0.96089000  0.31729000  1
  C  C158  1  0.27140000  0.31729000  0.96089000  1
  C  C159  1  0.27130000  0.44780000  0.31400000  1
  C  C160  1  0.27130000  0.31400000  0.44780000  1
  C  C161  1  0.27110000  0.85721000  0.13841000  1
  C  C162  1  0.27110000  0.13841000  0.85721000  1
  C  C163  1  0.26410000  0.30484000  0.15424000  1
  C  C164  1  0.26410000  0.15424000  0.30484000  1
  C  C165  1  0.23350000  0.76100000  0.38720000  1
  C  C166  1  0.23350000  0.38720000  0.76100000  1
  C  C167  1  0.23320000  0.31379000  0.03319000  1
  C  C168  1  0.23320000  0.03319000  0.31379000  1
  C  C169  1  0.21310000  0.89071000  0.03251000  1
  C  C170  1  0.21310000  0.03251000  0.89071000  1
  C  C171  1  0.20180000  0.79152000  0.51712000  1
  C  C172  1  0.20180000  0.51712000  0.79152000  1
  C  C173  1  0.17130000  0.90128000  0.17028000  1
  C  C174  1  0.17130000  0.17028000  0.90128000  1
  C  C175  1  0.14820000  0.74280000  0.44160000  1
  C  C176  1  0.14820000  0.44160000  0.74280000  1
  C  C177  1  0.14570000  0.80310000  0.80310000  1
  C  C178  1  0.13290000  0.75760000  0.50740000  1
  C  C179  1  0.13290000  0.50740000  0.75760000  1
  C  C180  1  0.11490000  0.88720000  0.88720000  1
  C  C181  1  0.09970000  0.76940000  0.76940000  1
  C  C182  1  0.09840000  0.93738000  0.12898000  1
  C  C183  1  0.09840000  0.12898000  0.93738000  1
  C  C184  1  0.07380000  0.84880000  0.84880000  1
  C  C185  1  0.07010000  0.17920000  0.17920000  1
  C  C186  1  0.04160000  0.73770000  0.56990000  1
  C  C187  1  0.04160000  0.56990000  0.73770000  1
  C  C188  1  0.03680000  0.14200000  0.14200000  1
  N  N189  1  0.99910000  0.77669000  0.77669000  1
  N  N190  1  0.88330000  0.93888000  0.06536000  1
  N  N191  1  0.88330000  0.06536000  0.93888000  1
  N  N192  1  0.69620000  0.60568000  0.20712000  1
  N  N193  1  0.69620000  0.20712000  0.60568000  1
  N  N194  1  0.66920000  0.72320000  0.60020000  1
  N  N195  1  0.66920000  0.60020000  0.72320000  1
  N  N196  1  0.62540000  0.67971000  0.07219000  1
  N  N197  1  0.62540000  0.07219000  0.67971000  1
  N  N198  1  0.37460000  0.92781000  0.32029000  1
  N  N199  1  0.37460000  0.32029000  0.92781000  1
  N  N200  1  0.33080000  0.39980000  0.27680000  1
  N  N201  1  0.33080000  0.27680000  0.39980000  1
  N  N202  1  0.30380000  0.79288000  0.39432000  1
  N  N203  1  0.30380000  0.39432000  0.79288000  1
  N  N204  1  0.11670000  0.93464000  0.06112000  1
  N  N205  1  0.11670000  0.06112000  0.93464000  1
  N  N206  1  0.00090000  0.22331000  0.22331000  1
  O  O207  1  0.97450000  0.71410000  0.55550000  1
  O  O208  1  0.97450000  0.55550000  0.71410000  1
  O  O209  1  0.95620000  0.37172000  0.25550000  1
  O  O210  1  0.95620000  0.25550000  0.37172000  1
  O  O211  1  0.95590000  0.07201000  0.07201000  1
  O  O212  1  0.83110000  0.82099000  0.70163000  1
  O  O213  1  0.83110000  0.70163000  0.82099000  1
  O  O214  1  0.78460000  0.12297000  0.12297000  1
  O  O215  1  0.67130000  0.81354000  0.69396000  1
  O  O216  1  0.67130000  0.69396000  0.81354000  1
  O  O217  1  0.66400000  0.75874000  0.16638000  1
  O  O218  1  0.66400000  0.16638000  0.75874000  1
  O  O219  1  0.62460000  0.69273000  0.37093000  1
  O  O220  1  0.62460000  0.37093000  0.69273000  1
  O  O221  1  0.56370000  0.84860000  0.22604000  1
  O  O222  1  0.56370000  0.22604000  0.84860000  1
  O  O223  1  0.52870000  0.79999000  0.38039000  1
  O  O224  1  0.52870000  0.38039000  0.79999000  1
  O  O225  1  0.50000000  0.70856000  0.29144000  1
  O  O226  1  0.50000000  0.29144000  0.70856000  1
  O  O227  1  0.47130000  0.61961000  0.20001000  1
  O  O228  1  0.47130000  0.20001000  0.61961000  1
  O  O229  1  0.43630000  0.77396000  0.15140000  1
  O  O230  1  0.43630000  0.15140000  0.77396000  1
  O  O231  1  0.37540000  0.62907000  0.30727000  1
  O  O232  1  0.37540000  0.30727000  0.62907000  1
  O  O233  1  0.33600000  0.83362000  0.24126000  1
  O  O234  1  0.33600000  0.24126000  0.83362000  1
  O  O235  1  0.32870000  0.30604000  0.18646000  1
  O  O236  1  0.32870000  0.18646000  0.30604000  1
  O  O237  1  0.21540000  0.87703000  0.87703000  1
  O  O238  1  0.16890000  0.29837000  0.17901000  1
  O  O239  1  0.16890000  0.17901000  0.29837000  1
  O  O240  1  0.04410000  0.92799000  0.92799000  1
  O  O241  1  0.04380000  0.74450000  0.62828000  1
  O  O242  1  0.04380000  0.62828000  0.74450000  1
  O  O243  1  0.02550000  0.44450000  0.28590000  1
  O  O244  1  0.02550000  0.28590000  0.44450000  1
