# generated using pymatgen
data_Cu3H22(C7O2)6
_symmetry_space_group_name_H-M   'P 1'
_cell_length_a   24.60550000
_cell_length_b   26.54890000
_cell_length_c   26.54876565
_cell_angle_alpha   77.59966337
_cell_angle_beta   62.39324178
_cell_angle_gamma   62.39310000
_symmetry_Int_Tables_number   1
_chemical_formula_structural   Cu3H22(C7O2)6
_chemical_formula_sum   'Cu12 H88 C168 O48'
_cell_volume   13618.70864802
_cell_formula_units_Z   4
loop_
 _symmetry_equiv_pos_site_id
 _symmetry_equiv_pos_as_xyz
  1  'x, y, z'
loop_
 _atom_site_type_symbol
 _atom_site_label
 _atom_site_symmetry_multiplicity
 _atom_site_fract_x
 _atom_site_fract_y
 _atom_site_fract_z
 _atom_site_occupancy
  Cu  Cu0  1  0.03987000  0.96013000  0.96013000  1
  Cu  Cu1  1  0.96013000  0.03987000  0.03987000  1
  Cu  Cu2  1  0.46184000  0.98341000  0.49251000  1
  Cu  Cu3  1  0.93776000  0.50749000  0.01659000  1
  Cu  Cu4  1  0.06224000  0.98341000  0.49251000  1
  Cu  Cu5  1  0.53816000  0.50749000  0.01659000  1
  Cu  Cu6  1  0.00000000  0.46019000  0.53981000  1
  Cu  Cu7  1  0.00000000  0.53981000  0.46019000  1
  Cu  Cu8  1  0.46184000  0.49251000  0.98341000  1
  Cu  Cu9  1  0.93776000  0.01659000  0.50749000  1
  Cu  Cu10  1  0.06224000  0.49251000  0.98341000  1
  Cu  Cu11  1  0.53816000  0.01659000  0.50749000  1
  H  H12  1  0.82210000  0.96770000  0.15090000  1
  H  H13  1  0.94070000  0.84910000  0.03230000  1
  H  H14  1  0.79360000  0.82450000  0.17550000  1
  H  H15  1  0.00670000  0.25180000  0.95380000  1
  H  H16  1  0.21230000  0.04620000  0.74820000  1
  H  H17  1  0.97190000  0.34080000  0.98500000  1
  H  H18  1  0.29770000  0.01500000  0.65920000  1
  H  H19  1  0.59530000  0.92210000  0.31830000  1
  H  H20  1  0.83570000  0.68170000  0.07790000  1
  H  H21  1  0.09650000  0.56490000  0.81310000  1
  H  H22  1  0.47450000  0.18690000  0.43510000  1
  H  H23  1  0.67780000  0.89370000  0.22690000  1
  H  H24  1  0.79840000  0.77310000  0.10630000  1
  H  H25  1  0.09960000  0.59680000  0.72540000  1
  H  H26  1  0.42180000  0.27460000  0.40320000  1
  H  H27  1  0.93940000  0.53340000  0.85040000  1
  H  H28  1  0.82210000  0.15090000  0.96770000  1
  H  H29  1  0.32320000  0.14960000  0.46660000  1
  H  H30  1  0.94070000  0.03230000  0.84910000  1
  H  H31  1  0.78770000  0.25180000  0.95380000  1
  H  H32  1  0.99330000  0.04620000  0.74820000  1
  H  H33  1  0.03150000  0.67650000  0.67650000  1
  H  H34  1  0.38450000  0.32350000  0.32350000  1
  H  H35  1  0.94170000  0.56740000  0.75920000  1
  H  H36  1  0.26830000  0.24080000  0.43260000  1
  H  H37  1  0.09960000  0.72540000  0.59680000  1
  H  H38  1  0.42180000  0.40320000  0.27460000  1
  H  H39  1  0.70230000  0.34080000  0.98500000  1
  H  H40  1  0.02810000  0.01500000  0.65920000  1
  H  H41  1  0.01360000  0.53650000  0.65490000  1
  H  H42  1  0.20500000  0.34510000  0.46350000  1
  H  H43  1  0.09650000  0.81310000  0.56490000  1
  H  H44  1  0.47450000  0.43510000  0.18690000  1
  H  H45  1  0.79360000  0.17550000  0.82450000  1
  H  H46  1  0.67780000  0.22690000  0.89370000  1
  H  H47  1  0.79840000  0.10630000  0.77310000  1
  H  H48  1  0.01360000  0.65490000  0.53650000  1
  H  H49  1  0.20500000  0.46350000  0.34510000  1
  H  H50  1  0.67680000  0.53340000  0.85040000  1
  H  H51  1  0.06060000  0.14960000  0.46660000  1
  H  H52  1  0.59530000  0.31830000  0.92210000  1
  H  H53  1  0.83570000  0.07790000  0.68170000  1
  H  H54  1  0.94170000  0.75920000  0.56740000  1
  H  H55  1  0.26830000  0.43260000  0.24080000  1
  H  H56  1  0.73170000  0.56740000  0.75920000  1
  H  H57  1  0.05830000  0.24080000  0.43260000  1
  H  H58  1  0.16430000  0.92210000  0.31830000  1
  H  H59  1  0.40470000  0.68170000  0.07790000  1
  H  H60  1  0.93940000  0.85040000  0.53340000  1
  H  H61  1  0.32320000  0.46660000  0.14960000  1
  H  H62  1  0.79500000  0.53650000  0.65490000  1
  H  H63  1  0.98640000  0.34510000  0.46350000  1
  H  H64  1  0.20160000  0.89370000  0.22690000  1
  H  H65  1  0.32220000  0.77310000  0.10630000  1
  H  H66  1  0.20640000  0.82450000  0.17550000  1
  H  H67  1  0.52550000  0.56490000  0.81310000  1
  H  H68  1  0.90350000  0.18690000  0.43510000  1
  H  H69  1  0.79500000  0.65490000  0.53650000  1
  H  H70  1  0.98640000  0.46350000  0.34510000  1
  H  H71  1  0.97190000  0.98500000  0.34080000  1
  H  H72  1  0.29770000  0.65920000  0.01500000  1
  H  H73  1  0.57820000  0.59680000  0.72540000  1
  H  H74  1  0.90040000  0.27460000  0.40320000  1
  H  H75  1  0.73170000  0.75920000  0.56740000  1
  H  H76  1  0.05830000  0.43260000  0.24080000  1
  H  H77  1  0.61550000  0.67650000  0.67650000  1
  H  H78  1  0.96850000  0.32350000  0.32350000  1
  H  H79  1  0.00670000  0.95380000  0.25180000  1
  H  H80  1  0.21230000  0.74820000  0.04620000  1
  H  H81  1  0.05930000  0.96770000  0.15090000  1
  H  H82  1  0.67680000  0.85040000  0.53340000  1
  H  H83  1  0.17790000  0.84910000  0.03230000  1
  H  H84  1  0.06060000  0.46660000  0.14960000  1
  H  H85  1  0.57820000  0.72540000  0.59680000  1
  H  H86  1  0.90040000  0.40320000  0.27460000  1
  H  H87  1  0.20160000  0.22690000  0.89370000  1
  H  H88  1  0.32220000  0.10630000  0.77310000  1
  H  H89  1  0.52550000  0.81310000  0.56490000  1
  H  H90  1  0.90350000  0.43510000  0.18690000  1
  H  H91  1  0.16430000  0.31830000  0.92210000  1
  H  H92  1  0.40470000  0.07790000  0.68170000  1
  H  H93  1  0.70230000  0.98500000  0.34080000  1
  H  H94  1  0.02810000  0.65920000  0.01500000  1
  H  H95  1  0.78770000  0.95380000  0.25180000  1
  H  H96  1  0.99330000  0.74820000  0.04620000  1
  H  H97  1  0.20640000  0.17550000  0.82450000  1
  H  H98  1  0.05930000  0.15090000  0.96770000  1
  H  H99  1  0.17790000  0.03230000  0.84910000  1
  C  C100  1  0.58900000  0.97480000  0.39820000  1
  C  C101  1  0.96200000  0.60180000  0.02520000  1
  C  C102  1  0.03880000  0.26490000  0.94770000  1
  C  C103  1  0.25140000  0.05230000  0.73510000  1
  C  C104  1  0.01830000  0.31790000  0.96570000  1
  C  C105  1  0.30190000  0.03430000  0.68210000  1
  C  C106  1  0.64180000  0.95610000  0.33810000  1
  C  C107  1  0.93600000  0.66190000  0.04390000  1
  C  C108  1  0.92590000  0.94740000  0.05260000  1
  C  C109  1  0.88790000  0.91190000  0.08810000  1
  C  C110  1  0.83446000  0.93163000  0.13865000  1
  C  C111  1  0.90474000  0.86135000  0.06837000  1
  C  C112  1  0.74185000  0.92025000  0.23065000  1
  C  C113  1  0.89275000  0.76935000  0.07975000  1
  C  C114  1  0.79769000  0.90191000  0.17271000  1
  C  C115  1  0.87231000  0.82729000  0.09809000  1
  C  C116  1  0.81670000  0.84690000  0.15310000  1
  C  C117  1  0.63420000  0.92870000  0.30430000  1
  C  C118  1  0.86720000  0.69570000  0.07130000  1
  C  C119  1  0.68335000  0.91125000  0.25025000  1
  C  C120  1  0.84485000  0.74975000  0.08875000  1
  C  C121  1  0.01632000  0.52758000  0.89898000  1
  C  C122  1  0.44288000  0.10102000  0.47242000  1
  C  C123  1  0.92590000  0.05260000  0.94740000  1
  C  C124  1  0.06470000  0.56520000  0.80260000  1
  C  C125  1  0.43250000  0.19740000  0.43480000  1
  C  C126  1  0.01590000  0.54820000  0.84020000  1
  C  C127  1  0.40430000  0.15980000  0.45180000  1
  C  C128  1  0.06730000  0.58280000  0.74980000  1
  C  C129  1  0.39990000  0.25020000  0.41720000  1
  C  C130  1  0.88790000  0.08810000  0.91190000  1
  C  C131  1  0.97200000  0.54670000  0.82470000  1
  C  C132  1  0.34340000  0.17530000  0.45330000  1
  C  C133  1  0.83446000  0.13865000  0.93163000  1
  C  C134  1  0.90474000  0.06837000  0.86135000  1
  C  C135  1  0.02720000  0.58140000  0.73120000  1
  C  C136  1  0.33980000  0.26880000  0.41860000  1
  C  C137  1  0.97420000  0.56550000  0.76970000  1
  C  C138  1  0.30940000  0.23030000  0.43450000  1
  C  C139  1  0.02719000  0.60123000  0.67399000  1
  C  C140  1  0.30241000  0.32601000  0.39877000  1
  C  C141  1  0.79769000  0.17271000  0.90191000  1
  C  C142  1  0.87231000  0.09809000  0.82729000  1
  C  C143  1  0.74860000  0.26490000  0.94770000  1
  C  C144  1  0.96120000  0.05230000  0.73510000  1
  C  C145  1  0.02900000  0.65470000  0.65470000  1
  C  C146  1  0.33840000  0.34530000  0.34530000  1
  C  C147  1  0.69810000  0.31790000  0.96570000  1
  C  C148  1  0.98170000  0.03430000  0.68210000  1
  C  C149  1  0.81670000  0.15310000  0.84690000  1
  C  C150  1  0.74185000  0.23065000  0.92025000  1
  C  C151  1  0.89275000  0.07975000  0.76935000  1
  C  C152  1  0.01922000  0.57020000  0.64036000  1
  C  C153  1  0.22978000  0.35964000  0.42980000  1
  C  C154  1  0.06730000  0.74980000  0.58280000  1
  C  C155  1  0.39990000  0.41720000  0.25020000  1
  C  C156  1  0.06470000  0.80260000  0.56520000  1
  C  C157  1  0.43250000  0.43480000  0.19740000  1
  C  C158  1  0.02719000  0.67399000  0.60123000  1
  C  C159  1  0.30241000  0.39877000  0.32601000  1
  C  C160  1  0.01980000  0.58910000  0.58910000  1
  C  C161  1  0.19800000  0.41090000  0.41090000  1
  C  C162  1  0.02720000  0.73120000  0.58140000  1
  C  C163  1  0.33980000  0.41860000  0.26880000  1
  C  C164  1  0.64180000  0.33810000  0.95610000  1
  C  C165  1  0.93600000  0.04390000  0.66190000  1
  C  C166  1  0.68335000  0.25025000  0.91125000  1
  C  C167  1  0.84485000  0.08875000  0.74975000  1
  C  C168  1  0.01922000  0.64036000  0.57020000  1
  C  C169  1  0.22978000  0.42980000  0.35964000  1
  C  C170  1  0.01630000  0.55470000  0.55470000  1
  C  C171  1  0.12570000  0.44530000  0.44530000  1
  C  C172  1  0.01590000  0.84020000  0.54820000  1
  C  C173  1  0.40430000  0.45180000  0.15980000  1
  C  C174  1  0.58900000  0.39820000  0.97480000  1
  C  C175  1  0.96200000  0.02520000  0.60180000  1
  C  C176  1  0.63420000  0.30430000  0.92870000  1
  C  C177  1  0.86720000  0.07130000  0.69570000  1
  C  C178  1  0.01632000  0.89898000  0.52758000  1
  C  C179  1  0.44288000  0.47242000  0.10102000  1
  C  C180  1  0.97420000  0.76970000  0.56550000  1
  C  C181  1  0.30940000  0.43450000  0.23030000  1
  C  C182  1  0.97200000  0.82470000  0.54670000  1
  C  C183  1  0.34340000  0.45330000  0.17530000  1
  C  C184  1  0.65660000  0.54670000  0.82470000  1
  C  C185  1  0.02800000  0.17530000  0.45330000  1
  C  C186  1  0.69060000  0.56550000  0.76970000  1
  C  C187  1  0.02580000  0.23030000  0.43450000  1
  C  C188  1  0.55712000  0.52758000  0.89898000  1
  C  C189  1  0.98368000  0.10102000  0.47242000  1
  C  C190  1  0.13280000  0.92870000  0.30430000  1
  C  C191  1  0.36580000  0.69570000  0.07130000  1
  C  C192  1  0.03800000  0.97480000  0.39820000  1
  C  C193  1  0.41100000  0.60180000  0.02520000  1
  C  C194  1  0.59570000  0.54820000  0.84020000  1
  C  C195  1  0.98410000  0.15980000  0.45180000  1
  C  C196  1  0.87430000  0.55470000  0.55470000  1
  C  C197  1  0.98370000  0.44530000  0.44530000  1
  C  C198  1  0.77022000  0.57020000  0.64036000  1
  C  C199  1  0.98078000  0.35964000  0.42980000  1
  C  C200  1  0.15515000  0.91125000  0.25025000  1
  C  C201  1  0.31665000  0.74975000  0.08875000  1
  C  C202  1  0.06400000  0.95610000  0.33810000  1
  C  C203  1  0.35820000  0.66190000  0.04390000  1
  C  C204  1  0.66020000  0.58140000  0.73120000  1
  C  C205  1  0.97280000  0.26880000  0.41860000  1
  C  C206  1  0.80200000  0.58910000  0.58910000  1
  C  C207  1  0.98020000  0.41090000  0.41090000  1
  C  C208  1  0.69759000  0.60123000  0.67399000  1
  C  C209  1  0.97281000  0.32601000  0.39877000  1
  C  C210  1  0.56750000  0.56520000  0.80260000  1
  C  C211  1  0.93530000  0.19740000  0.43480000  1
  C  C212  1  0.60010000  0.58280000  0.74980000  1
  C  C213  1  0.93270000  0.25020000  0.41720000  1
  C  C214  1  0.77022000  0.64036000  0.57020000  1
  C  C215  1  0.98078000  0.42980000  0.35964000  1
  C  C216  1  0.10725000  0.92025000  0.23065000  1
  C  C217  1  0.25815000  0.76935000  0.07975000  1
  C  C218  1  0.18330000  0.84690000  0.15310000  1
  C  C219  1  0.01830000  0.96570000  0.31790000  1
  C  C220  1  0.30190000  0.68210000  0.03430000  1
  C  C221  1  0.66160000  0.65470000  0.65470000  1
  C  C222  1  0.97100000  0.34530000  0.34530000  1
  C  C223  1  0.03880000  0.94770000  0.26490000  1
  C  C224  1  0.25140000  0.73510000  0.05230000  1
  C  C225  1  0.12769000  0.90191000  0.17271000  1
  C  C226  1  0.20231000  0.82729000  0.09809000  1
  C  C227  1  0.69759000  0.67399000  0.60123000  1
  C  C228  1  0.97281000  0.39877000  0.32601000  1
  C  C229  1  0.69060000  0.76970000  0.56550000  1
  C  C230  1  0.02580000  0.43450000  0.23030000  1
  C  C231  1  0.66020000  0.73120000  0.58140000  1
  C  C232  1  0.97280000  0.41860000  0.26880000  1
  C  C233  1  0.09526000  0.93163000  0.13865000  1
  C  C234  1  0.16554000  0.86135000  0.06837000  1
  C  C235  1  0.65660000  0.82470000  0.54670000  1
  C  C236  1  0.02800000  0.45330000  0.17530000  1
  C  C237  1  0.11210000  0.91190000  0.08810000  1
  C  C238  1  0.60010000  0.74980000  0.58280000  1
  C  C239  1  0.93270000  0.41720000  0.25020000  1
  C  C240  1  0.59570000  0.84020000  0.54820000  1
  C  C241  1  0.98410000  0.45180000  0.15980000  1
  C  C242  1  0.56750000  0.80260000  0.56520000  1
  C  C243  1  0.93530000  0.43480000  0.19740000  1
  C  C244  1  0.07410000  0.94740000  0.05260000  1
  C  C245  1  0.55712000  0.89898000  0.52758000  1
  C  C246  1  0.98368000  0.47242000  0.10102000  1
  C  C247  1  0.15515000  0.25025000  0.91125000  1
  C  C248  1  0.31665000  0.08875000  0.74975000  1
  C  C249  1  0.13280000  0.30430000  0.92870000  1
  C  C250  1  0.36580000  0.07130000  0.69570000  1
  C  C251  1  0.18330000  0.15310000  0.84690000  1
  C  C252  1  0.12769000  0.17271000  0.90191000  1
  C  C253  1  0.20231000  0.09809000  0.82729000  1
  C  C254  1  0.10725000  0.23065000  0.92025000  1
  C  C255  1  0.25815000  0.07975000  0.76935000  1
  C  C256  1  0.09526000  0.13865000  0.93163000  1
  C  C257  1  0.16554000  0.06837000  0.86135000  1
  C  C258  1  0.11210000  0.08810000  0.91190000  1
  C  C259  1  0.07410000  0.05260000  0.94740000  1
  C  C260  1  0.06400000  0.33810000  0.95610000  1
  C  C261  1  0.35820000  0.04390000  0.66190000  1
  C  C262  1  0.69810000  0.96570000  0.31790000  1
  C  C263  1  0.98170000  0.68210000  0.03430000  1
  C  C264  1  0.74860000  0.94770000  0.26490000  1
  C  C265  1  0.96120000  0.73510000  0.05230000  1
  C  C266  1  0.03800000  0.39820000  0.97480000  1
  C  C267  1  0.41100000  0.02520000  0.60180000  1
  O  O268  1  0.91142000  0.99183000  0.07633000  1
  O  O269  1  0.97958000  0.92367000  0.00817000  1
  O  O270  1  0.06355000  0.51741000  0.90949000  1
  O  O271  1  0.49045000  0.09051000  0.48259000  1
  O  O272  1  0.97813000  0.42879000  0.99235000  1
  O  O273  1  0.39927000  0.00765000  0.57121000  1
  O  O274  1  0.53610000  0.96617000  0.41503000  1
  O  O275  1  0.91730000  0.58497000  0.03383000  1
  O  O276  1  0.91142000  0.07633000  0.99183000  1
  O  O277  1  0.97958000  0.00817000  0.92367000  1
  O  O278  1  0.95647000  0.52885000  0.93641000  1
  O  O279  1  0.42173000  0.06359000  0.47115000  1
  O  O280  1  0.60073000  0.42879000  0.99235000  1
  O  O281  1  0.02187000  0.00765000  0.57121000  1
  O  O282  1  0.01342000  0.50843000  0.57627000  1
  O  O283  1  0.09812000  0.42373000  0.49157000  1
  O  O284  1  0.06355000  0.90949000  0.51741000  1
  O  O285  1  0.49045000  0.48259000  0.09051000  1
  O  O286  1  0.01342000  0.57627000  0.50843000  1
  O  O287  1  0.09812000  0.49157000  0.42373000  1
  O  O288  1  0.57827000  0.52885000  0.93641000  1
  O  O289  1  0.04353000  0.06359000  0.47115000  1
  O  O290  1  0.53610000  0.41503000  0.96617000  1
  O  O291  1  0.91730000  0.03383000  0.58497000  1
  O  O292  1  0.08270000  0.96617000  0.41503000  1
  O  O293  1  0.46390000  0.58497000  0.03383000  1
  O  O294  1  0.95647000  0.93641000  0.52885000  1
  O  O295  1  0.42173000  0.47115000  0.06359000  1
  O  O296  1  0.90188000  0.50843000  0.57627000  1
  O  O297  1  0.98658000  0.42373000  0.49157000  1
  O  O298  1  0.50955000  0.51741000  0.90949000  1
  O  O299  1  0.93645000  0.09051000  0.48259000  1
  O  O300  1  0.90188000  0.57627000  0.50843000  1
  O  O301  1  0.98658000  0.49157000  0.42373000  1
  O  O302  1  0.97813000  0.99235000  0.42879000  1
  O  O303  1  0.39927000  0.57121000  0.00765000  1
  O  O304  1  0.57827000  0.93641000  0.52885000  1
  O  O305  1  0.04353000  0.47115000  0.06359000  1
  O  O306  1  0.02042000  0.99183000  0.07633000  1
  O  O307  1  0.08858000  0.92367000  0.00817000  1
  O  O308  1  0.08270000  0.41503000  0.96617000  1
  O  O309  1  0.46390000  0.03383000  0.58497000  1
  O  O310  1  0.60073000  0.99235000  0.42879000  1
  O  O311  1  0.02187000  0.57121000  0.00765000  1
  O  O312  1  0.50955000  0.90949000  0.51741000  1
  O  O313  1  0.93645000  0.48259000  0.09051000  1
  O  O314  1  0.02042000  0.07633000  0.99183000  1
  O  O315  1  0.08858000  0.00817000  0.92367000  1
