# generated using pymatgen
data_Ni2H8C11NO7
_symmetry_space_group_name_H-M   'P 1'
_cell_length_a   11.07700000
_cell_length_b   13.43360000
_cell_length_c   14.81560000
_cell_angle_alpha   99.04600000
_cell_angle_beta   90.00000000
_cell_angle_gamma   90.00000000
_symmetry_Int_Tables_number   1
_chemical_formula_structural   Ni2H8C11NO7
_chemical_formula_sum   'Ni8 H32 C44 N4 O28'
_cell_volume   2177.20022983
_cell_formula_units_Z   4
loop_
 _symmetry_equiv_pos_site_id
 _symmetry_equiv_pos_as_xyz
  1  'x, y, z'
loop_
 _atom_site_type_symbol
 _atom_site_label
 _atom_site_symmetry_multiplicity
 _atom_site_fract_x
 _atom_site_fract_y
 _atom_site_fract_z
 _atom_site_occupancy
  Ni  Ni0  1  0.99863000  0.88825000  0.95653000  1
  Ni  Ni1  1  0.85181000  0.90752000  0.13512000  1
  Ni  Ni2  1  0.64819000  0.40752000  0.13512000  1
  Ni  Ni3  1  0.50137000  0.38825000  0.95653000  1
  Ni  Ni4  1  0.49863000  0.61175000  0.04347000  1
  Ni  Ni5  1  0.35181000  0.59248000  0.86488000  1
  Ni  Ni6  1  0.14819000  0.09248000  0.86488000  1
  Ni  Ni7  1  0.00137000  0.11175000  0.04347000  1
  H  H8  1  0.99730000  0.58820000  0.12190000  1
  H  H9  1  0.99130000  0.12370000  0.41800000  1
  H  H10  1  0.94450000  0.84260000  0.44900000  1
  H  H11  1  0.93790000  0.03750000  0.88570000  1
  H  H12  1  0.92830000  0.08160000  0.27080000  1
  H  H13  1  0.89750000  0.41000000  0.05310000  1
  H  H14  1  0.89570000  0.80690000  0.29950000  1
  H  H15  1  0.86600000  0.57260000  0.95290000  1
  H  H16  1  0.63400000  0.07260000  0.95290000  1
  H  H17  1  0.60430000  0.30690000  0.29950000  1
  H  H18  1  0.60250000  0.91000000  0.05310000  1
  H  H19  1  0.57170000  0.58160000  0.27080000  1
  H  H20  1  0.56210000  0.53750000  0.88570000  1
  H  H21  1  0.55550000  0.34260000  0.44900000  1
  H  H22  1  0.50870000  0.62370000  0.41800000  1
  H  H23  1  0.50270000  0.08820000  0.12190000  1
  H  H24  1  0.49730000  0.91180000  0.87810000  1
  H  H25  1  0.49130000  0.37630000  0.58200000  1
  H  H26  1  0.44450000  0.65740000  0.55100000  1
  H  H27  1  0.43790000  0.46250000  0.11430000  1
  H  H28  1  0.42830000  0.41840000  0.72920000  1
  H  H29  1  0.39750000  0.09000000  0.94690000  1
  H  H30  1  0.39570000  0.69310000  0.70050000  1
  H  H31  1  0.36600000  0.92740000  0.04710000  1
  H  H32  1  0.13400000  0.42740000  0.04710000  1
  H  H33  1  0.10430000  0.19310000  0.70050000  1
  H  H34  1  0.10250000  0.59000000  0.94690000  1
  H  H35  1  0.07170000  0.91840000  0.72920000  1
  H  H36  1  0.06210000  0.96250000  0.11430000  1
  H  H37  1  0.05550000  0.15740000  0.55100000  1
  H  H38  1  0.00870000  0.87630000  0.58200000  1
  H  H39  1  0.00270000  0.41180000  0.87810000  1
  C  C40  1  0.99150000  0.60190000  0.05900000  1
  C  C41  1  0.97950000  0.98820000  0.45170000  1
  C  C42  1  0.97550000  0.71500000  0.05910000  1
  C  C43  1  0.97110000  0.05710000  0.39630000  1
  C  C44  1  0.94540000  0.89390000  0.41360000  1
  C  C45  1  0.93270000  0.03090000  0.30680000  1
  C  C46  1  0.91240000  0.87360000  0.32400000  1
  C  C47  1  0.89380000  0.43330000  0.99370000  1
  C  C48  1  0.87820000  0.54900000  0.01150000  1
  C  C49  1  0.78080000  0.38870000  0.94440000  1
  C  C50  1  0.76440000  0.57390000  0.07100000  1
  C  C51  1  0.73560000  0.07390000  0.07100000  1
  C  C52  1  0.71920000  0.88870000  0.94440000  1
  C  C53  1  0.62180000  0.04900000  0.01150000  1
  C  C54  1  0.60620000  0.93330000  0.99370000  1
  C  C55  1  0.58760000  0.37360000  0.32400000  1
  C  C56  1  0.56730000  0.53090000  0.30680000  1
  C  C57  1  0.55460000  0.39390000  0.41360000  1
  C  C58  1  0.52890000  0.55710000  0.39630000  1
  C  C59  1  0.52450000  0.21500000  0.05910000  1
  C  C60  1  0.52050000  0.48820000  0.45170000  1
  C  C61  1  0.50850000  0.10190000  0.05900000  1
  C  C62  1  0.49150000  0.89810000  0.94100000  1
  C  C63  1  0.47950000  0.51180000  0.54830000  1
  C  C64  1  0.47550000  0.78500000  0.94090000  1
  C  C65  1  0.47110000  0.44290000  0.60370000  1
  C  C66  1  0.44540000  0.60610000  0.58640000  1
  C  C67  1  0.43270000  0.46910000  0.69320000  1
  C  C68  1  0.41240000  0.62640000  0.67600000  1
  C  C69  1  0.39380000  0.06670000  0.00630000  1
  C  C70  1  0.37820000  0.95100000  0.98850000  1
  C  C71  1  0.28080000  0.11130000  0.05560000  1
  C  C72  1  0.26440000  0.92610000  0.92900000  1
  C  C73  1  0.23560000  0.42610000  0.92900000  1
  C  C74  1  0.21920000  0.61130000  0.05560000  1
  C  C75  1  0.12180000  0.45100000  0.98850000  1
  C  C76  1  0.10620000  0.56670000  0.00630000  1
  C  C77  1  0.08760000  0.12640000  0.67600000  1
  C  C78  1  0.06730000  0.96910000  0.69320000  1
  C  C79  1  0.05460000  0.10610000  0.58640000  1
  C  C80  1  0.02890000  0.94290000  0.60370000  1
  C  C81  1  0.02450000  0.28500000  0.94090000  1
  C  C82  1  0.02050000  0.01180000  0.54830000  1
  C  C83  1  0.00850000  0.39810000  0.94100000  1
  N  N84  1  0.90280000  0.94140000  0.27030000  1
  N  N85  1  0.59720000  0.44140000  0.27030000  1
  N  N86  1  0.40280000  0.55860000  0.72970000  1
  N  N87  1  0.09720000  0.05860000  0.72970000  1
  O  O88  1  0.99840000  0.97250000  0.08500000  1
  O  O89  1  0.99060000  0.25170000  0.01050000  1
  O  O90  1  0.92590000  0.76550000  0.12720000  1
  O  O91  1  0.81430000  0.12680000  0.04110000  1
  O  O92  1  0.81350000  0.88700000  0.99350000  1
  O  O93  1  0.78200000  0.35900000  0.86120000  1
  O  O94  1  0.75600000  0.53780000  0.14460000  1
  O  O95  1  0.74400000  0.03780000  0.14460000  1
  O  O96  1  0.71800000  0.85900000  0.86120000  1
  O  O97  1  0.68650000  0.38700000  0.99350000  1
  O  O98  1  0.68570000  0.62680000  0.04110000  1
  O  O99  1  0.57410000  0.26550000  0.12720000  1
  O  O100  1  0.50940000  0.75170000  0.01050000  1
  O  O101  1  0.50160000  0.47250000  0.08500000  1
  O  O102  1  0.49840000  0.52750000  0.91500000  1
  O  O103  1  0.49060000  0.24830000  0.98950000  1
  O  O104  1  0.42590000  0.73450000  0.87280000  1
  O  O105  1  0.31430000  0.37320000  0.95890000  1
  O  O106  1  0.31350000  0.61300000  0.00650000  1
  O  O107  1  0.28200000  0.14100000  0.13880000  1
  O  O108  1  0.25600000  0.96220000  0.85540000  1
  O  O109  1  0.24400000  0.46220000  0.85540000  1
  O  O110  1  0.21800000  0.64100000  0.13880000  1
  O  O111  1  0.18650000  0.11300000  0.00650000  1
  O  O112  1  0.18570000  0.87320000  0.95890000  1
  O  O113  1  0.07410000  0.23450000  0.87280000  1
  O  O114  1  0.00940000  0.74830000  0.98950000  1
  O  O115  1  0.00160000  0.02750000  0.91500000  1
