# generated using pymatgen
data_La2Cu2H5(C5O4)5
_symmetry_space_group_name_H-M   'P 1'
_cell_length_a   11.00600000
_cell_length_b   19.84700000
_cell_length_c   23.22800000
_cell_angle_alpha   90.00000000
_cell_angle_beta   90.00000000
_cell_angle_gamma   99.91000000
_symmetry_Int_Tables_number   1
_chemical_formula_structural   La2Cu2H5(C5O4)5
_chemical_formula_sum   'La8 Cu8 H20 C100 O80'
_cell_volume   4998.12818758
_cell_formula_units_Z   4
loop_
 _symmetry_equiv_pos_site_id
 _symmetry_equiv_pos_as_xyz
  1  'x, y, z'
loop_
 _atom_site_type_symbol
 _atom_site_label
 _atom_site_symmetry_multiplicity
 _atom_site_fract_x
 _atom_site_fract_y
 _atom_site_fract_z
 _atom_site_occupancy
  La  La0  1  0.03807000  0.89823000  0.35561000  1
  La  La1  1  0.14886000  0.85527000  0.85631000  1
  La  La2  1  0.35114000  0.64473000  0.35631000  1
  La  La3  1  0.46193000  0.60177000  0.85561000  1
  La  La4  1  0.53807000  0.39823000  0.14439000  1
  La  La5  1  0.64886000  0.35527000  0.64369000  1
  La  La6  1  0.85114000  0.14473000  0.14369000  1
  La  La7  1  0.96193000  0.10177000  0.64439000  1
  Cu  Cu8  1  0.09015000  0.89752000  0.17962000  1
  Cu  Cu9  1  0.19867000  0.84996000  0.67992000  1
  Cu  Cu10  1  0.30133000  0.65004000  0.17992000  1
  Cu  Cu11  1  0.40985000  0.60248000  0.67962000  1
  Cu  Cu12  1  0.59015000  0.39752000  0.32038000  1
  Cu  Cu13  1  0.69867000  0.34996000  0.82008000  1
  Cu  Cu14  1  0.80133000  0.15004000  0.32008000  1
  Cu  Cu15  1  0.90985000  0.10248000  0.82038000  1
  H  H16  1  0.01580000  0.49030000  0.30330000  1
  H  H17  1  0.08050000  0.45910000  0.08160000  1
  H  H18  1  0.10860000  0.30640000  0.20030000  1
  H  H19  1  0.12080000  0.44350000  0.80340000  1
  H  H20  1  0.22820000  0.25900000  0.70590000  1
  H  H21  1  0.27180000  0.24100000  0.20590000  1
  H  H22  1  0.37920000  0.05650000  0.30340000  1
  H  H23  1  0.39140000  0.19360000  0.70030000  1
  H  H24  1  0.41950000  0.04090000  0.58160000  1
  H  H25  1  0.48420000  0.00970000  0.80330000  1
  H  H26  1  0.51580000  0.99030000  0.19670000  1
  H  H27  1  0.58050000  0.95910000  0.41840000  1
  H  H28  1  0.60860000  0.80640000  0.29970000  1
  H  H29  1  0.62080000  0.94350000  0.69660000  1
  H  H30  1  0.72820000  0.75900000  0.79410000  1
  H  H31  1  0.77180000  0.74100000  0.29410000  1
  H  H32  1  0.87920000  0.55650000  0.19660000  1
  H  H33  1  0.89140000  0.69360000  0.79970000  1
  H  H34  1  0.91950000  0.54090000  0.91840000  1
  H  H35  1  0.98420000  0.50970000  0.69670000  1
  C  C36  1  0.00880000  0.66710000  0.74070000  1
  C  C37  1  0.03510000  0.45310000  0.28310000  1
  C  C38  1  0.03580000  0.21500000  0.77020000  1
  C  C39  1  0.03800000  0.61100000  0.71000000  1
  C  C40  1  0.04440000  0.66340000  0.17460000  1
  C  C41  1  0.04840000  0.47550000  0.04840000  1
  C  C42  1  0.07180000  0.34160000  0.79120000  1
  C  C43  1  0.07700000  0.52350000  0.95430000  1
  C  C44  1  0.07790000  0.73820000  0.73180000  1
  C  C45  1  0.09110000  0.34310000  0.22180000  1
  C  C46  1  0.10140000  0.13490000  0.18830000  1
  C  C47  1  0.10410000  0.28590000  0.76160000  1
  C  C48  1  0.12710000  0.49800000  0.00360000  1
  C  C49  1  0.13630000  0.46210000  0.24670000  1
  C  C50  1  0.14340000  0.40630000  0.78440000  1
  C  C51  1  0.15150000  0.61490000  0.67320000  1
  C  C52  1  0.15910000  0.55390000  0.90570000  1
  C  C53  1  0.16510000  0.40650000  0.21580000  1
  C  C54  1  0.18330000  0.01290000  0.24050000  1
  C  C55  1  0.20720000  0.53350000  0.23930000  1
  C  C56  1  0.20760000  0.29600000  0.72600000  1
  C  C57  1  0.21480000  0.08850000  0.68310000  1
  C  C58  1  0.22060000  0.14110000  0.22020000  1
  C  C59  1  0.23940000  0.00820000  0.51000000  1
  C  C60  1  0.24810000  0.41620000  0.74970000  1
  C  C61  1  0.25190000  0.08380000  0.24970000  1
  C  C62  1  0.26060000  0.49180000  0.01000000  1
  C  C63  1  0.27940000  0.35890000  0.72020000  1
  C  C64  1  0.28520000  0.41150000  0.18310000  1
  C  C65  1  0.29240000  0.20400000  0.22600000  1
  C  C66  1  0.29280000  0.96650000  0.73930000  1
  C  C67  1  0.31670000  0.48710000  0.74050000  1
  C  C68  1  0.33490000  0.09350000  0.71580000  1
  C  C69  1  0.34090000  0.94610000  0.40570000  1
  C  C70  1  0.34850000  0.88510000  0.17320000  1
  C  C71  1  0.35660000  0.09370000  0.28440000  1
  C  C72  1  0.36370000  0.03790000  0.74670000  1
  C  C73  1  0.37290000  0.00200000  0.50360000  1
  C  C74  1  0.39590000  0.21410000  0.26160000  1
  C  C75  1  0.39860000  0.36510000  0.68830000  1
  C  C76  1  0.40890000  0.15690000  0.72180000  1
  C  C77  1  0.42210000  0.76180000  0.23180000  1
  C  C78  1  0.42300000  0.97650000  0.45430000  1
  C  C79  1  0.42820000  0.15840000  0.29120000  1
  C  C80  1  0.45160000  0.02450000  0.54840000  1
  C  C81  1  0.45560000  0.83660000  0.67460000  1
  C  C82  1  0.46200000  0.88900000  0.21000000  1
  C  C83  1  0.46420000  0.28500000  0.27020000  1
  C  C84  1  0.46490000  0.04690000  0.78310000  1
  C  C85  1  0.49120000  0.83290000  0.24070000  1
  C  C86  1  0.50880000  0.16710000  0.75930000  1
  C  C87  1  0.53510000  0.95310000  0.21690000  1
  C  C88  1  0.53580000  0.71500000  0.72980000  1
  C  C89  1  0.53800000  0.11100000  0.79000000  1
  C  C90  1  0.54440000  0.16340000  0.32540000  1
  C  C91  1  0.54840000  0.97550000  0.45160000  1
  C  C92  1  0.57180000  0.84160000  0.70880000  1
  C  C93  1  0.57700000  0.02350000  0.54570000  1
  C  C94  1  0.57790000  0.23820000  0.76820000  1
  C  C95  1  0.59110000  0.84310000  0.27820000  1
  C  C96  1  0.60140000  0.63490000  0.31170000  1
  C  C97  1  0.60410000  0.78590000  0.73840000  1
  C  C98  1  0.62710000  0.99800000  0.49640000  1
  C  C99  1  0.63630000  0.96210000  0.25330000  1
  C  C100  1  0.64340000  0.90630000  0.71560000  1
  C  C101  1  0.65150000  0.11490000  0.82680000  1
  C  C102  1  0.65910000  0.05390000  0.59430000  1
  C  C103  1  0.66510000  0.90650000  0.28420000  1
  C  C104  1  0.68330000  0.51290000  0.25950000  1
  C  C105  1  0.70720000  0.03350000  0.26070000  1
  C  C106  1  0.70760000  0.79600000  0.77400000  1
  C  C107  1  0.71480000  0.58850000  0.81690000  1
  C  C108  1  0.72060000  0.64110000  0.27980000  1
  C  C109  1  0.73940000  0.50820000  0.99000000  1
  C  C110  1  0.74810000  0.91620000  0.75030000  1
  C  C111  1  0.75190000  0.58380000  0.25030000  1
  C  C112  1  0.76060000  0.99180000  0.49000000  1
  C  C113  1  0.77940000  0.85890000  0.77980000  1
  C  C114  1  0.78520000  0.91150000  0.31690000  1
  C  C115  1  0.79240000  0.70400000  0.27400000  1
  C  C116  1  0.79280000  0.46650000  0.76070000  1
  C  C117  1  0.81670000  0.98710000  0.75950000  1
  C  C118  1  0.83490000  0.59350000  0.78420000  1
  C  C119  1  0.84090000  0.44610000  0.09430000  1
  C  C120  1  0.84850000  0.38510000  0.32680000  1
  C  C121  1  0.85660000  0.59370000  0.21560000  1
  C  C122  1  0.86370000  0.53790000  0.75330000  1
  C  C123  1  0.87290000  0.50200000  0.99640000  1
  C  C124  1  0.89590000  0.71410000  0.23840000  1
  C  C125  1  0.89860000  0.86510000  0.81170000  1
  C  C126  1  0.90890000  0.65690000  0.77820000  1
  C  C127  1  0.92210000  0.26180000  0.26820000  1
  C  C128  1  0.92300000  0.47650000  0.04570000  1
  C  C129  1  0.92820000  0.65840000  0.20880000  1
  C  C130  1  0.95160000  0.52450000  0.95160000  1
  C  C131  1  0.95560000  0.33660000  0.82540000  1
  C  C132  1  0.96200000  0.38900000  0.29000000  1
  C  C133  1  0.96420000  0.78500000  0.22980000  1
  C  C134  1  0.96490000  0.54690000  0.71690000  1
  C  C135  1  0.99120000  0.33290000  0.25930000  1
  O  O136  1  0.00660000  0.09540000  0.20830000  1
  O  O137  1  0.00700000  0.80200000  0.18070000  1
  O  O138  1  0.02620000  0.17470000  0.72840000  1
  O  O139  1  0.03810000  0.65120000  0.12260000  1
  O  O140  1  0.09020000  0.77900000  0.77300000  1
  O  O141  1  0.09270000  0.17070000  0.14460000  1
  O  O142  1  0.10490000  0.57130000  0.86220000  1
  O  O143  1  0.11540000  0.75470000  0.68170000  1
  O  O144  1  0.12120000  0.04980000  0.70400000  1
  O  O145  1  0.14120000  0.59530000  0.62310000  1
  O  O146  1  0.14370000  0.67760000  0.20380000  1
  O  O147  1  0.14560000  0.97800000  0.28310000  1
  O  O148  1  0.17190000  0.96430000  0.53970000  1
  O  O149  1  0.17330000  0.99200000  0.18880000  1
  O  O150  1  0.20300000  0.05810000  0.48710000  1
  O  O151  1  0.20780000  0.12350000  0.63860000  1
  O  O152  1  0.22290000  0.55520000  0.18830000  1
  O  O153  1  0.22900000  0.94020000  0.41100000  1
  O  O154  1  0.23910000  0.56840000  0.28360000  1
  O  O155  1  0.24640000  0.86570000  0.19870000  1
  O  O156  1  0.25360000  0.63430000  0.69870000  1
  O  O157  1  0.26090000  0.93160000  0.78360000  1
  O  O158  1  0.27100000  0.55980000  0.91100000  1
  O  O159  1  0.27710000  0.94480000  0.68830000  1
  O  O160  1  0.29220000  0.37650000  0.13860000  1
  O  O161  1  0.29700000  0.44190000  0.98710000  1
  O  O162  1  0.32670000  0.50800000  0.68880000  1
  O  O163  1  0.32810000  0.53570000  0.03970000  1
  O  O164  1  0.35440000  0.52200000  0.78310000  1
  O  O165  1  0.35630000  0.82240000  0.70380000  1
  O  O166  1  0.35880000  0.90470000  0.12310000  1
  O  O167  1  0.37880000  0.45020000  0.20400000  1
  O  O168  1  0.38460000  0.74530000  0.18170000  1
  O  O169  1  0.39510000  0.92870000  0.36220000  1
  O  O170  1  0.40730000  0.32930000  0.64460000  1
  O  O171  1  0.40980000  0.72100000  0.27300000  1
  O  O172  1  0.46190000  0.84880000  0.62260000  1
  O  O173  1  0.47380000  0.32530000  0.22840000  1
  O  O174  1  0.49300000  0.69800000  0.68070000  1
  O  O175  1  0.49340000  0.40460000  0.70830000  1
  O  O176  1  0.50660000  0.59540000  0.29170000  1
  O  O177  1  0.50700000  0.30200000  0.31930000  1
  O  O178  1  0.52620000  0.67470000  0.77160000  1
  O  O179  1  0.53810000  0.15120000  0.37740000  1
  O  O180  1  0.59020000  0.27900000  0.72700000  1
  O  O181  1  0.59270000  0.67070000  0.35540000  1
  O  O182  1  0.60490000  0.07130000  0.63780000  1
  O  O183  1  0.61540000  0.25470000  0.81830000  1
  O  O184  1  0.62120000  0.54980000  0.79600000  1
  O  O185  1  0.64120000  0.09530000  0.87690000  1
  O  O186  1  0.64370000  0.17760000  0.29620000  1
  O  O187  1  0.64560000  0.47800000  0.21690000  1
  O  O188  1  0.67190000  0.46430000  0.96030000  1
  O  O189  1  0.67330000  0.49200000  0.31120000  1
  O  O190  1  0.70300000  0.55810000  0.01290000  1
  O  O191  1  0.70780000  0.62350000  0.86140000  1
  O  O192  1  0.72290000  0.05520000  0.31170000  1
  O  O193  1  0.72900000  0.44020000  0.08900000  1
  O  O194  1  0.73910000  0.06840000  0.21640000  1
  O  O195  1  0.74640000  0.36570000  0.30130000  1
  O  O196  1  0.75360000  0.13430000  0.80130000  1
  O  O197  1  0.76090000  0.43160000  0.71640000  1
  O  O198  1  0.77100000  0.05980000  0.58900000  1
  O  O199  1  0.77710000  0.44480000  0.81170000  1
  O  O200  1  0.79220000  0.87650000  0.36140000  1
  O  O201  1  0.79700000  0.94190000  0.51290000  1
  O  O202  1  0.82670000  0.00800000  0.81120000  1
  O  O203  1  0.82810000  0.03570000  0.46030000  1
  O  O204  1  0.85440000  0.02200000  0.71690000  1
  O  O205  1  0.85630000  0.32240000  0.79620000  1
  O  O206  1  0.85880000  0.40470000  0.37690000  1
  O  O207  1  0.87880000  0.95020000  0.29600000  1
  O  O208  1  0.88460000  0.24530000  0.31830000  1
  O  O209  1  0.89510000  0.42870000  0.13780000  1
  O  O210  1  0.90730000  0.82930000  0.85540000  1
  O  O211  1  0.90980000  0.22100000  0.22700000  1
  O  O212  1  0.96190000  0.34880000  0.87740000  1
  O  O213  1  0.97380000  0.82530000  0.27160000  1
  O  O214  1  0.99300000  0.19800000  0.81930000  1
  O  O215  1  0.99340000  0.90460000  0.79170000  1
