# generated using pymatgen
data_GdH11C27N7O19
_symmetry_space_group_name_H-M   'P 1'
_cell_length_a   14.39200000
_cell_length_b   16.66900000
_cell_length_c   19.63700000
_cell_angle_alpha   105.47100000
_cell_angle_beta   96.28600000
_cell_angle_gamma   95.10000000
_symmetry_Int_Tables_number   1
_chemical_formula_structural   GdH11C27N7O19
_chemical_formula_sum   'Gd4 H44 C108 N28 O76'
_cell_volume   4478.50030933
_cell_formula_units_Z   4
loop_
 _symmetry_equiv_pos_site_id
 _symmetry_equiv_pos_as_xyz
  1  'x, y, z'
loop_
 _atom_site_type_symbol
 _atom_site_label
 _atom_site_symmetry_multiplicity
 _atom_site_fract_x
 _atom_site_fract_y
 _atom_site_fract_z
 _atom_site_occupancy
  Gd  Gd0  1  0.12672000  0.04672000  0.05745000  1
  Gd  Gd1  1  0.36170000  0.45887000  0.49040000  1
  Gd  Gd2  1  0.63830000  0.54113000  0.50960000  1
  Gd  Gd3  1  0.87328000  0.95328000  0.94255000  1
  H  H4  1  0.01160000  0.30230000  0.50990000  1
  H  H5  1  0.07440000  0.91780000  0.74380000  1
  H  H6  1  0.07570000  0.86920000  0.18450000  1
  H  H7  1  0.10370000  0.40480000  0.11970000  1
  H  H8  1  0.12010000  0.25800000  0.08840000  1
  H  H9  1  0.12500000  0.75680000  0.46210000  1
  H  H10  1  0.14800000  0.46360000  0.67480000  1
  H  H11  1  0.14890000  0.53500000  0.50130000  1
  H  H12  1  0.15650000  0.24580000  0.94930000  1
  H  H13  1  0.21360000  0.89720000  0.92610000  1
  H  H14  1  0.24520000  0.24460000  0.59720000  1
  H  H15  1  0.28200000  0.16040000  0.20290000  1
  H  H16  1  0.28510000  0.77430000  0.46130000  1
  H  H17  1  0.29180000  0.40770000  0.25760000  1
  H  H18  1  0.29480000  0.57060000  0.32130000  1
  H  H19  1  0.29850000  0.96360000  0.24540000  1
  H  H20  1  0.30630000  0.80500000  0.05430000  1
  H  H21  1  0.33950000  0.28770000  0.28060000  1
  H  H22  1  0.34930000  0.60840000  0.62840000  1
  H  H23  1  0.37190000  0.66940000  0.47610000  1
  H  H24  1  0.43330000  0.35260000  0.67910000  1
  H  H25  1  0.45400000  0.19690000  0.33810000  1
  H  H26  1  0.54600000  0.80310000  0.66190000  1
  H  H27  1  0.56670000  0.64740000  0.32090000  1
  H  H28  1  0.62810000  0.33060000  0.52390000  1
  H  H29  1  0.65070000  0.39160000  0.37160000  1
  H  H30  1  0.66050000  0.71230000  0.71940000  1
  H  H31  1  0.69370000  0.19500000  0.94570000  1
  H  H32  1  0.70150000  0.03640000  0.75460000  1
  H  H33  1  0.70520000  0.42940000  0.67870000  1
  H  H34  1  0.70820000  0.59230000  0.74240000  1
  H  H35  1  0.71490000  0.22570000  0.53870000  1
  H  H36  1  0.71800000  0.83960000  0.79710000  1
  H  H37  1  0.75480000  0.75540000  0.40280000  1
  H  H38  1  0.78640000  0.10280000  0.07390000  1
  H  H39  1  0.84350000  0.75420000  0.05070000  1
  H  H40  1  0.85110000  0.46500000  0.49870000  1
  H  H41  1  0.85200000  0.53640000  0.32520000  1
  H  H42  1  0.87500000  0.24320000  0.53790000  1
  H  H43  1  0.87990000  0.74200000  0.91160000  1
  H  H44  1  0.89630000  0.59520000  0.88030000  1
  H  H45  1  0.92430000  0.13080000  0.81550000  1
  H  H46  1  0.92560000  0.08220000  0.25620000  1
  H  H47  1  0.98840000  0.69770000  0.49010000  1
  C  C48  1  0.00600000  0.20800000  0.77700000  1
  C  C49  1  0.01200000  0.13000000  0.94000000  1
  C  C50  1  0.02000000  0.65200000  0.49100000  1
  C  C51  1  0.02000000  0.83300000  0.17400000  1
  C  C52  1  0.03700000  0.18000000  0.89000000  1
  C  C53  1  0.04500000  0.92800000  0.87700000  1
  C  C54  1  0.09000000  0.26200000  0.78900000  1
  C  C55  1  0.11700000  0.37800000  0.72800000  1
  C  C56  1  0.11900000  0.23500000  0.90500000  1
  C  C57  1  0.12300000  0.64900000  0.48500000  1
  C  C58  1  0.12600000  0.29700000  0.73200000  1
  C  C59  1  0.12700000  0.90400000  0.76800000  1
  C  C60  1  0.13100000  0.90900000  0.84100000  1
  C  C61  1  0.14500000  0.27300000  0.85500000  1
  C  C62  1  0.15500000  0.40900000  0.67700000  1
  C  C63  1  0.15500000  0.41500000  0.15500000  1
  C  C64  1  0.16200000  0.71600000  0.47100000  1
  C  C65  1  0.16600000  0.26400000  0.12700000  1
  C  C66  1  0.17500000  0.24800000  0.68100000  1
  C  C67  1  0.17900000  0.58300000  0.49300000  1
  C  C68  1  0.19900000  0.34400000  0.17100000  1
  C  C69  1  0.20200000  0.88000000  0.73400000  1
  C  C70  1  0.20400000  0.35900000  0.62800000  1
  C  C71  1  0.20900000  0.89100000  0.87700000  1
  C  C72  1  0.21300000  0.27900000  0.63000000  1
  C  C73  1  0.24900000  0.39300000  0.57400000  1
  C  C74  1  0.25500000  0.95600000  0.11000000  1
  C  C75  1  0.25600000  0.72600000  0.46900000  1
  C  C76  1  0.26000000  0.20800000  0.19400000  1
  C  C77  1  0.26700000  0.35500000  0.22900000  1
  C  C78  1  0.28100000  0.85100000  0.76900000  1
  C  C79  1  0.28300000  0.86200000  0.83800000  1
  C  C80  1  0.29500000  0.89500000  0.14500000  1
  C  C81  1  0.29600000  0.28400000  0.24100000  1
  C  C82  1  0.30700000  0.66200000  0.47700000  1
  C  C83  1  0.30800000  0.91100000  0.21700000  1
  C  C84  1  0.31400000  0.81700000  0.10400000  1
  C  C85  1  0.31600000  0.65500000  0.26600000  1
  C  C86  1  0.31900000  0.71900000  0.69300000  1
  C  C87  1  0.33600000  0.85200000  0.24900000  1
  C  C88  1  0.34100000  0.60300000  0.30700000  1
  C  C89  1  0.34200000  0.76000000  0.13700000  1
  C  C90  1  0.34500000  0.80100000  0.72400000  1
  C  C91  1  0.35400000  0.77300000  0.21000000  1
  C  C92  1  0.37100000  0.66500000  0.64800000  1
  C  C93  1  0.38200000  0.70800000  0.24600000  1
  C  C94  1  0.43200000  0.83100000  0.71100000  1
  C  C95  1  0.43600000  0.59900000  0.32800000  1
  C  C96  1  0.45500000  0.70000000  0.63600000  1
  C  C97  1  0.46300000  0.54800000  0.37800000  1
  C  C98  1  0.47500000  0.70100000  0.26800000  1
  C  C99  1  0.48700000  0.35400000  0.41300000  1
  C  C100  1  0.48700000  0.78100000  0.66800000  1
  C  C101  1  0.49700000  0.35100000  0.69200000  1
  C  C102  1  0.50300000  0.64900000  0.30800000  1
  C  C103  1  0.51300000  0.21900000  0.33200000  1
  C  C104  1  0.51300000  0.64600000  0.58700000  1
  C  C105  1  0.52500000  0.29900000  0.73200000  1
  C  C106  1  0.53700000  0.45200000  0.62200000  1
  C  C107  1  0.54500000  0.30000000  0.36400000  1
  C  C108  1  0.56400000  0.40100000  0.67200000  1
  C  C109  1  0.56800000  0.16900000  0.28900000  1
  C  C110  1  0.61800000  0.29200000  0.75400000  1
  C  C111  1  0.62900000  0.33500000  0.35200000  1
  C  C112  1  0.64600000  0.22700000  0.79000000  1
  C  C113  1  0.65500000  0.19900000  0.27600000  1
  C  C114  1  0.65800000  0.24000000  0.86300000  1
  C  C115  1  0.65900000  0.39700000  0.69300000  1
  C  C116  1  0.66400000  0.14800000  0.75100000  1
  C  C117  1  0.68100000  0.28100000  0.30700000  1
  C  C118  1  0.68400000  0.34500000  0.73400000  1
  C  C119  1  0.68600000  0.18300000  0.89600000  1
  C  C120  1  0.69200000  0.08900000  0.78300000  1
  C  C121  1  0.69300000  0.33800000  0.52300000  1
  C  C122  1  0.70400000  0.71600000  0.75900000  1
  C  C123  1  0.70500000  0.10500000  0.85500000  1
  C  C124  1  0.71700000  0.13800000  0.16200000  1
  C  C125  1  0.71900000  0.14900000  0.23100000  1
  C  C126  1  0.73300000  0.64500000  0.77100000  1
  C  C127  1  0.74000000  0.79200000  0.80600000  1
  C  C128  1  0.74400000  0.27400000  0.53100000  1
  C  C129  1  0.74500000  0.04400000  0.89000000  1
  C  C130  1  0.75100000  0.60700000  0.42600000  1
  C  C131  1  0.78700000  0.72100000  0.37000000  1
  C  C132  1  0.79100000  0.10900000  0.12300000  1
  C  C133  1  0.79600000  0.64100000  0.37200000  1
  C  C134  1  0.79800000  0.12000000  0.26600000  1
  C  C135  1  0.80100000  0.65600000  0.82900000  1
  C  C136  1  0.82100000  0.41700000  0.50700000  1
  C  C137  1  0.82500000  0.75200000  0.31900000  1
  C  C138  1  0.83400000  0.73600000  0.87300000  1
  C  C139  1  0.83800000  0.28400000  0.52900000  1
  C  C140  1  0.84500000  0.58500000  0.84500000  1
  C  C141  1  0.84500000  0.59100000  0.32300000  1
  C  C142  1  0.85500000  0.72700000  0.14500000  1
  C  C143  1  0.86900000  0.09100000  0.15900000  1
  C  C144  1  0.87300000  0.09600000  0.23200000  1
  C  C145  1  0.87400000  0.70300000  0.26800000  1
  C  C146  1  0.87700000  0.35100000  0.51500000  1
  C  C147  1  0.88100000  0.76500000  0.09500000  1
  C  C148  1  0.88300000  0.62200000  0.27200000  1
  C  C149  1  0.91000000  0.73800000  0.21100000  1
  C  C150  1  0.95500000  0.07200000  0.12300000  1
  C  C151  1  0.96300000  0.82000000  0.11000000  1
  C  C152  1  0.98000000  0.16700000  0.82600000  1
  C  C153  1  0.98000000  0.34800000  0.50900000  1
  C  C154  1  0.98800000  0.87000000  0.06000000  1
  C  C155  1  0.99400000  0.79200000  0.22300000  1
  N  N156  1  0.05700000  0.81000000  0.29100000  1
  N  N157  1  0.06400000  0.43200000  0.77600000  1
  N  N158  1  0.18700000  0.16100000  0.67900000  1
  N  N159  1  0.19400000  0.87200000  0.65700000  1
  N  N160  1  0.19700000  0.19700000  0.13700000  1
  N  N161  1  0.21500000  0.66100000  0.25000000  1
  N  N162  1  0.22600000  0.67700000  0.70200000  1
  N  N163  1  0.23200000  0.33100000  0.87500000  1
  N  N164  1  0.27000000  0.58700000  0.48800000  1
  N  N165  1  0.34800000  0.87700000  0.32900000  1
  N  N166  1  0.36200000  0.84100000  0.87900000  1
  N  N167  1  0.36400000  0.67900000  0.08900000  1
  N  N168  1  0.44800000  0.24900000  0.75300000  1
  N  N169  1  0.46700000  0.92100000  0.74300000  1
  N  N170  1  0.53300000  0.07900000  0.25700000  1
  N  N171  1  0.55200000  0.75100000  0.24700000  1
  N  N172  1  0.63600000  0.32100000  0.91100000  1
  N  N173  1  0.63800000  0.15900000  0.12100000  1
  N  N174  1  0.65200000  0.12300000  0.67100000  1
  N  N175  1  0.73000000  0.41300000  0.51200000  1
  N  N176  1  0.76800000  0.66900000  0.12500000  1
  N  N177  1  0.77400000  0.32300000  0.29800000  1
  N  N178  1  0.78500000  0.33900000  0.75000000  1
  N  N179  1  0.80300000  0.80300000  0.86300000  1
  N  N180  1  0.80600000  0.12800000  0.34300000  1
  N  N181  1  0.81300000  0.83900000  0.32100000  1
  N  N182  1  0.93600000  0.56800000  0.22400000  1
  N  N183  1  0.94300000  0.19000000  0.70900000  1
  O  O184  1  0.01000000  0.40300000  0.50200000  1
  O  O185  1  0.02500000  0.80000000  0.34400000  1
  O  O186  1  0.03100000  0.40900000  0.82300000  1
  O  O187  1  0.03400000  0.09100000  0.15800000  1
  O  O188  1  0.05700000  0.50000000  0.77000000  1
  O  O189  1  0.05800000  0.96000000  0.94500000  1
  O  O190  1  0.06100000  0.92200000  0.08040000  1
  O  O191  1  0.06800000  0.14100000  0.99740000  1
  O  O192  1  0.11700000  0.85700000  0.62300000  1
  O  O193  1  0.13700000  0.84000000  0.29300000  1
  O  O194  1  0.16300000  0.64600000  0.29200000  1
  O  O195  1  0.17500000  0.63900000  0.65400000  1
  O  O196  1  0.18500000  0.48800000  0.18900000  1
  O  O197  1  0.18800000  0.68000000  0.19600000  1
  O  O198  1  0.19000000  0.11300000  0.62100000  1
  O  O199  1  0.19100000  0.13900000  0.73400000  1
  O  O200  1  0.20600000  0.69400000  0.76400000  1
  O  O201  1  0.23300000  0.02300000  0.14980000  1
  O  O202  1  0.24100000  0.39300000  0.85400000  1
  O  O203  1  0.24100000  0.93800000  0.04380000  1
  O  O204  1  0.25700000  0.47000000  0.57940000  1
  O  O205  1  0.26500000  0.88200000  0.63100000  1
  O  O206  1  0.28200000  0.34200000  0.52500000  1
  O  O207  1  0.29600000  0.31600000  0.91400000  1
  O  O208  1  0.34300000  0.80600000  0.92500000  1
  O  O209  1  0.34500000  0.95100000  0.35900000  1
  O  O210  1  0.35100000  0.82400000  0.36000000  1
  O  O211  1  0.36400000  0.61800000  0.11000000  1
  O  O212  1  0.37300000  0.27300000  0.75300000  1
  O  O213  1  0.38000000  0.67900000  0.03000000  1
  O  O214  1  0.39800000  0.50300000  0.38990000  1
  O  O215  1  0.40100000  0.33200000  0.41010000  1
  O  O216  1  0.42300000  0.97100000  0.76400000  1
  O  O217  1  0.44000000  0.85400000  0.86500000  1
  O  O218  1  0.45100000  0.44000000  0.59400000  1
  O  O219  1  0.45200000  0.06100000  0.24800000  1
  O  O220  1  0.46100000  0.20400000  0.78300000  1
  O  O221  1  0.47200000  0.58100000  0.54060000  1
  O  O222  1  0.52800000  0.41900000  0.45940000  1
  O  O223  1  0.53900000  0.79600000  0.21700000  1
  O  O224  1  0.54800000  0.93900000  0.75200000  1
  O  O225  1  0.54900000  0.56000000  0.40600000  1
  O  O226  1  0.56000000  0.14600000  0.13500000  1
  O  O227  1  0.57700000  0.02900000  0.23600000  1
  O  O228  1  0.59900000  0.66800000  0.58990000  1
  O  O229  1  0.60200000  0.49700000  0.61010000  1
  O  O230  1  0.62000000  0.32100000  0.97000000  1
  O  O231  1  0.62700000  0.72700000  0.24700000  1
  O  O232  1  0.63600000  0.38200000  0.89000000  1
  O  O233  1  0.64900000  0.17600000  0.64000000  1
  O  O234  1  0.65500000  0.04900000  0.64100000  1
  O  O235  1  0.65700000  0.19400000  0.07500000  1
  O  O236  1  0.70400000  0.68400000  0.08600000  1
  O  O237  1  0.71800000  0.65800000  0.47500000  1
  O  O238  1  0.73500000  0.11800000  0.36900000  1
  O  O239  1  0.74300000  0.53000000  0.42060000  1
  O  O240  1  0.75900000  0.06200000  0.95620000  1
  O  O241  1  0.75900000  0.60700000  0.14600000  1
  O  O242  1  0.76700000  0.97700000  0.85020000  1
  O  O243  1  0.79400000  0.30600000  0.23600000  1
  O  O244  1  0.80900000  0.86100000  0.26600000  1
  O  O245  1  0.81000000  0.88700000  0.37900000  1
  O  O246  1  0.81200000  0.32000000  0.80400000  1
  O  O247  1  0.81500000  0.51200000  0.81100000  1
  O  O248  1  0.82500000  0.36100000  0.34600000  1
  O  O249  1  0.83700000  0.35400000  0.70800000  1
  O  O250  1  0.86300000  0.16000000  0.70700000  1
  O  O251  1  0.88300000  0.14300000  0.37700000  1
  O  O252  1  0.93200000  0.85900000  0.00260000  1
  O  O253  1  0.93900000  0.07800000  0.91960000  1
  O  O254  1  0.94200000  0.04000000  0.05500000  1
  O  O255  1  0.94300000  0.50000000  0.23000000  1
  O  O256  1  0.96600000  0.90900000  0.84200000  1
  O  O257  1  0.96900000  0.59100000  0.17700000  1
  O  O258  1  0.97500000  0.20000000  0.65600000  1
  O  O259  1  0.99000000  0.59700000  0.49800000  1
