# generated using pymatgen
data_Zn7H28C44(N9O10)2
_symmetry_space_group_name_H-M   'P 1'
_cell_length_a   9.92400000
_cell_length_b   11.73800000
_cell_length_c   15.20300000
_cell_angle_alpha   94.77000000
_cell_angle_beta   98.94000000
_cell_angle_gamma   112.62000000
_symmetry_Int_Tables_number   1
_chemical_formula_structural   Zn7H28C44(N9O10)2
_chemical_formula_sum   'Zn7 H28 C44 N18 O20'
_cell_volume   1594.91644147
_cell_formula_units_Z   1
loop_
 _symmetry_equiv_pos_site_id
 _symmetry_equiv_pos_as_xyz
  1  'x, y, z'
loop_
 _atom_site_type_symbol
 _atom_site_label
 _atom_site_symmetry_multiplicity
 _atom_site_fract_x
 _atom_site_fract_y
 _atom_site_fract_z
 _atom_site_occupancy
  Zn  Zn0  1  0.01456000  0.93243000  0.20794000  1
  Zn  Zn1  1  0.11375000  0.81516000  0.83346000  1
  Zn  Zn2  1  0.44328000  0.10860000  0.56835000  1
  Zn  Zn3  1  0.50000000  0.00000000  0.00000000  1
  Zn  Zn4  1  0.55672000  0.89140000  0.43165000  1
  Zn  Zn5  1  0.88625000  0.18484000  0.16654000  1
  Zn  Zn6  1  0.98544000  0.06757000  0.79206000  1
  H  H7  1  0.06340000  0.17720000  0.00920000  1
  H  H8  1  0.17240000  0.06750000  0.41130000  1
  H  H9  1  0.17310000  0.13780000  0.63940000  1
  H  H10  1  0.20160000  0.49050000  0.83270000  1
  H  H11  1  0.23020000  0.46320000  0.05990000  1
  H  H12  1  0.26280000  0.66870000  0.59050000  1
  H  H13  1  0.28930000  0.84720000  0.26880000  1
  H  H14  1  0.29560000  0.48210000  0.56550000  1
  H  H15  1  0.30040000  0.49740000  0.32500000  1
  H  H16  1  0.31820000  0.03490000  0.14450000  1
  H  H17  1  0.35560000  0.91190000  0.70820000  1
  H  H18  1  0.37420000  0.25420000  0.08700000  1
  H  H19  1  0.39380000  0.19610000  0.29190000  1
  H  H20  1  0.46600000  0.62080000  0.10140000  1
  H  H21  1  0.53400000  0.37920000  0.89860000  1
  H  H22  1  0.60620000  0.80390000  0.70810000  1
  H  H23  1  0.62580000  0.74580000  0.91300000  1
  H  H24  1  0.64440000  0.08810000  0.29180000  1
  H  H25  1  0.68180000  0.96510000  0.85550000  1
  H  H26  1  0.69960000  0.50260000  0.67500000  1
  H  H27  1  0.70440000  0.51790000  0.43450000  1
  H  H28  1  0.71070000  0.15280000  0.73120000  1
  H  H29  1  0.73720000  0.33130000  0.40950000  1
  H  H30  1  0.76980000  0.53680000  0.94010000  1
  H  H31  1  0.79840000  0.50950000  0.16730000  1
  H  H32  1  0.82690000  0.86220000  0.36060000  1
  H  H33  1  0.82760000  0.93250000  0.58870000  1
  H  H34  1  0.93660000  0.82280000  0.99080000  1
  C  C35  1  0.03810000  0.87040000  0.01150000  1
  C  C36  1  0.17150000  0.25950000  0.24480000  1
  C  C37  1  0.19420000  0.07700000  0.66680000  1
  C  C38  1  0.22420000  0.02180000  0.39250000  1
  C  C39  1  0.23890000  0.28300000  0.85250000  1
  C  C40  1  0.24560000  0.98530000  0.09470000  1
  C  C41  1  0.28710000  0.90240000  0.31560000  1
  C  C42  1  0.29330000  0.95430000  0.70380000  1
  C  C43  1  0.30230000  0.50970000  0.85340000  1
  C  C44  1  0.32310000  0.33450000  0.30070000  1
  C  C45  1  0.34890000  0.73470000  0.86630000  1
  C  C46  1  0.35060000  0.41460000  0.86440000  1
  C  C47  1  0.36710000  0.45950000  0.33540000  1
  C  C48  1  0.39140000  0.52820000  0.59910000  1
  C  C49  1  0.39690000  0.43350000  0.09090000  1
  C  C50  1  0.40490000  0.63430000  0.87340000  1
  C  C51  1  0.42220000  0.27940000  0.31580000  1
  C  C52  1  0.43510000  0.65230000  0.63320000  1
  C  C53  1  0.44160000  0.33600000  0.58180000  1
  C  C54  1  0.44320000  0.33690000  0.09930000  1
  C  C55  1  0.49140000  0.47260000  0.61510000  1
  C  C56  1  0.49870000  0.55710000  0.10820000  1
  C  C57  1  0.50130000  0.44290000  0.89180000  1
  C  C58  1  0.50860000  0.52740000  0.38490000  1
  C  C59  1  0.55680000  0.66310000  0.90070000  1
  C  C60  1  0.55840000  0.66400000  0.41820000  1
  C  C61  1  0.56490000  0.34770000  0.36680000  1
  C  C62  1  0.57780000  0.72060000  0.68420000  1
  C  C63  1  0.59510000  0.36570000  0.12660000  1
  C  C64  1  0.60310000  0.56650000  0.90910000  1
  C  C65  1  0.60860000  0.47180000  0.40090000  1
  C  C66  1  0.63290000  0.54050000  0.66460000  1
  C  C67  1  0.64940000  0.58540000  0.13560000  1
  C  C68  1  0.65110000  0.26530000  0.13370000  1
  C  C69  1  0.67690000  0.66550000  0.69930000  1
  C  C70  1  0.69770000  0.49030000  0.14660000  1
  C  C71  1  0.70670000  0.04570000  0.29620000  1
  C  C72  1  0.71290000  0.09760000  0.68440000  1
  C  C73  1  0.75440000  0.01470000  0.90530000  1
  C  C74  1  0.76110000  0.71700000  0.14750000  1
  C  C75  1  0.77580000  0.97820000  0.60750000  1
  C  C76  1  0.80580000  0.92300000  0.33320000  1
  C  C77  1  0.82850000  0.74050000  0.75520000  1
  C  C78  1  0.96190000  0.12960000  0.98850000  1
  N  N79  1  0.09980000  0.93250000  0.09630000  1
  N  N80  1  0.12130000  0.01750000  0.72570000  1
  N  N81  1  0.13980000  0.88550000  0.96160000  1
  N  N82  1  0.18360000  0.94990000  0.31200000  1
  N  N83  1  0.18560000  0.93560000  0.74990000  1
  N  N84  1  0.27620000  0.96010000  0.01590000  1
  N  N85  1  0.30250000  0.04090000  0.65010000  1
  N  N86  1  0.34360000  0.02160000  0.44210000  1
  N  N87  1  0.38580000  0.94250000  0.39250000  1
  N  N88  1  0.61420000  0.05750000  0.60750000  1
  N  N89  1  0.65640000  0.97840000  0.55790000  1
  N  N90  1  0.69750000  0.95910000  0.34990000  1
  N  N91  1  0.72380000  0.03990000  0.98410000  1
  N  N92  1  0.81440000  0.06440000  0.25010000  1
  N  N93  1  0.81640000  0.05010000  0.68800000  1
  N  N94  1  0.86020000  0.11450000  0.03840000  1
  N  N95  1  0.87870000  0.98250000  0.27430000  1
  N  N96  1  0.90020000  0.06750000  0.90370000  1
  O  O97  1  0.07900000  0.31310000  0.23530000  1
  O  O98  1  0.10800000  0.25520000  0.80540000  1
  O  O99  1  0.13570000  0.15130000  0.20920000  1
  O  O100  1  0.20860000  0.69750000  0.83680000  1
  O  O101  1  0.24640000  0.40020000  0.06380000  1
  O  O102  1  0.27120000  0.20170000  0.88860000  1
  O  O103  1  0.31170000  0.27080000  0.54200000  1
  O  O104  1  0.34440000  0.71580000  0.62100000  1
  O  O105  1  0.43420000  0.84840000  0.88860000  1
  O  O106  1  0.46010000  0.71070000  0.40150000  1
  O  O107  1  0.53990000  0.28930000  0.59850000  1
  O  O108  1  0.56580000  0.15160000  0.11140000  1
  O  O109  1  0.65560000  0.28420000  0.37900000  1
  O  O110  1  0.68830000  0.72920000  0.45800000  1
  O  O111  1  0.72880000  0.79830000  0.11140000  1
  O  O112  1  0.75360000  0.59980000  0.93620000  1
  O  O113  1  0.79140000  0.30250000  0.16320000  1
  O  O114  1  0.86430000  0.84870000  0.79080000  1
  O  O115  1  0.89200000  0.74480000  0.19460000  1
  O  O116  1  0.92100000  0.68690000  0.76470000  1
