# generated using pymatgen
data_SmH2C7(NO3)2
_symmetry_space_group_name_H-M   'P 1'
_cell_length_a   6.11390000
_cell_length_b   9.98300000
_cell_length_c   13.41300000
_cell_angle_alpha   68.93100000
_cell_angle_beta   80.96000000
_cell_angle_gamma   76.68900000
_symmetry_Int_Tables_number   1
_chemical_formula_structural   SmH2C7(NO3)2
_chemical_formula_sum   'Sm2 H4 C14 N4 O12'
_cell_volume   740.91446298
_cell_formula_units_Z   2
loop_
 _symmetry_equiv_pos_site_id
 _symmetry_equiv_pos_as_xyz
  1  'x, y, z'
loop_
 _atom_site_type_symbol
 _atom_site_label
 _atom_site_symmetry_multiplicity
 _atom_site_fract_x
 _atom_site_fract_y
 _atom_site_fract_z
 _atom_site_occupancy
  Sm  Sm0  1  0.16918000  0.38542000  0.80359000  1
  Sm  Sm1  1  0.83082000  0.61458000  0.19641000  1
  H  H2  1  0.29800000  0.67420000  0.36940000  1
  H  H3  1  0.32250000  0.04960000  0.02900000  1
  H  H4  1  0.67750000  0.95040000  0.97100000  1
  H  H5  1  0.70200000  0.32580000  0.63060000  1
  C  C6  1  0.05160000  0.61650000  0.56050000  1
  C  C7  1  0.08920000  0.44070000  0.03330000  1
  C  C8  1  0.13250000  0.89530000  0.06840000  1
  C  C9  1  0.18980000  0.03140000  0.01510000  1
  C  C10  1  0.28630000  0.76720000  0.14040000  1
  C  C11  1  0.28840000  0.55610000  0.52720000  1
  C  C12  1  0.38380000  0.60220000  0.42180000  1
  C  C13  1  0.61620000  0.39780000  0.57820000  1
  C  C14  1  0.71160000  0.44390000  0.47280000  1
  C  C15  1  0.71370000  0.23280000  0.85960000  1
  C  C16  1  0.81020000  0.96860000  0.98490000  1
  C  C17  1  0.86750000  0.10470000  0.93160000  1
  C  C18  1  0.91080000  0.55930000  0.96670000  1
  C  C19  1  0.94840000  0.38350000  0.43950000  1
  N  N20  1  0.06110000  0.13530000  0.94540000  1
  N  N21  1  0.40620000  0.45380000  0.60590000  1
  N  N22  1  0.59380000  0.54620000  0.39410000  1
  N  N23  1  0.93890000  0.86470000  0.05460000  1
  O  O24  1  0.01430000  0.43110000  0.34230000  1
  O  O25  1  0.06680000  0.29070000  0.50990000  1
  O  O26  1  0.08350000  0.43050000  0.12960000  1
  O  O27  1  0.21290000  0.65170000  0.18430000  1
  O  O28  1  0.22370000  0.36240000  0.98670000  1
  O  O29  1  0.47750000  0.78500000  0.15090000  1
  O  O30  1  0.52250000  0.21500000  0.84910000  1
  O  O31  1  0.77630000  0.63760000  0.01330000  1
  O  O32  1  0.78710000  0.34830000  0.81570000  1
  O  O33  1  0.91650000  0.56950000  0.87040000  1
  O  O34  1  0.93320000  0.70930000  0.49010000  1
  O  O35  1  0.98570000  0.56890000  0.65770000  1
