# generated using pymatgen
data_ZnH3C7NO4
_symmetry_space_group_name_H-M   'P 1'
_cell_length_a   12.16920000
_cell_length_b   14.00030000
_cell_length_c   14.67110000
_cell_angle_alpha   105.86700000
_cell_angle_beta   90.00000000
_cell_angle_gamma   90.00000000
_symmetry_Int_Tables_number   1
_chemical_formula_structural   ZnH3C7NO4
_chemical_formula_sum   'Zn8 H24 C56 N8 O32'
_cell_volume   2404.31570774
_cell_formula_units_Z   8
loop_
 _symmetry_equiv_pos_site_id
 _symmetry_equiv_pos_as_xyz
  1  'x, y, z'
loop_
 _atom_site_type_symbol
 _atom_site_label
 _atom_site_symmetry_multiplicity
 _atom_site_fract_x
 _atom_site_fract_y
 _atom_site_fract_z
 _atom_site_occupancy
  Zn  Zn0  1  0.97860000  0.85037000  0.15771000  1
  Zn  Zn1  1  0.25729000  0.80461000  0.42519000  1
  Zn  Zn2  1  0.75729000  0.69539000  0.07481000  1
  Zn  Zn3  1  0.47860000  0.64963000  0.34229000  1
  Zn  Zn4  1  0.52140000  0.35037000  0.65771000  1
  Zn  Zn5  1  0.24271000  0.30461000  0.92519000  1
  Zn  Zn6  1  0.74271000  0.19539000  0.57481000  1
  Zn  Zn7  1  0.02140000  0.14963000  0.84229000  1
  H  H8  1  0.56380000  0.98510000  0.62440000  1
  H  H9  1  0.18470000  0.98360000  0.59840000  1
  H  H10  1  0.66540000  0.97690000  0.75400000  1
  H  H11  1  0.97690000  0.97160000  0.93200000  1
  H  H12  1  0.54010000  0.90250000  0.25890000  1
  H  H13  1  0.66990000  0.87320000  0.85680000  1
  H  H14  1  0.16990000  0.62680000  0.64320000  1
  H  H15  1  0.04010000  0.59750000  0.24110000  1
  H  H16  1  0.47690000  0.52840000  0.56800000  1
  H  H17  1  0.16540000  0.52310000  0.74600000  1
  H  H18  1  0.68470000  0.51640000  0.90160000  1
  H  H19  1  0.06380000  0.51490000  0.87560000  1
  H  H20  1  0.93620000  0.48510000  0.12440000  1
  H  H21  1  0.31530000  0.48360000  0.09840000  1
  H  H22  1  0.83460000  0.47690000  0.25400000  1
  H  H23  1  0.52310000  0.47160000  0.43200000  1
  H  H24  1  0.95990000  0.40250000  0.75890000  1
  H  H25  1  0.83010000  0.37320000  0.35680000  1
  H  H26  1  0.33010000  0.12680000  0.14320000  1
  H  H27  1  0.45990000  0.09750000  0.74110000  1
  H  H28  1  0.02310000  0.02840000  0.06800000  1
  H  H29  1  0.33460000  0.02310000  0.24600000  1
  H  H30  1  0.81530000  0.01640000  0.40160000  1
  H  H31  1  0.43620000  0.01490000  0.37560000  1
  C  C32  1  0.48590000  0.98530000  0.62100000  1
  C  C33  1  0.26240000  0.98360000  0.60454000  1
  C  C34  1  0.72760000  0.97680000  0.79300000  1
  C  C35  1  0.91100000  0.97490000  0.89820000  1
  C  C36  1  0.18340000  0.96220000  0.20909000  1
  C  C37  1  0.68920000  0.95020000  0.31682000  1
  C  C38  1  0.57560000  0.94850000  0.31010000  1
  C  C39  1  0.43090000  0.91960000  0.54698000  1
  C  C40  1  0.82310000  0.91520000  0.90870000  1
  C  C41  1  0.73060000  0.91490000  0.85360000  1
  C  C42  1  0.17860000  0.88800000  0.26761000  1
  C  C43  1  0.76100000  0.88350000  0.24260000  1
  C  C44  1  0.83190000  0.85680000  0.98180000  1
  C  C45  1  0.49170000  0.83970000  0.47380000  1
  C  C46  1  0.99170000  0.66030000  0.02620000  1
  C  C47  1  0.33190000  0.64320000  0.51820000  1
  C  C48  1  0.26100000  0.61650000  0.25740000  1
  C  C49  1  0.67860000  0.61200000  0.23239000  1
  C  C50  1  0.23060000  0.58510000  0.64640000  1
  C  C51  1  0.32310000  0.58480000  0.59130000  1
  C  C52  1  0.93090000  0.58040000  0.95302000  1
  C  C53  1  0.07560000  0.55150000  0.18990000  1
  C  C54  1  0.18920000  0.54980000  0.18318000  1
  C  C55  1  0.68340000  0.53780000  0.29091000  1
  C  C56  1  0.41100000  0.52510000  0.60180000  1
  C  C57  1  0.22760000  0.52320000  0.70700000  1
  C  C58  1  0.76240000  0.51640000  0.89546000  1
  C  C59  1  0.98590000  0.51470000  0.87900000  1
  C  C60  1  0.01410000  0.48530000  0.12100000  1
  C  C61  1  0.23760000  0.48360000  0.10454000  1
  C  C62  1  0.77240000  0.47680000  0.29300000  1
  C  C63  1  0.58900000  0.47490000  0.39820000  1
  C  C64  1  0.31660000  0.46220000  0.70909000  1
  C  C65  1  0.81080000  0.45020000  0.81682000  1
  C  C66  1  0.92440000  0.44850000  0.81010000  1
  C  C67  1  0.06910000  0.41960000  0.04698000  1
  C  C68  1  0.67690000  0.41520000  0.40870000  1
  C  C69  1  0.76940000  0.41490000  0.35360000  1
  C  C70  1  0.32140000  0.38800000  0.76761000  1
  C  C71  1  0.73900000  0.38350000  0.74260000  1
  C  C72  1  0.66810000  0.35680000  0.48180000  1
  C  C73  1  0.00830000  0.33970000  0.97380000  1
  C  C74  1  0.50830000  0.16030000  0.52620000  1
  C  C75  1  0.16810000  0.14320000  0.01820000  1
  C  C76  1  0.23900000  0.11650000  0.75740000  1
  C  C77  1  0.82140000  0.11200000  0.73239000  1
  C  C78  1  0.26940000  0.08510000  0.14640000  1
  C  C79  1  0.17690000  0.08480000  0.09130000  1
  C  C80  1  0.56910000  0.08040000  0.45302000  1
  C  C81  1  0.42440000  0.05150000  0.68990000  1
  C  C82  1  0.31080000  0.04980000  0.68318000  1
  C  C83  1  0.81660000  0.03780000  0.79091000  1
  C  C84  1  0.08900000  0.02510000  0.10180000  1
  C  C85  1  0.27240000  0.02320000  0.20700000  1
  C  C86  1  0.73760000  0.01640000  0.39546000  1
  C  C87  1  0.51410000  0.01470000  0.37900000  1
  N  N88  1  0.09250000  0.96331000  0.15702000  1
  N  N89  1  0.32095000  0.92036000  0.53773000  1
  N  N90  1  0.82095000  0.57964000  0.96227000  1
  N  N91  1  0.59250000  0.53669000  0.34298000  1
  N  N92  1  0.40750000  0.46331000  0.65702000  1
  N  N93  1  0.17905000  0.42036000  0.03773000  1
  N  N94  1  0.67905000  0.07964000  0.46227000  1
  N  N95  1  0.90750000  0.03669000  0.84298000  1
  O  O96  1  0.86364000  0.89639000  0.25475000  1
  O  O97  1  0.25389000  0.89140000  0.32697000  1
  O  O98  1  0.90680000  0.88746000  0.04281000  1
  O  O99  1  0.09826000  0.82892000  0.25069000  1
  O  O100  1  0.58885000  0.82463000  0.48497000  1
  O  O101  1  0.71376000  0.82363000  0.17490000  1
  O  O102  1  0.43205000  0.79022000  0.40317000  1
  O  O103  1  0.76643000  0.78774000  0.97712000  1
  O  O104  1  0.26643000  0.71226000  0.52288000  1
  O  O105  1  0.93205000  0.70978000  0.09683000  1
  O  O106  1  0.21376000  0.67637000  0.32510000  1
  O  O107  1  0.08885000  0.67537000  0.01503000  1
  O  O108  1  0.59826000  0.67108000  0.24931000  1
  O  O109  1  0.40680000  0.61254000  0.45719000  1
  O  O110  1  0.75389000  0.60860000  0.17303000  1
  O  O111  1  0.36364000  0.60361000  0.24525000  1
  O  O112  1  0.63636000  0.39639000  0.75475000  1
  O  O113  1  0.24611000  0.39140000  0.82697000  1
  O  O114  1  0.59320000  0.38746000  0.54281000  1
  O  O115  1  0.40174000  0.32892000  0.75069000  1
  O  O116  1  0.91115000  0.32463000  0.98497000  1
  O  O117  1  0.78624000  0.32363000  0.67490000  1
  O  O118  1  0.06795000  0.29022000  0.90317000  1
  O  O119  1  0.73357000  0.28774000  0.47712000  1
  O  O120  1  0.23357000  0.21226000  0.02288000  1
  O  O121  1  0.56795000  0.20978000  0.59683000  1
  O  O122  1  0.28624000  0.17637000  0.82510000  1
  O  O123  1  0.41115000  0.17537000  0.51503000  1
  O  O124  1  0.90174000  0.17108000  0.74931000  1
  O  O125  1  0.09320000  0.11254000  0.95719000  1
  O  O126  1  0.74611000  0.10860000  0.67303000  1
  O  O127  1  0.13636000  0.10361000  0.74525000  1
