# generated using pymatgen
data_Cd3H16(C3O2)16
_symmetry_space_group_name_H-M   'P 1'
_cell_length_a   9.38820000
_cell_length_b   21.18817535
_cell_length_c   21.18817535
_cell_angle_alpha   87.18670864
_cell_angle_beta   77.20030065
_cell_angle_gamma   77.20030065
_symmetry_Int_Tables_number   1
_chemical_formula_structural   Cd3H16(C3O2)16
_chemical_formula_sum   'Cd6 H32 C96 O64'
_cell_volume   4007.86201044
_cell_formula_units_Z   2
loop_
 _symmetry_equiv_pos_site_id
 _symmetry_equiv_pos_as_xyz
  1  'x, y, z'
loop_
 _atom_site_type_symbol
 _atom_site_label
 _atom_site_symmetry_multiplicity
 _atom_site_fract_x
 _atom_site_fract_y
 _atom_site_fract_z
 _atom_site_occupancy
  C  C0  1  0.72550000  0.76700000  0.21360000  1
  C  C1  1  0.04390000  0.71360000  0.26700000  1
  C  C2  1  0.79750000  0.85350000  0.11570000  1
  C  C3  1  0.98330000  0.61570000  0.35350000  1
  C  C4  1  0.84300000  0.90080000  0.06280000  1
  C  C5  1  0.94340000  0.56280000  0.40080000  1
  C  C6  1  0.94100000  0.32310000  0.63570000  1
  C  C7  1  0.85020000  0.13570000  0.82310000  1
  C  C8  1  0.97740000  0.27310000  0.67950000  1
  C  C9  1  0.82000000  0.17950000  0.77310000  1
  C  C10  1  0.71150000  0.75670000  0.15150000  1
  C  C11  1  0.13030000  0.65150000  0.25670000  1
  C  C12  1  0.74690000  0.80160000  0.10280000  1
  C  C13  1  0.09870000  0.60280000  0.30160000  1
  C  C14  1  0.97690000  0.20440000  0.66180000  1
  C  C15  1  0.90690000  0.16180000  0.70440000  1
  C  C16  1  0.64910000  0.69960000  0.13840000  1
  C  C17  1  0.26290000  0.63840000  0.19960000  1
  C  C18  1  0.65580000  0.40080000  0.43720000  1
  C  C19  1  0.25620000  0.93720000  0.90080000  1
  C  C20  1  0.05530000  0.18200000  0.60380000  1
  C  C21  1  0.90890000  0.10380000  0.68200000  1
  C  C22  1  0.66320000  0.35350000  0.38430000  1
  C  C23  1  0.34900000  0.88430000  0.85350000  1
  C  C24  1  0.59970000  0.30160000  0.39720000  1
  C  C25  1  0.45150000  0.89720000  0.80160000  1
  C  C26  1  0.06090000  0.11890000  0.57950000  1
  C  C27  1  0.99070000  0.07950000  0.61890000  1
  C  C28  1  0.32670000  0.82310000  0.86430000  1
  C  C29  1  0.73590000  0.36430000  0.32310000  1
  C  C30  1  0.15840000  0.10550000  0.51630000  1
  C  C31  1  0.96980000  0.01630000  0.60550000  1
  C  C32  1  0.61300000  0.25670000  0.34850000  1
  C  C33  1  0.53180000  0.84850000  0.75670000  1
  C  C34  1  0.40690000  0.77310000  0.82050000  1
  C  C35  1  0.74950000  0.32050000  0.27310000  1
  C  C36  1  0.42470000  0.60550000  0.98370000  1
  C  C37  1  0.73610000  0.48370000  0.10550000  1
  C  C38  1  0.40910000  0.68200000  0.89620000  1
  C  C39  1  0.76270000  0.39620000  0.18200000  1
  C  C40  1  0.53750000  0.19960000  0.36160000  1
  C  C41  1  0.65130000  0.86160000  0.69960000  1
  C  C42  1  0.68910000  0.26700000  0.28640000  1
  C  C43  1  0.50750000  0.78640000  0.76700000  1
  C  C44  1  0.38870000  0.70440000  0.83820000  1
  C  C45  1  0.81870000  0.33820000  0.20440000  1
  C  C46  1  0.39040000  0.61890000  0.92050000  1
  C  C47  1  0.82020000  0.42050000  0.11890000  1
  C  C48  1  0.35960000  0.57950000  0.88110000  1
  C  C49  1  0.92980000  0.38110000  0.07950000  1
  C  C50  1  0.36130000  0.66180000  0.79560000  1
  C  C51  1  0.93130000  0.29560000  0.16180000  1
  C  C52  1  0.06090000  0.21360000  0.23300000  1
  C  C53  1  0.24250000  0.73300000  0.71360000  1
  C  C54  1  0.21250000  0.13840000  0.30040000  1
  C  C55  1  0.09870000  0.80040000  0.63840000  1
  C  C56  1  0.34090000  0.60380000  0.81800000  1
  C  C57  1  0.98730000  0.31800000  0.10380000  1
  C  C58  1  0.32530000  0.51630000  0.89450000  1
  C  C59  1  0.01390000  0.39450000  0.01630000  1
  C  C60  1  0.34310000  0.67950000  0.72690000  1
  C  C61  1  0.00050000  0.22690000  0.17950000  1
  C  C62  1  0.13700000  0.15150000  0.24330000  1
  C  C63  1  0.21820000  0.74330000  0.65150000  1
  C  C64  1  0.59160000  0.98370000  0.39450000  1
  C  C65  1  0.78020000  0.89450000  0.48370000  1
  C  C66  1  0.42330000  0.63570000  0.67690000  1
  C  C67  1  0.01410000  0.17690000  0.13570000  1
  C  C68  1  0.68910000  0.92050000  0.38110000  1
  C  C69  1  0.75930000  0.88110000  0.42050000  1
  C  C70  1  0.15030000  0.10280000  0.19840000  1
  C  C71  1  0.29850000  0.69840000  0.60280000  1
  C  C72  1  0.08680000  0.11570000  0.14650000  1
  C  C73  1  0.40100000  0.64650000  0.61570000  1
  C  C74  1  0.69470000  0.89620000  0.31800000  1
  C  C75  1  0.84110000  0.81800000  0.39620000  1
  C  C76  1  0.10090000  0.36160000  0.80040000  1
  C  C77  1  0.48710000  0.30040000  0.86160000  1
  C  C78  1  0.09420000  0.06280000  0.09920000  1
  C  C79  1  0.49380000  0.59920000  0.56280000  1
  C  C80  1  0.77310000  0.83820000  0.29560000  1
  C  C81  1  0.84310000  0.79560000  0.33820000  1
  C  C82  1  0.00310000  0.39720000  0.69840000  1
  C  C83  1  0.65130000  0.19840000  0.89720000  1
  C  C84  1  0.03850000  0.34850000  0.74330000  1
  C  C85  1  0.61970000  0.24330000  0.84850000  1
  C  C86  1  0.77260000  0.82050000  0.22690000  1
  C  C87  1  0.93000000  0.72690000  0.32050000  1
  C  C88  1  0.80900000  0.86430000  0.17690000  1
  C  C89  1  0.89980000  0.67690000  0.36430000  1
  C  C90  1  0.90700000  0.43720000  0.59920000  1
  C  C91  1  0.80660000  0.09920000  0.93720000  1
  C  C92  1  0.95250000  0.38430000  0.64650000  1
  C  C93  1  0.76670000  0.14650000  0.88430000  1
  C  C94  1  0.02450000  0.28640000  0.73300000  1
  C  C95  1  0.70610000  0.23300000  0.78640000  1
  Cd  Cd96  1  0.00000000  0.00000000  0.00000000  1
  Cd  Cd97  1  0.75000000  0.50000000  0.50000000  1
  Cd  Cd98  1  0.51937000  0.60563000  0.10563000  1
  Cd  Cd99  1  0.37500000  0.10563000  0.39437000  1
  Cd  Cd100  1  0.87500000  0.89437000  0.60563000  1
  Cd  Cd101  1  0.23063000  0.39437000  0.89437000  1
  H  H102  1  0.06330000  0.74640000  0.23760000  1
  H  H103  1  0.70270000  0.73760000  0.24640000  1
  H  H104  1  0.90880000  0.31420000  0.59940000  1
  H  H105  1  0.92760000  0.09940000  0.81420000  1
  H  H106  1  0.73550000  0.79550000  0.06110000  1
  H  H107  1  0.15790000  0.56110000  0.29550000  1
  H  H108  1  0.10970000  0.20870000  0.57730000  1
  H  H109  1  0.85430000  0.07730000  0.70870000  1
  H  H110  1  0.54660000  0.29550000  0.43890000  1
  H  H111  1  0.46900000  0.93890000  0.79550000  1
  H  H112  1  0.25820000  0.81420000  0.90060000  1
  H  H113  1  0.77700000  0.40060000  0.31420000  1
  H  H114  1  0.43700000  0.70870000  0.92270000  1
  H  H115  1  0.68160000  0.42270000  0.20870000  1
  H  H116  1  0.05090000  0.24640000  0.26240000  1
  H  H117  1  0.19030000  0.76240000  0.74640000  1
  H  H118  1  0.69910000  0.23760000  0.25360000  1
  H  H119  1  0.55970000  0.75360000  0.73760000  1
  H  H120  1  0.31300000  0.57730000  0.79130000  1
  H  H121  1  0.06840000  0.29130000  0.07730000  1
  H  H122  1  0.49180000  0.59940000  0.68580000  1
  H  H123  1  0.97300000  0.18580000  0.09940000  1
  H  H124  1  0.20340000  0.06110000  0.20450000  1
  H  H125  1  0.28100000  0.70450000  0.56110000  1
  H  H126  1  0.64030000  0.92270000  0.29130000  1
  H  H127  1  0.89570000  0.79130000  0.42270000  1
  H  H128  1  0.01450000  0.43890000  0.70450000  1
  H  H129  1  0.59210000  0.20450000  0.93890000  1
  H  H130  1  0.84120000  0.90060000  0.18580000  1
  H  H131  1  0.82240000  0.68580000  0.40060000  1
  H  H132  1  0.68670000  0.26240000  0.75360000  1
  H  H133  1  0.04730000  0.25360000  0.76240000  1
  O  O134  1  0.85450000  0.42090000  0.55450000  1
  O  O135  1  0.92010000  0.05450000  0.92090000  1
  O  O136  1  0.81970000  0.89580000  0.00940000  1
  O  O137  1  0.02510000  0.50940000  0.39580000  1
  O  O138  1  0.57910000  0.39580000  0.49060000  1
  O  O139  1  0.28450000  0.99060000  0.89580000  1
  O  O140  1  0.15900000  0.92090000  0.94550000  1
  O  O141  1  0.72460000  0.44550000  0.42090000  1
  O  O142  1  0.28410000  0.68210000  0.16070000  1
  O  O143  1  0.62310000  0.66070000  0.18210000  1
  O  O144  1  0.62500000  0.69505000  0.08375000  1
  O  O145  1  0.34620000  0.58375000  0.19505000  1
  O  O146  1  0.34230000  0.61870000  0.03470000  1
  O  O147  1  0.75430000  0.53470000  0.11870000  1
  O  O148  1  0.46750000  0.63680000  0.01620000  1
  O  O149  1  0.62950000  0.51620000  0.13680000  1
  O  O150  1  0.23370000  0.13680000  0.48380000  1
  O  O151  1  0.89570000  0.98380000  0.63680000  1
  O  O152  1  0.45875000  0.19505000  0.41625000  1
  O  O153  1  0.67995000  0.91625000  0.69505000  1
  O  O154  1  0.30040000  0.07910000  0.50810000  1
  O  O155  1  0.86240000  0.00810000  0.57910000  1
  O  O156  1  0.12700000  0.11870000  0.46530000  1
  O  O157  1  0.03900000  0.96530000  0.61870000  1
  O  O158  1  0.55850000  0.57910000  0.99190000  1
  O  O159  1  0.62050000  0.49190000  0.07910000  1
  O  O160  1  0.39930000  0.54700000  0.00400000  1
  O  O161  1  0.79970000  0.50400000  0.04700000  1
  O  O162  1  0.15330000  0.04700000  0.49600000  1
  O  O163  1  0.05370000  0.99600000  0.54700000  1
  O  O164  1  0.19480000  0.18210000  0.33930000  1
  O  O165  1  0.03380000  0.83930000  0.68210000  1
  O  O166  1  0.55520000  0.16070000  0.31790000  1
  O  O167  1  0.71620000  0.81790000  0.66070000  1
  O  O168  1  0.59670000  0.00400000  0.45300000  1
  O  O169  1  0.69630000  0.95300000  0.50400000  1
  O  O170  1  0.35070000  0.49600000  0.95300000  1
  O  O171  1  0.95030000  0.45300000  0.99600000  1
  O  O172  1  0.19150000  0.50810000  0.92090000  1
  O  O173  1  0.12950000  0.42090000  0.00810000  1
  O  O174  1  0.62300000  0.03470000  0.38130000  1
  O  O175  1  0.71100000  0.88130000  0.53470000  1
  O  O176  1  0.44960000  0.99190000  0.42090000  1
  O  O177  1  0.88760000  0.92090000  0.49190000  1
  O  O178  1  0.29125000  0.08375000  0.30495000  1
  O  O179  1  0.07005000  0.80495000  0.58375000  1
  O  O180  1  0.51630000  0.01620000  0.36320000  1
  O  O181  1  0.85430000  0.86320000  0.51620000  1
  O  O182  1  0.28250000  0.48380000  0.86320000  1
  O  O183  1  0.12050000  0.36320000  0.98380000  1
  O  O184  1  0.40770000  0.46530000  0.88130000  1
  O  O185  1  0.99570000  0.38130000  0.96530000  1
  O  O186  1  0.12500000  0.41625000  0.80495000  1
  O  O187  1  0.40380000  0.30495000  0.91625000  1
  O  O188  1  0.46590000  0.33930000  0.81790000  1
  O  O189  1  0.12690000  0.31790000  0.83930000  1
  O  O190  1  0.59100000  0.55450000  0.57910000  1
  O  O191  1  0.02540000  0.07910000  0.05450000  1
  O  O192  1  0.17090000  0.00940000  0.10420000  1
  O  O193  1  0.46550000  0.60420000  0.50940000  1
  O  O194  1  0.93030000  0.49060000  0.60420000  1
  O  O195  1  0.72490000  0.10420000  0.99060000  1
  O  O196  1  0.89550000  0.94550000  0.07910000  1
  O  O197  1  0.82990000  0.57910000  0.44550000  1
