# generated using pymatgen
data_Li3Mo(CN)6
_symmetry_space_group_name_H-M   'P 1'
_cell_length_a   13.52850000
_cell_length_b   13.52850000
_cell_length_c   14.27700000
_cell_angle_alpha   61.71970000
_cell_angle_beta   61.71970000
_cell_angle_gamma   60.00000000
_symmetry_Int_Tables_number   1
_chemical_formula_structural   Li3Mo(CN)6
_chemical_formula_sum   'Li6 Mo2 C12 N12'
_cell_volume   1894.23524564
_cell_formula_units_Z   2
loop_
 _symmetry_equiv_pos_site_id
 _symmetry_equiv_pos_as_xyz
  1  'x, y, z'
loop_
 _atom_site_type_symbol
 _atom_site_label
 _atom_site_symmetry_multiplicity
 _atom_site_fract_x
 _atom_site_fract_y
 _atom_site_fract_z
 _atom_site_occupancy
  Li  Li0  1  0.25000000  0.90725000  0.25000000  1
  Li  Li1  1  0.40725000  0.75000000  0.75000000  1
  Li  Li2  1  0.90725000  0.59275000  0.25000000  1
  Li  Li3  1  0.09275000  0.40725000  0.75000000  1
  Li  Li4  1  0.59275000  0.25000000  0.25000000  1
  Li  Li5  1  0.75000000  0.09275000  0.75000000  1
  Mo  Mo6  1  0.00000000  0.00000000  0.00000000  1
  Mo  Mo7  1  0.50000000  0.50000000  0.50000000  1
  C  C8  1  0.10113000  0.94923000  0.10761000  1
  C  C9  1  0.15797000  0.89887000  0.89239000  1
  C  C10  1  0.94923000  0.84203000  0.10761000  1
  C  C11  1  0.39887000  0.65797000  0.39239000  1
  C  C12  1  0.44923000  0.60113000  0.60761000  1
  C  C13  1  0.65797000  0.55077000  0.39239000  1
  C  C14  1  0.34203000  0.44923000  0.60761000  1
  C  C15  1  0.55077000  0.39887000  0.39239000  1
  C  C16  1  0.60113000  0.34203000  0.60761000  1
  C  C17  1  0.05077000  0.15797000  0.89239000  1
  C  C18  1  0.84203000  0.10113000  0.10761000  1
  C  C19  1  0.89887000  0.05077000  0.89239000  1
  N  N20  1  0.15427000  0.92307000  0.16509000  1
  N  N21  1  0.24243000  0.84573000  0.83491000  1
  N  N22  1  0.92307000  0.75757000  0.16509000  1
  N  N23  1  0.34573000  0.74243000  0.33491000  1
  N  N24  1  0.42307000  0.65427000  0.66509000  1
  N  N25  1  0.74243000  0.57693000  0.33491000  1
  N  N26  1  0.25757000  0.42307000  0.66509000  1
  N  N27  1  0.57693000  0.34573000  0.33491000  1
  N  N28  1  0.65427000  0.25757000  0.66509000  1
  N  N29  1  0.07693000  0.24243000  0.83491000  1
  N  N30  1  0.75757000  0.15427000  0.16509000  1
  N  N31  1  0.84573000  0.07693000  0.83491000  1
