# generated using pymatgen
data_Ca8H75C137(NO16)2
_symmetry_space_group_name_H-M   'P 1'
_cell_length_a   17.56769594
_cell_length_b   17.56769594
_cell_length_c   30.69900000
_cell_angle_alpha   89.19992873
_cell_angle_beta   89.19992873
_cell_angle_gamma   72.79592729
_symmetry_Int_Tables_number   1
_chemical_formula_structural   Ca8H75C137(NO16)2
_chemical_formula_sum   'Ca16 H150 C274 N4 O64'
_cell_volume   9049.17246988
_cell_formula_units_Z   2
loop_
 _symmetry_equiv_pos_site_id
 _symmetry_equiv_pos_as_xyz
  1  'x, y, z'
loop_
 _atom_site_type_symbol
 _atom_site_label
 _atom_site_symmetry_multiplicity
 _atom_site_fract_x
 _atom_site_fract_y
 _atom_site_fract_z
 _atom_site_occupancy
  C  C0  1  0.03850000  0.96150000  0.75000000  1
  C  C1  1  0.09690000  0.90310000  0.25000000  1
  C  C2  1  0.10970000  0.89030000  0.75000000  1
  C  C3  1  0.16760000  0.83240000  0.25000000  1
  C  C4  1  0.30110000  0.69890000  0.25000000  1
  C  C5  1  0.69890000  0.30110000  0.75000000  1
  C  C6  1  0.83240000  0.16760000  0.75000000  1
  C  C7  1  0.89030000  0.10970000  0.25000000  1
  C  C8  1  0.90310000  0.09690000  0.75000000  1
  C  C9  1  0.96150000  0.03850000  0.25000000  1
  C  C10  1  0.36550000  0.64130000  0.33680000  1
  C  C11  1  0.64130000  0.36550000  0.83680000  1
  C  C12  1  0.00820000  0.00020000  0.71160000  1
  C  C13  1  0.00020000  0.00820000  0.21160000  1
  C  C14  1  0.06530000  0.94330000  0.21170000  1
  C  C15  1  0.94330000  0.06530000  0.71170000  1
  C  C16  1  0.27880000  0.73940000  0.28840000  1
  C  C17  1  0.73940000  0.27880000  0.78840000  1
  C  C18  1  0.21100000  0.80800000  0.28730000  1
  C  C19  1  0.80800000  0.21100000  0.78730000  1
  C  C20  1  0.40530000  0.61730000  0.37820000  1
  C  C21  1  0.61730000  0.40530000  0.87820000  1
  C  C22  1  0.32190000  0.71490000  0.33030000  1
  C  C23  1  0.71490000  0.32190000  0.83030000  1
  C  C24  1  0.02880000  0.01380000  0.08490000  1
  C  C25  1  0.01380000  0.02880000  0.58490000  1
  C  C26  1  0.39780000  0.66680000  0.41030000  1
  C  C27  1  0.66680000  0.39780000  0.91030000  1
  C  C28  1  0.31630000  0.76250000  0.36330000  1
  C  C29  1  0.76250000  0.31630000  0.86330000  1
  C  C30  1  0.43690000  0.64350000  0.45360000  1
  C  C31  1  0.64350000  0.43690000  0.95360000  1
  C  C32  1  0.35090000  0.73950000  0.40310000  1
  C  C33  1  0.73950000  0.35090000  0.90310000  1
  C  C34  1  0.21330000  0.88310000  0.89600000  1
  C  C35  1  0.88310000  0.21330000  0.39600000  1
  C  C36  1  0.37050000  0.77890000  0.77410000  1
  C  C37  1  0.77890000  0.37050000  0.27410000  1
  C  C38  1  0.40730000  0.74610000  0.61790000  1
  C  C39  1  0.74610000  0.40730000  0.11790000  1
  C  C40  1  0.25500000  0.90140000  0.48440000  1
  C  C41  1  0.90140000  0.25500000  0.98440000  1
  C  C42  1  0.19620000  0.96260000  0.41360000  1
  C  C43  1  0.96260000  0.19620000  0.91360000  1
  C  C44  1  0.22320000  0.95380000  0.63190000  1
  C  C45  1  0.95380000  0.22320000  0.13190000  1
  C  C46  1  0.51680000  0.67220000  0.66690000  1
  C  C47  1  0.67220000  0.51680000  0.16690000  1
  C  C48  1  0.23960000  0.95060000  0.87750000  1
  C  C49  1  0.95060000  0.23960000  0.37750000  1
  C  C50  1  0.20310000  0.99790000  0.37340000  1
  C  C51  1  0.99790000  0.20310000  0.87340000  1
  C  C52  1  0.26050000  0.94170000  0.44130000  1
  C  C53  1  0.94170000  0.26050000  0.94130000  1
  C  C54  1  0.20570000  0.00890000  0.70750000  1
  C  C55  1  0.00890000  0.20570000  0.20750000  1
  C  C56  1  0.19660000  0.02100000  0.66310000  1
  C  C57  1  0.02100000  0.19660000  0.16310000  1
  C  C58  1  0.48920000  0.73220000  0.63630000  1
  C  C59  1  0.73220000  0.48920000  0.13630000  1
  C  C60  1  0.19560000  0.02900000  0.88500000  1
  C  C61  1  0.02900000  0.19560000  0.38500000  1
  C  C62  1  0.30810000  0.93450000  0.85140000  1
  C  C63  1  0.93450000  0.30810000  0.35140000  1
  C  C64  1  0.59190000  0.65750000  0.68450000  1
  C  C65  1  0.65750000  0.59190000  0.18450000  1
  C  C66  1  0.17760000  0.07220000  0.73570000  1
  C  C67  1  0.07220000  0.17760000  0.23570000  1
  C  C68  1  0.43950000  0.81070000  0.76410000  1
  C  C69  1  0.81070000  0.43950000  0.26410000  1
  C  C70  1  0.16100000  0.09680000  0.64730000  1
  C  C71  1  0.09680000  0.16100000  0.14730000  1
  C  C72  1  0.27120000  0.01580000  0.36050000  1
  C  C73  1  0.01580000  0.27120000  0.86050000  1
  C  C74  1  0.32790000  0.95990000  0.42930000  1
  C  C75  1  0.95990000  0.32790000  0.92930000  1
  C  C76  1  0.14800000  0.14240000  0.22040000  1
  C  C77  1  0.21270000  0.07770000  0.28950000  1
  C  C78  1  0.07770000  0.21270000  0.78950000  1
  C  C79  1  0.14240000  0.14800000  0.72040000  1
  C  C80  1  0.50830000  0.78450000  0.78900000  1
  C  C81  1  0.78450000  0.50830000  0.28900000  1
  C  C82  1  0.16000000  0.13440000  0.17580000  1
  C  C83  1  0.13440000  0.16000000  0.67580000  1
  C  C84  1  0.43790000  0.86430000  0.73080000  1
  C  C85  1  0.86430000  0.43790000  0.23080000  1
  C  C86  1  0.21860000  0.09080000  0.86540000  1
  C  C87  1  0.09080000  0.21860000  0.36540000  1
  C  C88  1  0.53810000  0.77730000  0.62340000  1
  C  C89  1  0.77730000  0.53810000  0.12340000  1
  C  C90  1  0.33130000  0.99650000  0.83250000  1
  C  C91  1  0.99650000  0.33130000  0.33250000  1
  C  C92  1  0.33390000  0.99670000  0.38970000  1
  C  C93  1  0.99670000  0.33390000  0.88970000  1
  C  C94  1  0.27740000  0.05500000  0.31750000  1
  C  C95  1  0.05500000  0.27740000  0.81750000  1
  C  C96  1  0.21773333  0.11553333  0.24980000  1
  C  C97  1  0.11553333  0.21773333  0.74980000  1
  C  C98  1  0.53710000  0.80330000  0.35880000  1
  C  C99  1  0.80330000  0.53710000  0.85880000  1
  C  C100  1  0.64210000  0.70190000  0.67170000  1
  C  C101  1  0.70190000  0.64210000  0.17170000  1
  C  C102  1  0.56300000  0.78920000  0.31680000  1
  C  C103  1  0.78920000  0.56300000  0.81680000  1
  C  C104  1  0.28580000  0.07560000  0.83830000  1
  C  C105  1  0.07560000  0.28580000  0.33830000  1
  C  C106  1  0.61270000  0.76430000  0.64080000  1
  C  C107  1  0.76430000  0.61270000  0.14080000  1
  C  C108  1  0.57320000  0.81200000  0.77960000  1
  C  C109  1  0.81200000  0.57320000  0.27960000  1
  C  C110  1  0.50120000  0.89280000  0.72200000  1
  C  C111  1  0.89280000  0.50120000  0.22200000  1
  C  C112  1  0.65850000  0.73750000  0.23290000  1
  C  C113  1  0.73750000  0.65850000  0.73290000  1
  C  C114  1  0.53410000  0.86950000  0.43090000  1
  C  C115  1  0.86950000  0.53410000  0.93090000  1
  C  C116  1  0.68900000  0.72200000  0.19140000  1
  C  C117  1  0.72200000  0.68900000  0.69140000  1
  C  C118  1  0.56000000  0.85680000  0.38400000  1
  C  C119  1  0.85680000  0.56000000  0.88400000  1
  C  C120  1  0.34650000  0.07270000  0.30570000  1
  C  C121  1  0.07270000  0.34650000  0.80570000  1
  C  C122  1  0.28870000  0.13210000  0.23920000  1
  C  C123  1  0.13210000  0.28870000  0.73920000  1
  C  C124  1  0.57350000  0.86470000  0.74530000  1
  C  C125  1  0.86470000  0.57350000  0.24530000  1
  C  C126  1  0.61450000  0.82830000  0.29760000  1
  C  C127  1  0.82830000  0.61450000  0.79760000  1
  C  C128  1  0.30680000  0.14080000  0.81460000  1
  C  C129  1  0.14080000  0.30680000  0.31460000  1
  C  C130  1  0.64430000  0.81230000  0.25200000  1
  C  C131  1  0.81230000  0.64430000  0.75200000  1
  C  C132  1  0.33710000  0.12870000  0.77200000  1
  C  C133  1  0.12870000  0.33710000  0.27200000  1
  C  C134  1  0.35390000  0.11230000  0.26590000  1
  C  C135  1  0.11230000  0.35390000  0.76590000  1
  C  C136  1  0.36450000  0.11610000  0.67780000  1
  C  C137  1  0.11610000  0.36450000  0.17780000  1
  C  C138  1  0.70640000  0.78320000  0.16750000  1
  C  C139  1  0.78320000  0.70640000  0.66750000  1
  C  C140  1  0.39160000  0.10100000  0.63490000  1
  C  C141  1  0.10100000  0.39160000  0.13490000  1
  C  C142  1  0.60840000  0.89900000  0.36510000  1
  C  C143  1  0.89900000  0.60840000  0.86510000  1
  C  C144  1  0.29360000  0.21680000  0.83250000  1
  C  C145  1  0.21680000  0.29360000  0.33250000  1
  C  C146  1  0.63550000  0.88390000  0.32220000  1
  C  C147  1  0.88390000  0.63550000  0.82220000  1
  C  C148  1  0.64610000  0.88770000  0.73410000  1
  C  C149  1  0.88770000  0.64610000  0.23410000  1
  C  C150  1  0.66290000  0.87130000  0.22800000  1
  C  C151  1  0.87130000  0.66290000  0.72800000  1
  C  C152  1  0.35570000  0.18770000  0.74800000  1
  C  C153  1  0.18770000  0.35570000  0.24800000  1
  C  C154  1  0.69320000  0.85920000  0.18540000  1
  C  C155  1  0.85920000  0.69320000  0.68540000  1
  C  C156  1  0.38550000  0.17170000  0.70240000  1
  C  C157  1  0.17170000  0.38550000  0.20240000  1
  C  C158  1  0.42650000  0.13530000  0.25470000  1
  C  C159  1  0.13530000  0.42650000  0.75470000  1
  C  C160  1  0.71130000  0.86790000  0.76080000  1
  C  C161  1  0.86790000  0.71130000  0.26080000  1
  C  C162  1  0.65350000  0.92730000  0.69430000  1
  C  C163  1  0.92730000  0.65350000  0.19430000  1
  C  C164  1  0.44000000  0.14320000  0.61600000  1
  C  C165  1  0.14320000  0.44000000  0.11600000  1
  C  C166  1  0.31100000  0.27800000  0.80860000  1
  C  C167  1  0.27800000  0.31100000  0.30860000  1
  C  C168  1  0.46590000  0.13050000  0.56910000  1
  C  C169  1  0.13050000  0.46590000  0.06910000  1
  C  C170  1  0.34150000  0.26250000  0.76710000  1
  C  C171  1  0.26250000  0.34150000  0.26710000  1
  C  C172  1  0.49880000  0.10720000  0.27800000  1
  C  C173  1  0.10720000  0.49880000  0.77800000  1
  C  C174  1  0.42680000  0.18800000  0.22040000  1
  C  C175  1  0.18800000  0.42680000  0.72040000  1
  C  C176  1  0.38730000  0.23570000  0.35920000  1
  C  C177  1  0.23570000  0.38730000  0.85920000  1
  C  C178  1  0.71420000  0.92440000  0.16170000  1
  C  C179  1  0.92440000  0.71420000  0.66170000  1
  C  C180  1  0.43700000  0.21080000  0.68320000  1
  C  C181  1  0.21080000  0.43700000  0.18320000  1
  C  C182  1  0.35790000  0.29810000  0.32830000  1
  C  C183  1  0.29810000  0.35790000  0.82830000  1
  C  C184  1  0.46290000  0.19670000  0.64120000  1
  C  C185  1  0.19670000  0.46290000  0.14120000  1
  C  C186  1  0.78230000  0.88450000  0.75020000  1
  C  C187  1  0.88450000  0.78230000  0.25020000  1
  C  C188  1  0.72260000  0.94500000  0.68250000  1
  C  C189  1  0.94500000  0.72260000  0.18250000  1
  C  C190  1  0.66610000  0.00330000  0.61030000  1
  C  C191  1  0.00330000  0.66610000  0.11030000  1
  C  C192  1  0.66870000  0.00350000  0.16750000  1
  C  C193  1  0.00350000  0.66870000  0.66750000  1
  C  C194  1  0.46190000  0.22270000  0.37660000  1
  C  C195  1  0.22270000  0.46190000  0.87660000  1
  C  C196  1  0.78140000  0.90920000  0.13460000  1
  C  C197  1  0.90920000  0.78140000  0.63460000  1
  C  C198  1  0.56210000  0.13570000  0.26920000  1
  C  C199  1  0.13570000  0.56210000  0.76920000  1
  C  C200  1  0.84000000  0.86560000  0.82420000  1
  C  C201  1  0.86560000  0.84000000  0.32420000  1
  C  C202  1  0.49170000  0.21550000  0.21100000  1
  C  C203  1  0.21550000  0.49170000  0.71100000  1
  C  C204  1  0.78730000  0.92230000  0.71050000  1
  C  C205  1  0.85200000  0.85760000  0.77960000  1
  C  C206  1  0.85760000  0.85200000  0.27960000  1
  C  C207  1  0.92230000  0.78730000  0.21050000  1
  C  C208  1  0.67210000  0.04010000  0.57070000  1
  C  C209  1  0.04010000  0.67210000  0.07070000  1
  C  C210  1  0.72880000  0.98420000  0.63950000  1
  C  C211  1  0.98420000  0.72880000  0.13950000  1
  C  C212  1  0.83900000  0.90320000  0.35270000  1
  C  C213  1  0.90320000  0.83900000  0.85270000  1
  C  C214  1  0.56050000  0.18930000  0.23590000  1
  C  C215  1  0.18930000  0.56050000  0.73590000  1
  C  C216  1  0.82240000  0.92780000  0.26430000  1
  C  C217  1  0.92780000  0.82240000  0.76430000  1
  C  C218  1  0.40810000  0.34250000  0.31550000  1
  C  C219  1  0.34250000  0.40810000  0.81550000  1
  C  C220  1  0.69190000  0.06550000  0.14860000  1
  C  C221  1  0.06550000  0.69190000  0.64860000  1
  C  C222  1  0.80440000  0.97100000  0.11500000  1
  C  C223  1  0.97100000  0.80440000  0.61500000  1
  C  C224  1  0.51080000  0.26780000  0.36370000  1
  C  C225  1  0.26780000  0.51080000  0.86370000  1
  C  C226  1  0.80340000  0.97900000  0.33690000  1
  C  C227  1  0.97900000  0.80340000  0.83690000  1
  C  C228  1  0.79430000  0.99110000  0.29250000  1
  C  C229  1  0.99110000  0.79430000  0.79250000  1
  C  C230  1  0.73950000  0.05830000  0.55870000  1
  C  C231  1  0.05830000  0.73950000  0.05870000  1
  C  C232  1  0.79690000  0.00210000  0.62660000  1
  C  C233  1  0.00210000  0.79690000  0.12660000  1
  C  C234  1  0.76040000  0.04940000  0.12250000  1
  C  C235  1  0.04940000  0.76040000  0.62250000  1
  C  C236  1  0.48320000  0.32780000  0.33310000  1
  C  C237  1  0.32780000  0.48320000  0.83310000  1
  C  C238  1  0.77680000  0.04620000  0.36810000  1
  C  C239  1  0.04620000  0.77680000  0.86810000  1
  C  C240  1  0.80380000  0.03740000  0.58640000  1
  C  C241  1  0.03740000  0.80380000  0.08640000  1
  C  C242  1  0.74500000  0.09860000  0.51560000  1
  C  C243  1  0.09860000  0.74500000  0.01560000  1
  C  C244  1  0.59270000  0.25390000  0.38210000  1
  C  C245  1  0.25390000  0.59270000  0.88210000  1
  C  C246  1  0.62950000  0.22110000  0.22590000  1
  C  C247  1  0.22110000  0.62950000  0.72590000  1
  C  C248  1  0.78670000  0.11690000  0.10400000  1
  C  C249  1  0.11690000  0.78670000  0.60400000  1
  C  C250  1  0.64910000  0.26050000  0.59690000  1
  C  C251  1  0.26050000  0.64910000  0.09690000  1
  C  C252  1  0.56310000  0.35650000  0.54640000  1
  C  C253  1  0.35650000  0.56310000  0.04640000  1
  C  C254  1  0.68370000  0.23750000  0.63670000  1
  C  C255  1  0.23750000  0.68370000  0.13670000  1
  C  C256  1  0.60220000  0.33320000  0.58970000  1
  C  C257  1  0.33320000  0.60220000  0.08970000  1
  C  C258  1  0.97120000  0.98620000  0.91510000  1
  C  C259  1  0.98620000  0.97120000  0.41510000  1
  C  C260  1  0.67810000  0.28510000  0.66970000  1
  C  C261  1  0.28510000  0.67810000  0.16970000  1
  C  C262  1  0.59470000  0.38270000  0.62180000  1
  C  C263  1  0.38270000  0.59470000  0.12180000  1
  C  C264  1  0.78900000  0.19200000  0.71270000  1
  C  C265  1  0.19200000  0.78900000  0.21270000  1
  C  C266  1  0.72120000  0.26060000  0.71160000  1
  C  C267  1  0.26060000  0.72120000  0.21160000  1
  C  C268  1  0.93470000  0.05670000  0.78830000  1
  C  C269  1  0.05670000  0.93470000  0.28830000  1
  C  C270  1  0.99180000  0.99980000  0.28840000  1
  C  C271  1  0.99980000  0.99180000  0.78840000  1
  C  C272  1  0.63450000  0.35870000  0.66320000  1
  C  C273  1  0.35870000  0.63450000  0.16320000  1
  Ca  Ca274  1  0.24780000  0.77180000  0.68720000  1
  Ca  Ca275  1  0.77180000  0.24780000  0.18720000  1
  Ca  Ca276  1  0.11340000  0.94460000  0.99670000  1
  Ca  Ca277  1  0.94460000  0.11340000  0.49670000  1
  Ca  Ca278  1  0.24940000  0.83180000  0.56920000  1
  Ca  Ca279  1  0.83180000  0.24940000  0.06920000  1
  Ca  Ca280  1  0.45240000  0.79540000  0.51370000  1
  Ca  Ca281  1  0.79540000  0.45240000  0.01370000  1
  Ca  Ca282  1  0.54760000  0.20460000  0.48630000  1
  Ca  Ca283  1  0.20460000  0.54760000  0.98630000  1
  Ca  Ca284  1  0.75060000  0.16820000  0.43080000  1
  Ca  Ca285  1  0.16820000  0.75060000  0.93080000  1
  Ca  Ca286  1  0.88660000  0.05540000  0.00330000  1
  Ca  Ca287  1  0.05540000  0.88660000  0.50330000  1
  Ca  Ca288  1  0.75220000  0.22820000  0.31280000  1
  Ca  Ca289  1  0.22820000  0.75220000  0.81280000  1
  H  H290  1  0.34570000  0.65430000  0.25000000  1
  H  H291  1  0.65430000  0.34570000  0.75000000  1
  H  H292  1  0.43720000  0.56500000  0.38180000  1
  H  H293  1  0.56500000  0.43720000  0.88180000  1
  H  H294  1  0.03280000  0.98120000  0.68530000  1
  H  H295  1  0.98120000  0.03280000  0.18530000  1
  H  H296  1  0.08980000  0.92480000  0.18530000  1
  H  H297  1  0.92480000  0.08980000  0.68530000  1
  H  H298  1  0.39600000  0.62920000  0.18510000  1
  H  H299  1  0.62920000  0.39600000  0.68510000  1
  H  H300  1  0.19560000  0.83740000  0.31260000  1
  H  H301  1  0.83740000  0.19560000  0.81260000  1
  H  H302  1  0.14860000  0.95320000  0.42170000  1
  H  H303  1  0.95320000  0.14860000  0.92170000  1
  H  H304  1  0.28690000  0.81570000  0.35960000  1
  H  H305  1  0.81570000  0.28690000  0.85960000  1
  H  H306  1  0.34110000  0.77630000  0.42550000  1
  H  H307  1  0.77630000  0.34110000  0.92550000  1
  H  H308  1  0.48450000  0.64110000  0.67570000  1
  H  H309  1  0.64110000  0.48450000  0.17570000  1
  H  H310  1  0.16010000  0.00990000  0.35460000  1
  H  H311  1  0.00990000  0.16010000  0.85460000  1
  H  H312  1  0.23070000  0.95810000  0.71840000  1
  H  H313  1  0.95810000  0.23070000  0.21840000  1
  H  H314  1  0.15080000  0.04040000  0.90300000  1
  H  H315  1  0.04040000  0.15080000  0.40300000  1
  H  H316  1  0.33840000  0.88200000  0.84670000  1
  H  H317  1  0.88200000  0.33840000  0.34670000  1
  H  H318  1  0.60900000  0.61720000  0.70530000  1
  H  H319  1  0.61720000  0.60900000  0.20530000  1
  H  H320  1  0.16530000  0.06750000  0.29740000  1
  H  H321  1  0.06750000  0.16530000  0.79740000  1
  H  H322  1  0.18270000  0.06310000  0.76560000  1
  H  H323  1  0.06310000  0.18270000  0.26560000  1
  H  H324  1  0.51080000  0.74860000  0.81180000  1
  H  H325  1  0.74860000  0.51080000  0.31180000  1
  H  H326  1  0.15470000  0.10570000  0.61750000  1
  H  H327  1  0.10570000  0.15470000  0.11750000  1
  H  H328  1  0.39250000  0.88170000  0.71370000  1
  H  H329  1  0.88170000  0.39250000  0.21370000  1
  H  H330  1  0.50340000  0.77620000  0.37070000  1
  H  H331  1  0.77620000  0.50340000  0.87070000  1
  H  H332  1  0.54620000  0.75300000  0.30040000  1
  H  H333  1  0.75300000  0.54620000  0.80040000  1
  H  H334  1  0.37090000  0.94750000  0.44820000  1
  H  H335  1  0.94750000  0.37090000  0.94820000  1
  H  H336  1  0.21110000  0.11090000  0.16480000  1
  H  H337  1  0.11090000  0.21110000  0.66480000  1
  H  H338  1  0.18870000  0.14330000  0.87050000  1
  H  H339  1  0.14330000  0.18870000  0.37050000  1
  H  H340  1  0.52030000  0.81730000  0.60250000  1
  H  H341  1  0.81730000  0.52030000  0.10250000  1
  H  H342  1  0.64700000  0.69680000  0.24880000  1
  H  H343  1  0.69680000  0.64700000  0.74880000  1
  H  H344  1  0.37770000  0.98510000  0.81570000  1
  H  H345  1  0.98510000  0.37770000  0.31570000  1
  H  H346  1  0.38070000  0.00870000  0.38250000  1
  H  H347  1  0.00870000  0.38070000  0.88250000  1
  H  H348  1  0.61820000  0.79460000  0.79690000  1
  H  H349  1  0.79460000  0.61820000  0.29690000  1
  H  H350  1  0.33160000  0.08840000  0.68990000  1
  H  H351  1  0.08840000  0.33160000  0.18990000  1
  H  H352  1  0.34490000  0.07890000  0.75940000  1
  H  H353  1  0.07890000  0.34490000  0.25940000  1
  H  H354  1  0.49670000  0.93150000  0.70040000  1
  H  H355  1  0.93150000  0.49670000  0.20040000  1
  H  H356  1  0.37760000  0.06280000  0.61890000  1
  H  H357  1  0.06280000  0.37760000  0.11890000  1
  H  H358  1  0.64400000  0.79660000  0.63240000  1
  H  H359  1  0.79660000  0.64400000  0.13240000  1
  H  H360  1  0.38960000  0.05820000  0.32450000  1
  H  H361  1  0.05820000  0.38960000  0.82450000  1
  H  H362  1  0.29190000  0.15790000  0.21290000  1
  H  H363  1  0.15790000  0.29190000  0.71290000  1
  H  H364  1  0.27300000  0.22660000  0.86060000  1
  H  H365  1  0.22660000  0.27300000  0.36060000  1
  H  H366  1  0.72700000  0.77340000  0.13940000  1
  H  H367  1  0.77340000  0.72700000  0.63940000  1
  H  H368  1  0.70810000  0.84210000  0.78710000  1
  H  H369  1  0.84210000  0.70810000  0.28710000  1
  H  H370  1  0.61040000  0.94180000  0.67550000  1
  H  H371  1  0.94180000  0.61040000  0.17550000  1
  H  H372  1  0.35600000  0.20340000  0.36760000  1
  H  H373  1  0.20340000  0.35600000  0.86760000  1
  H  H374  1  0.62240000  0.93720000  0.38110000  1
  H  H375  1  0.93720000  0.62240000  0.88110000  1
  H  H376  1  0.50330000  0.06850000  0.29960000  1
  H  H377  1  0.06850000  0.50330000  0.79960000  1
  H  H378  1  0.65510000  0.92110000  0.24060000  1
  H  H379  1  0.92110000  0.65510000  0.74060000  1
  H  H380  1  0.66840000  0.91160000  0.31010000  1
  H  H381  1  0.91160000  0.66840000  0.81010000  1
  H  H382  1  0.38180000  0.20540000  0.20310000  1
  H  H383  1  0.20540000  0.38180000  0.70310000  1
  H  H384  1  0.61930000  0.99130000  0.61750000  1
  H  H385  1  0.99130000  0.61930000  0.11750000  1
  H  H386  1  0.62230000  0.01490000  0.18430000  1
  H  H387  1  0.01490000  0.62230000  0.68430000  1
  H  H388  1  0.35300000  0.30320000  0.75120000  1
  H  H389  1  0.30320000  0.35300000  0.25120000  1
  H  H390  1  0.47970000  0.18270000  0.39750000  1
  H  H391  1  0.18270000  0.47970000  0.89750000  1
  H  H392  1  0.81130000  0.85670000  0.12950000  1
  H  H393  1  0.85670000  0.81130000  0.62950000  1
  H  H394  1  0.78890000  0.88910000  0.83520000  1
  H  H395  1  0.88910000  0.78890000  0.33520000  1
  H  H396  1  0.62910000  0.05250000  0.55180000  1
  H  H397  1  0.05250000  0.62910000  0.05180000  1
  H  H398  1  0.45380000  0.24700000  0.69960000  1
  H  H399  1  0.24700000  0.45380000  0.19960000  1
  H  H400  1  0.49660000  0.22380000  0.62930000  1
  H  H401  1  0.22380000  0.49660000  0.12930000  1
  H  H402  1  0.60750000  0.11830000  0.28630000  1
  H  H403  1  0.11830000  0.60750000  0.78630000  1
  H  H404  1  0.84530000  0.89430000  0.38250000  1
  H  H405  1  0.89430000  0.84530000  0.88250000  1
  H  H406  1  0.48920000  0.25140000  0.18820000  1
  H  H407  1  0.25140000  0.48920000  0.68820000  1
  H  H408  1  0.81730000  0.93690000  0.23440000  1
  H  H409  1  0.93690000  0.81730000  0.73440000  1
  H  H410  1  0.83470000  0.93250000  0.70260000  1
  H  H411  1  0.93250000  0.83470000  0.20260000  1
  H  H412  1  0.39100000  0.38280000  0.29470000  1
  H  H413  1  0.38280000  0.39100000  0.79470000  1
  H  H414  1  0.66160000  0.11800000  0.15330000  1
  H  H415  1  0.11800000  0.66160000  0.65330000  1
  H  H416  1  0.84920000  0.95960000  0.09700000  1
  H  H417  1  0.95960000  0.84920000  0.59700000  1
  H  H418  1  0.76930000  0.04190000  0.28160000  1
  H  H419  1  0.04190000  0.76930000  0.78160000  1
  H  H420  1  0.83990000  0.99010000  0.64540000  1
  H  H421  1  0.99010000  0.83990000  0.14540000  1
  H  H422  1  0.51550000  0.35890000  0.32430000  1
  H  H423  1  0.35890000  0.51550000  0.82430000  1
  H  H424  1  0.65890000  0.22370000  0.57450000  1
  H  H425  1  0.22370000  0.65890000  0.07450000  1
  H  H426  1  0.71310000  0.18430000  0.64040000  1
  H  H427  1  0.18430000  0.71310000  0.14040000  1
  H  H428  1  0.85140000  0.04680000  0.57830000  1
  H  H429  1  0.04680000  0.85140000  0.07830000  1
  H  H430  1  0.80440000  0.16260000  0.68740000  1
  H  H431  1  0.16260000  0.80440000  0.18740000  1
  H  H432  1  0.60400000  0.37080000  0.81490000  1
  H  H433  1  0.37080000  0.60400000  0.31490000  1
  H  H434  1  0.91020000  0.07520000  0.81470000  1
  H  H435  1  0.07520000  0.91020000  0.31470000  1
  H  H436  1  0.96720000  0.01880000  0.31470000  1
  H  H437  1  0.01880000  0.96720000  0.81470000  1
  H  H438  1  0.56280000  0.43500000  0.61820000  1
  H  H439  1  0.43500000  0.56280000  0.11820000  1
  N  N440  1  0.11250000  0.97310000  0.08050000  1
  N  N441  1  0.97310000  0.11250000  0.58050000  1
  N  N442  1  0.88750000  0.02690000  0.91950000  1
  N  N443  1  0.02690000  0.88750000  0.41950000  1
  O  O444  1  0.14390000  0.86850000  0.78580000  1
  O  O445  1  0.86850000  0.14390000  0.28580000  1
  O  O446  1  0.01150000  0.00390000  0.54590000  1
  O  O447  1  0.00390000  0.01150000  0.04590000  1
  O  O448  1  0.24210000  0.81510000  0.88020000  1
  O  O449  1  0.81510000  0.24210000  0.38020000  1
  O  O450  1  0.16500000  0.89520000  0.92720000  1
  O  O451  1  0.89520000  0.16500000  0.42720000  1
  O  O452  1  0.48860000  0.57820000  0.45660000  1
  O  O453  1  0.57820000  0.48860000  0.95660000  1
  O  O454  1  0.35850000  0.72010000  0.63810000  1
  O  O455  1  0.72010000  0.35850000  0.13810000  1
  O  O456  1  0.18920000  0.89720000  0.49840000  1
  O  O457  1  0.89720000  0.18920000  0.99840000  1
  O  O458  1  0.41550000  0.68850000  0.48540000  1
  O  O459  1  0.68850000  0.41550000  0.98540000  1
  O  O460  1  0.31560000  0.79320000  0.74750000  1
  O  O461  1  0.79320000  0.31560000  0.24750000  1
  O  O462  1  0.36970000  0.74170000  0.80910000  1
  O  O463  1  0.74170000  0.36970000  0.30910000  1
  O  O464  1  0.25680000  0.88400000  0.64640000  1
  O  O465  1  0.88400000  0.25680000  0.14640000  1
  O  O466  1  0.39230000  0.78270000  0.58140000  1
  O  O467  1  0.78270000  0.39230000  0.08140000  1
  O  O468  1  0.21110000  0.96710000  0.59200000  1
  O  O469  1  0.96710000  0.21110000  0.09200000  1
  O  O470  1  0.31840000  0.87000000  0.50520000  1
  O  O471  1  0.87000000  0.31840000  0.00520000  1
  O  O472  1  0.50470000  0.81990000  0.44790000  1
  O  O473  1  0.81990000  0.50470000  0.94790000  1
  O  O474  1  0.54330000  0.92790000  0.44990000  1
  O  O475  1  0.92790000  0.54330000  0.94990000  1
  O  O476  1  0.45670000  0.07210000  0.55010000  1
  O  O477  1  0.07210000  0.45670000  0.05010000  1
  O  O478  1  0.49530000  0.18010000  0.55210000  1
  O  O479  1  0.18010000  0.49530000  0.05210000  1
  O  O480  1  0.68160000  0.13000000  0.49480000  1
  O  O481  1  0.13000000  0.68160000  0.99480000  1
  O  O482  1  0.78890000  0.03290000  0.40800000  1
  O  O483  1  0.03290000  0.78890000  0.90800000  1
  O  O484  1  0.60770000  0.21730000  0.41860000  1
  O  O485  1  0.21730000  0.60770000  0.91860000  1
  O  O486  1  0.74320000  0.11600000  0.35360000  1
  O  O487  1  0.11600000  0.74320000  0.85360000  1
  O  O488  1  0.63030000  0.25830000  0.19090000  1
  O  O489  1  0.25830000  0.63030000  0.69090000  1
  O  O490  1  0.68440000  0.20680000  0.25250000  1
  O  O491  1  0.20680000  0.68440000  0.75250000  1
  O  O492  1  0.58450000  0.31150000  0.51460000  1
  O  O493  1  0.31150000  0.58450000  0.01460000  1
  O  O494  1  0.81080000  0.10280000  0.50160000  1
  O  O495  1  0.10280000  0.81080000  0.00160000  1
  O  O496  1  0.64150000  0.27990000  0.36190000  1
  O  O497  1  0.27990000  0.64150000  0.86190000  1
  O  O498  1  0.51140000  0.42180000  0.54340000  1
  O  O499  1  0.42180000  0.51140000  0.04340000  1
  O  O500  1  0.83500000  0.10480000  0.07280000  1
  O  O501  1  0.10480000  0.83500000  0.57280000  1
  O  O502  1  0.75790000  0.18490000  0.11980000  1
  O  O503  1  0.18490000  0.75790000  0.61980000  1
  O  O504  1  0.98850000  0.99610000  0.45410000  1
  O  O505  1  0.99610000  0.98850000  0.95410000  1
  O  O506  1  0.85610000  0.13150000  0.21420000  1
  O  O507  1  0.13150000  0.85610000  0.71420000  1
