# generated using pymatgen
data_CoH2(C3N4)2
_symmetry_space_group_name_H-M   'P 1'
_cell_length_a   18.79760000
_cell_length_b   18.79760000
_cell_length_c   18.79760000
_cell_angle_alpha   90.00000000
_cell_angle_beta   90.00000000
_cell_angle_gamma   90.00000000
_symmetry_Int_Tables_number   1
_chemical_formula_structural   CoH2(C3N4)2
_chemical_formula_sum   'Co12 H24 C72 N96'
_cell_volume   6642.12755685
_cell_formula_units_Z   12
loop_
 _symmetry_equiv_pos_site_id
 _symmetry_equiv_pos_as_xyz
  1  'x, y, z'
loop_
 _atom_site_type_symbol
 _atom_site_label
 _atom_site_symmetry_multiplicity
 _atom_site_fract_x
 _atom_site_fract_y
 _atom_site_fract_z
 _atom_site_occupancy
  Co  Co0  1  0.00000000  0.36196000  0.50000000  1
  Co  Co1  1  0.00000000  0.50000000  0.36196000  1
  Co  Co2  1  0.00000000  0.50000000  0.63804000  1
  Co  Co3  1  0.00000000  0.63804000  0.50000000  1
  Co  Co4  1  0.36196000  0.00000000  0.50000000  1
  Co  Co5  1  0.36196000  0.50000000  0.00000000  1
  Co  Co6  1  0.50000000  0.00000000  0.36196000  1
  Co  Co7  1  0.50000000  0.00000000  0.63804000  1
  Co  Co8  1  0.50000000  0.36196000  0.00000000  1
  Co  Co9  1  0.50000000  0.63804000  0.00000000  1
  Co  Co10  1  0.63804000  0.00000000  0.50000000  1
  Co  Co11  1  0.63804000  0.50000000  0.00000000  1
  H  H12  1  0.23680000  0.23680000  0.38770000  1
  H  H13  1  0.23680000  0.23680000  0.61230000  1
  H  H14  1  0.23680000  0.38770000  0.23680000  1
  H  H15  1  0.23680000  0.38770000  0.76320000  1
  H  H16  1  0.23680000  0.61230000  0.23680000  1
  H  H17  1  0.23680000  0.61230000  0.76320000  1
  H  H18  1  0.23680000  0.76320000  0.38770000  1
  H  H19  1  0.23680000  0.76320000  0.61230000  1
  H  H20  1  0.38770000  0.23680000  0.23680000  1
  H  H21  1  0.38770000  0.23680000  0.76320000  1
  H  H22  1  0.38770000  0.76320000  0.23680000  1
  H  H23  1  0.38770000  0.76320000  0.76320000  1
  H  H24  1  0.61230000  0.23680000  0.23680000  1
  H  H25  1  0.61230000  0.23680000  0.76320000  1
  H  H26  1  0.61230000  0.76320000  0.23680000  1
  H  H27  1  0.61230000  0.76320000  0.76320000  1
  H  H28  1  0.76320000  0.23680000  0.38770000  1
  H  H29  1  0.76320000  0.23680000  0.61230000  1
  H  H30  1  0.76320000  0.38770000  0.23680000  1
  H  H31  1  0.76320000  0.38770000  0.76320000  1
  H  H32  1  0.76320000  0.61230000  0.23680000  1
  H  H33  1  0.76320000  0.61230000  0.76320000  1
  H  H34  1  0.76320000  0.76320000  0.38770000  1
  H  H35  1  0.76320000  0.76320000  0.61230000  1
  C  C36  1  0.16410000  0.35006000  0.35006000  1
  C  C37  1  0.16410000  0.35006000  0.64994000  1
  C  C38  1  0.16410000  0.64994000  0.35006000  1
  C  C39  1  0.16410000  0.64994000  0.64994000  1
  C  C40  1  0.22730000  0.31818000  0.31818000  1
  C  C41  1  0.22730000  0.31818000  0.68182000  1
  C  C42  1  0.22730000  0.68182000  0.31818000  1
  C  C43  1  0.22730000  0.68182000  0.68182000  1
  C  C44  1  0.25746000  0.25746000  0.34770000  1
  C  C45  1  0.25746000  0.25746000  0.65230000  1
  C  C46  1  0.25746000  0.34770000  0.25746000  1
  C  C47  1  0.25746000  0.34770000  0.74254000  1
  C  C48  1  0.25746000  0.65230000  0.25746000  1
  C  C49  1  0.25746000  0.65230000  0.74254000  1
  C  C50  1  0.25746000  0.74254000  0.34770000  1
  C  C51  1  0.25746000  0.74254000  0.65230000  1
  C  C52  1  0.31818000  0.22730000  0.31818000  1
  C  C53  1  0.31818000  0.22730000  0.68182000  1
  C  C54  1  0.31818000  0.31818000  0.22730000  1
  C  C55  1  0.31818000  0.31818000  0.77270000  1
  C  C56  1  0.31818000  0.68182000  0.22730000  1
  C  C57  1  0.31818000  0.68182000  0.77270000  1
  C  C58  1  0.31818000  0.77270000  0.31818000  1
  C  C59  1  0.31818000  0.77270000  0.68182000  1
  C  C60  1  0.34770000  0.25746000  0.25746000  1
  C  C61  1  0.34770000  0.25746000  0.74254000  1
  C  C62  1  0.34770000  0.74254000  0.25746000  1
  C  C63  1  0.34770000  0.74254000  0.74254000  1
  C  C64  1  0.35006000  0.16410000  0.35006000  1
  C  C65  1  0.35006000  0.16410000  0.64994000  1
  C  C66  1  0.35006000  0.35006000  0.16410000  1
  C  C67  1  0.35006000  0.35006000  0.83590000  1
  C  C68  1  0.35006000  0.64994000  0.16410000  1
  C  C69  1  0.35006000  0.64994000  0.83590000  1
  C  C70  1  0.35006000  0.83590000  0.35006000  1
  C  C71  1  0.35006000  0.83590000  0.64994000  1
  C  C72  1  0.64994000  0.16410000  0.35006000  1
  C  C73  1  0.64994000  0.16410000  0.64994000  1
  C  C74  1  0.64994000  0.35006000  0.16410000  1
  C  C75  1  0.64994000  0.35006000  0.83590000  1
  C  C76  1  0.64994000  0.64994000  0.16410000  1
  C  C77  1  0.64994000  0.64994000  0.83590000  1
  C  C78  1  0.64994000  0.83590000  0.35006000  1
  C  C79  1  0.64994000  0.83590000  0.64994000  1
  C  C80  1  0.65230000  0.25746000  0.25746000  1
  C  C81  1  0.65230000  0.25746000  0.74254000  1
  C  C82  1  0.65230000  0.74254000  0.25746000  1
  C  C83  1  0.65230000  0.74254000  0.74254000  1
  C  C84  1  0.68182000  0.22730000  0.31818000  1
  C  C85  1  0.68182000  0.22730000  0.68182000  1
  C  C86  1  0.68182000  0.31818000  0.22730000  1
  C  C87  1  0.68182000  0.31818000  0.77270000  1
  C  C88  1  0.68182000  0.68182000  0.22730000  1
  C  C89  1  0.68182000  0.68182000  0.77270000  1
  C  C90  1  0.68182000  0.77270000  0.31818000  1
  C  C91  1  0.68182000  0.77270000  0.68182000  1
  C  C92  1  0.74254000  0.25746000  0.34770000  1
  C  C93  1  0.74254000  0.25746000  0.65230000  1
  C  C94  1  0.74254000  0.34770000  0.25746000  1
  C  C95  1  0.74254000  0.34770000  0.74254000  1
  C  C96  1  0.74254000  0.65230000  0.25746000  1
  C  C97  1  0.74254000  0.65230000  0.74254000  1
  C  C98  1  0.74254000  0.74254000  0.34770000  1
  C  C99  1  0.74254000  0.74254000  0.65230000  1
  C  C100  1  0.77270000  0.31818000  0.31818000  1
  C  C101  1  0.77270000  0.31818000  0.68182000  1
  C  C102  1  0.77270000  0.68182000  0.31818000  1
  C  C103  1  0.77270000  0.68182000  0.68182000  1
  C  C104  1  0.83590000  0.35006000  0.35006000  1
  C  C105  1  0.83590000  0.35006000  0.64994000  1
  C  C106  1  0.83590000  0.64994000  0.35006000  1
  C  C107  1  0.83590000  0.64994000  0.64994000  1
  N  N108  1  0.07772000  0.36965000  0.41876000  1
  N  N109  1  0.07772000  0.36965000  0.58124000  1
  N  N110  1  0.07772000  0.41876000  0.36965000  1
  N  N111  1  0.07772000  0.41876000  0.63035000  1
  N  N112  1  0.07772000  0.58124000  0.36965000  1
  N  N113  1  0.07772000  0.58124000  0.63035000  1
  N  N114  1  0.07772000  0.63035000  0.41876000  1
  N  N115  1  0.07772000  0.63035000  0.58124000  1
  N  N116  1  0.13205000  0.32502000  0.40828000  1
  N  N117  1  0.13205000  0.32502000  0.59172000  1
  N  N118  1  0.13205000  0.40828000  0.32502000  1
  N  N119  1  0.13205000  0.40828000  0.67498000  1
  N  N120  1  0.13205000  0.59172000  0.32502000  1
  N  N121  1  0.13205000  0.59172000  0.67498000  1
  N  N122  1  0.13205000  0.67498000  0.40828000  1
  N  N123  1  0.13205000  0.67498000  0.59172000  1
  N  N124  1  0.32502000  0.13205000  0.40828000  1
  N  N125  1  0.32502000  0.13205000  0.59172000  1
  N  N126  1  0.32502000  0.40828000  0.13205000  1
  N  N127  1  0.32502000  0.40828000  0.86795000  1
  N  N128  1  0.32502000  0.59172000  0.13205000  1
  N  N129  1  0.32502000  0.59172000  0.86795000  1
  N  N130  1  0.32502000  0.86795000  0.40828000  1
  N  N131  1  0.32502000  0.86795000  0.59172000  1
  N  N132  1  0.36965000  0.07772000  0.41876000  1
  N  N133  1  0.36965000  0.07772000  0.58124000  1
  N  N134  1  0.36965000  0.41876000  0.07772000  1
  N  N135  1  0.36965000  0.41876000  0.92228000  1
  N  N136  1  0.36965000  0.58124000  0.07772000  1
  N  N137  1  0.36965000  0.58124000  0.92228000  1
  N  N138  1  0.36965000  0.92228000  0.41876000  1
  N  N139  1  0.36965000  0.92228000  0.58124000  1
  N  N140  1  0.40828000  0.13205000  0.32502000  1
  N  N141  1  0.40828000  0.13205000  0.67498000  1
  N  N142  1  0.40828000  0.32502000  0.13205000  1
  N  N143  1  0.40828000  0.32502000  0.86795000  1
  N  N144  1  0.40828000  0.67498000  0.13205000  1
  N  N145  1  0.40828000  0.67498000  0.86795000  1
  N  N146  1  0.40828000  0.86795000  0.32502000  1
  N  N147  1  0.40828000  0.86795000  0.67498000  1
  N  N148  1  0.41876000  0.07772000  0.36965000  1
  N  N149  1  0.41876000  0.07772000  0.63035000  1
  N  N150  1  0.41876000  0.36965000  0.07772000  1
  N  N151  1  0.41876000  0.36965000  0.92228000  1
  N  N152  1  0.41876000  0.63035000  0.07772000  1
  N  N153  1  0.41876000  0.63035000  0.92228000  1
  N  N154  1  0.41876000  0.92228000  0.36965000  1
  N  N155  1  0.41876000  0.92228000  0.63035000  1
  N  N156  1  0.58124000  0.07772000  0.36965000  1
  N  N157  1  0.58124000  0.07772000  0.63035000  1
  N  N158  1  0.58124000  0.36965000  0.07772000  1
  N  N159  1  0.58124000  0.36965000  0.92228000  1
  N  N160  1  0.58124000  0.63035000  0.07772000  1
  N  N161  1  0.58124000  0.63035000  0.92228000  1
  N  N162  1  0.58124000  0.92228000  0.36965000  1
  N  N163  1  0.58124000  0.92228000  0.63035000  1
  N  N164  1  0.59172000  0.13205000  0.32502000  1
  N  N165  1  0.59172000  0.13205000  0.67498000  1
  N  N166  1  0.59172000  0.32502000  0.13205000  1
  N  N167  1  0.59172000  0.32502000  0.86795000  1
  N  N168  1  0.59172000  0.67498000  0.13205000  1
  N  N169  1  0.59172000  0.67498000  0.86795000  1
  N  N170  1  0.59172000  0.86795000  0.32502000  1
  N  N171  1  0.59172000  0.86795000  0.67498000  1
  N  N172  1  0.63035000  0.07772000  0.41876000  1
  N  N173  1  0.63035000  0.07772000  0.58124000  1
  N  N174  1  0.63035000  0.41876000  0.07772000  1
  N  N175  1  0.63035000  0.41876000  0.92228000  1
  N  N176  1  0.63035000  0.58124000  0.07772000  1
  N  N177  1  0.63035000  0.58124000  0.92228000  1
  N  N178  1  0.63035000  0.92228000  0.41876000  1
  N  N179  1  0.63035000  0.92228000  0.58124000  1
  N  N180  1  0.67498000  0.13205000  0.40828000  1
  N  N181  1  0.67498000  0.13205000  0.59172000  1
  N  N182  1  0.67498000  0.40828000  0.13205000  1
  N  N183  1  0.67498000  0.40828000  0.86795000  1
  N  N184  1  0.67498000  0.59172000  0.13205000  1
  N  N185  1  0.67498000  0.59172000  0.86795000  1
  N  N186  1  0.67498000  0.86795000  0.40828000  1
  N  N187  1  0.67498000  0.86795000  0.59172000  1
  N  N188  1  0.86795000  0.32502000  0.40828000  1
  N  N189  1  0.86795000  0.32502000  0.59172000  1
  N  N190  1  0.86795000  0.40828000  0.32502000  1
  N  N191  1  0.86795000  0.40828000  0.67498000  1
  N  N192  1  0.86795000  0.59172000  0.32502000  1
  N  N193  1  0.86795000  0.59172000  0.67498000  1
  N  N194  1  0.86795000  0.67498000  0.40828000  1
  N  N195  1  0.86795000  0.67498000  0.59172000  1
  N  N196  1  0.92228000  0.36965000  0.41876000  1
  N  N197  1  0.92228000  0.36965000  0.58124000  1
  N  N198  1  0.92228000  0.41876000  0.36965000  1
  N  N199  1  0.92228000  0.41876000  0.63035000  1
  N  N200  1  0.92228000  0.58124000  0.36965000  1
  N  N201  1  0.92228000  0.58124000  0.63035000  1
  N  N202  1  0.92228000  0.63035000  0.41876000  1
  N  N203  1  0.92228000  0.63035000  0.58124000  1
