# generated using pymatgen
data_CoH16C30(NO2)3
_symmetry_space_group_name_H-M   'P 1'
_cell_length_a   10.09000000
_cell_length_b   16.36200000
_cell_length_c   24.45300000
_cell_angle_alpha   106.75000000
_cell_angle_beta   92.97000000
_cell_angle_gamma   103.16000000
_symmetry_Int_Tables_number   1
_chemical_formula_structural   CoH16C30(NO2)3
_chemical_formula_sum   'Co4 H64 C120 N12 O24'
_cell_volume   3734.23287200
_cell_formula_units_Z   4
loop_
 _symmetry_equiv_pos_site_id
 _symmetry_equiv_pos_as_xyz
  1  'x, y, z'
loop_
 _atom_site_type_symbol
 _atom_site_label
 _atom_site_symmetry_multiplicity
 _atom_site_fract_x
 _atom_site_fract_y
 _atom_site_fract_z
 _atom_site_occupancy
  Co  Co0  1  0.04104000  0.65138000  0.54054000  1
  Co  Co1  1  0.40128000  0.84431000  0.96218000  1
  Co  Co2  1  0.59872000  0.15569000  0.03782000  1
  Co  Co3  1  0.95896000  0.34862000  0.45946000  1
  H  H4  1  0.01610000  0.16650000  0.43270000  1
  H  H5  1  0.03280000  0.53320000  0.32990000  1
  H  H6  1  0.06150000  0.24650000  0.52940000  1
  H  H7  1  0.06470000  0.53990000  0.42350000  1
  H  H8  1  0.08140000  0.24240000  0.62250000  1
  H  H9  1  0.08180000  0.97610000  0.62010000  1
  H  H10  1  0.08520000  0.73180000  0.12320000  1
  H  H11  1  0.09210000  0.02700000  0.80740000  1
  H  H12  1  0.10200000  0.16470000  0.03120000  1
  H  H13  1  0.10650000  0.59790000  0.80340000  1
  H  H14  1  0.12780000  0.84480000  0.08370000  1
  H  H15  1  0.13670000  0.14100000  0.76670000  1
  H  H16  1  0.15120000  0.99780000  0.90170000  1
  H  H17  1  0.20590000  0.74030000  0.85920000  1
  H  H18  1  0.24530000  0.99990000  0.09880000  1
  H  H19  1  0.25610000  0.85330000  0.32330000  1
  H  H20  1  0.25980000  0.75130000  0.63610000  1
  H  H21  1  0.27620000  0.61440000  0.20040000  1
  H  H22  1  0.29170000  0.49130000  0.59830000  1
  H  H23  1  0.30260000  0.74440000  0.04500000  1
  H  H24  1  0.30830000  0.50020000  0.39780000  1
  H  H25  1  0.33590000  0.34820000  0.73490000  1
  H  H26  1  0.35640000  0.45800000  0.69240000  1
  H  H27  1  0.35730000  0.51950000  0.90020000  1
  H  H28  1  0.36500000  0.74520000  0.13700000  1
  H  H29  1  0.36780000  0.89190000  0.69310000  1
  H  H30  1  0.37020000  0.02370000  0.83890000  1
  H  H31  1  0.41780000  0.66010000  0.42070000  1
  H  H32  1  0.43320000  0.03300000  0.93170000  1
  H  H33  1  0.44670000  0.66270000  0.95100000  1
  H  H34  1  0.44790000  0.77460000  0.38030000  1
  H  H35  1  0.46110000  0.34010000  0.46580000  1
  H  H36  1  0.53890000  0.65990000  0.53420000  1
  H  H37  1  0.55210000  0.22540000  0.61970000  1
  H  H38  1  0.55330000  0.33730000  0.04900000  1
  H  H39  1  0.56680000  0.96700000  0.06830000  1
  H  H40  1  0.58220000  0.33990000  0.57930000  1
  H  H41  1  0.62980000  0.97630000  0.16110000  1
  H  H42  1  0.63220000  0.10810000  0.30690000  1
  H  H43  1  0.63500000  0.25480000  0.86300000  1
  H  H44  1  0.64270000  0.48050000  0.09980000  1
  H  H45  1  0.64360000  0.54200000  0.30760000  1
  H  H46  1  0.66410000  0.65180000  0.26510000  1
  H  H47  1  0.69170000  0.49980000  0.60220000  1
  H  H48  1  0.69740000  0.25560000  0.95500000  1
  H  H49  1  0.70830000  0.50870000  0.40170000  1
  H  H50  1  0.72380000  0.38560000  0.79960000  1
  H  H51  1  0.74020000  0.24870000  0.36390000  1
  H  H52  1  0.74390000  0.14670000  0.67670000  1
  H  H53  1  0.75470000  0.00010000  0.90120000  1
  H  H54  1  0.79410000  0.25970000  0.14080000  1
  H  H55  1  0.84880000  0.00220000  0.09830000  1
  H  H56  1  0.86330000  0.85900000  0.23330000  1
  H  H57  1  0.87220000  0.15520000  0.91630000  1
  H  H58  1  0.89350000  0.40210000  0.19660000  1
  H  H59  1  0.89800000  0.83530000  0.96880000  1
  H  H60  1  0.90790000  0.97300000  0.19260000  1
  H  H61  1  0.91480000  0.26820000  0.87680000  1
  H  H62  1  0.91820000  0.02390000  0.37990000  1
  H  H63  1  0.91860000  0.75760000  0.37750000  1
  H  H64  1  0.93530000  0.46010000  0.57650000  1
  H  H65  1  0.93850000  0.75350000  0.47060000  1
  H  H66  1  0.96720000  0.46680000  0.67010000  1
  H  H67  1  0.98390000  0.83350000  0.56730000  1
  C  C68  1  0.01810000  0.58120000  0.35807000  1
  C  C69  1  0.01900000  0.91850000  0.13118000  1
  C  C70  1  0.02080000  0.35330000  0.65765000  1
  C  C71  1  0.02230000  0.28400000  0.73749000  1
  C  C72  1  0.03220000  0.21790000  0.81893000  1
  C  C73  1  0.03580000  0.58510000  0.41455000  1
  C  C74  1  0.03610000  0.28930000  0.55810000  1
  C  C75  1  0.04230000  0.91080000  0.93709000  1
  C  C76  1  0.04380000  0.98930000  0.10337000  1
  C  C77  1  0.04770000  0.77960000  0.13700000  1
  C  C78  1  0.05110000  0.28760000  0.61410000  1
  C  C79  1  0.05170000  0.35790000  0.71807000  1
  C  C80  1  0.05840000  0.07630000  0.82190000  1
  C  C81  1  0.06290000  0.29340000  0.79481000  1
  C  C82  1  0.06400000  0.97650000  0.91046000  1
  C  C83  1  0.06560000  0.84620000  0.59110000  1
  C  C84  1  0.07260000  0.84760000  0.11320000  1
  C  C85  1  0.07680000  0.80070000  0.29880000  1
  C  C86  1  0.08480000  0.14440000  0.79720000  1
  C  C87  1  0.08790000  0.12150000  0.04954000  1
  C  C88  1  0.12380000  0.93190000  0.62230000  1
  C  C89  1  0.13050000  0.37650000  0.83087000  1
  C  C90  1  0.15310000  0.44910000  0.80854000  1
  C  C91  1  0.15830000  0.87560000  0.95287000  1
  C  C92  1  0.17300000  0.02240000  0.09004000  1
  C  C93  1  0.17510000  0.60930000  0.83350000  1
  C  C94  1  0.19680000  0.08920000  0.06358000  1
  C  C95  1  0.21850000  0.54010000  0.84510000  1
  C  C96  1  0.22230000  0.37290000  0.44377000  1
  C  C97  1  0.22690000  0.79790000  0.63140000  1
  C  C98  1  0.23530000  0.69470000  0.86750000  1
  C  C99  1  0.24990000  0.95280000  0.65848000  1
  C  C100  1  0.27850000  0.61160000  0.54571000  1
  C  C101  1  0.29410000  0.88270000  0.66570000  1
  C  C102  1  0.32390000  0.56300000  0.89090000  1
  C  C103  1  0.32420000  0.04410000  0.69289000  1
  C  C104  1  0.33740000  0.12610000  0.05062000  1
  C  C105  1  0.34310000  0.11410000  0.67007000  1
  C  C106  1  0.36190000  0.41330000  0.43301000  1
  C  C107  1  0.37280000  0.79070000  0.06829000  1
  C  C108  1  0.37610000  0.64910000  0.92130000  1
  C  C109  1  0.37840000  0.51420000  0.58979000  1
  C  C110  1  0.38210000  0.34490000  0.70266000  1
  C  C111  1  0.38270000  0.48010000  0.40731000  1
  C  C112  1  0.39630000  0.41160000  0.67773000  1
  C  C113  1  0.39630000  0.57960000  0.56258000  1
  C  C114  1  0.40980000  0.79090000  0.12390000  1
  C  C115  1  0.41360000  0.19810000  0.70428000  1
  C  C116  1  0.43410000  0.07380000  0.86228000  1
  C  C117  1  0.43560000  0.27330000  0.68038000  1
  C  C118  1  0.43750000  0.13630000  0.78103000  1
  C  C119  1  0.45000000  0.70070000  0.20570000  1
  C  C120  1  0.45920000  0.20960000  0.76107000  1
  C  C121  1  0.46990000  0.65910000  0.39032000  1
  C  C122  1  0.47030000  0.41040000  0.63048000  1
  C  C123  1  0.47390000  0.38420000  0.44823000  1
  C  C124  1  0.47400000  0.07920000  0.91823000  1
  C  C125  1  0.48700000  0.14110000  0.84042000  1
  C  C126  1  0.48740000  0.72800000  0.36582000  1
  C  C127  1  0.48840000  0.48260000  0.60447000  1
  C  C128  1  0.51160000  0.51740000  0.39553000  1
  C  C129  1  0.51260000  0.27200000  0.63418000  1
  C  C130  1  0.51300000  0.85890000  0.15958000  1
  C  C131  1  0.52600000  0.92080000  0.08177000  1
  C  C132  1  0.52610000  0.61580000  0.55177000  1
  C  C133  1  0.52970000  0.58960000  0.36952000  1
  C  C134  1  0.53010000  0.34090000  0.60968000  1
  C  C135  1  0.54080000  0.79040000  0.23893000  1
  C  C136  1  0.55000000  0.29930000  0.79430000  1
  C  C137  1  0.56250000  0.86370000  0.21897000  1
  C  C138  1  0.56440000  0.72670000  0.31962000  1
  C  C139  1  0.56590000  0.92620000  0.13772000  1
  C  C140  1  0.58640000  0.80190000  0.29572000  1
  C  C141  1  0.59020000  0.20910000  0.87610000  1
  C  C142  1  0.60370000  0.42040000  0.43742000  1
  C  C143  1  0.60370000  0.58840000  0.32227000  1
  C  C144  1  0.61730000  0.51990000  0.59269000  1
  C  C145  1  0.61790000  0.65510000  0.29734000  1
  C  C146  1  0.62160000  0.48580000  0.41021000  1
  C  C147  1  0.62390000  0.35090000  0.07870000  1
  C  C148  1  0.62720000  0.20930000  0.93171000  1
  C  C149  1  0.63810000  0.58670000  0.56699000  1
  C  C150  1  0.65690000  0.88590000  0.32993000  1
  C  C151  1  0.66260000  0.87390000  0.94938000  1
  C  C152  1  0.67580000  0.95590000  0.30711000  1
  C  C153  1  0.67610000  0.43700000  0.10910000  1
  C  C154  1  0.70590000  0.11730000  0.33430000  1
  C  C155  1  0.72150000  0.38840000  0.45429000  1
  C  C156  1  0.75010000  0.04720000  0.34152000  1
  C  C157  1  0.76470000  0.30530000  0.13250000  1
  C  C158  1  0.77310000  0.20210000  0.36860000  1
  C  C159  1  0.77770000  0.62710000  0.55623000  1
  C  C160  1  0.78150000  0.45990000  0.15490000  1
  C  C161  1  0.80320000  0.91080000  0.93642000  1
  C  C162  1  0.82490000  0.39070000  0.16650000  1
  C  C163  1  0.82700000  0.97760000  0.90996000  1
  C  C164  1  0.84170000  0.12440000  0.04713000  1
  C  C165  1  0.84690000  0.55090000  0.19146000  1
  C  C166  1  0.86950000  0.62350000  0.16913000  1
  C  C167  1  0.87620000  0.06810000  0.37770000  1
  C  C168  1  0.91210000  0.87850000  0.95046000  1
  C  C169  1  0.91520000  0.85560000  0.20280000  1
  C  C170  1  0.92320000  0.19930000  0.70120000  1
  C  C171  1  0.92740000  0.15240000  0.88680000  1
  C  C172  1  0.93440000  0.15380000  0.40890000  1
  C  C173  1  0.93600000  0.02350000  0.08954000  1
  C  C174  1  0.93710000  0.70660000  0.20519000  1
  C  C175  1  0.94160000  0.92370000  0.17810000  1
  C  C176  1  0.94830000  0.64210000  0.28193000  1
  C  C177  1  0.94890000  0.71240000  0.38590000  1
  C  C178  1  0.95230000  0.22040000  0.86300000  1
  C  C179  1  0.95620000  0.01070000  0.89663000  1
  C  C180  1  0.95770000  0.08920000  0.06291000  1
  C  C181  1  0.96390000  0.71070000  0.44190000  1
  C  C182  1  0.96420000  0.41490000  0.58545000  1
  C  C183  1  0.96780000  0.78210000  0.18107000  1
  C  C184  1  0.97770000  0.71600000  0.26251000  1
  C  C185  1  0.97920000  0.64670000  0.34235000  1
  C  C186  1  0.98100000  0.08150000  0.86882000  1
  C  C187  1  0.98190000  0.41880000  0.64193000  1
  N  N188  1  0.01460000  0.64860000  0.45658000  1
  N  N189  1  0.11460000  0.43940000  0.75367000  1
  N  N190  1  0.11960000  0.77920000  0.59278000  1
  N  N191  1  0.33390000  0.71540000  0.91176000  1
  N  N192  1  0.36890000  0.05510000  0.74775000  1
  N  N193  1  0.43370000  0.85405000  0.04664000  1
  N  N194  1  0.56630000  0.14595000  0.95336000  1
  N  N195  1  0.63110000  0.94490000  0.25225000  1
  N  N196  1  0.66610000  0.28460000  0.08824000  1
  N  N197  1  0.88040000  0.22080000  0.40722000  1
  N  N198  1  0.88540000  0.56060000  0.24633000  1
  N  N199  1  0.98540000  0.35140000  0.54342000  1
  O  O200  1  0.02920000  0.86350000  0.32680000  1
  O  O201  1  0.12650000  0.40946000  0.43503000  1
  O  O202  1  0.14240000  0.81869000  0.97761000  1
  O  O203  1  0.16230000  0.58282000  0.56054000  1
  O  O204  1  0.19920000  0.30701000  0.46008000  1
  O  O205  1  0.21300000  0.80530000  0.30130000  1
  O  O206  1  0.27490000  0.90682000  0.93791000  1
  O  O207  1  0.29530000  0.66630000  0.51882000  1
  O  O208  1  0.30180000  0.66800000  0.21540000  1
  O  O209  1  0.36010000  0.18989000  0.03231000  1
  O  O210  1  0.43210000  0.08958000  0.06041000  1
  O  O211  1  0.49800000  0.35050000  0.83410000  1
  O  O212  1  0.50200000  0.64950000  0.16590000  1
  O  O213  1  0.56790000  0.91042000  0.93959000  1
  O  O214  1  0.63990000  0.81011000  0.96769000  1
  O  O215  1  0.69820000  0.33200000  0.78460000  1
  O  O216  1  0.70470000  0.33370000  0.48118000  1
  O  O217  1  0.72510000  0.09318000  0.06209000  1
  O  O218  1  0.78700000  0.19470000  0.69870000  1
  O  O219  1  0.80080000  0.69299000  0.53992000  1
  O  O220  1  0.83770000  0.41718000  0.43946000  1
  O  O221  1  0.85760000  0.18131000  0.02239000  1
  O  O222  1  0.87350000  0.59054000  0.56497000  1
  O  O223  1  0.97080000  0.13650000  0.67320000  1
