# generated using pymatgen
data_ZnH13(C3O)5
_symmetry_space_group_name_H-M   'P 1'
_cell_length_a   16.75564718
_cell_length_b   16.75564718
_cell_length_c   16.75564718
_cell_angle_alpha   68.90705766
_cell_angle_beta   68.90705766
_cell_angle_gamma   68.90705766
_symmetry_Int_Tables_number   1
_chemical_formula_structural   ZnH13(C3O)5
_chemical_formula_sum   'Zn6 H78 C90 O30'
_cell_volume   3948.91818709
_cell_formula_units_Z   6
loop_
 _symmetry_equiv_pos_site_id
 _symmetry_equiv_pos_as_xyz
  1  'x, y, z'
loop_
 _atom_site_type_symbol
 _atom_site_label
 _atom_site_symmetry_multiplicity
 _atom_site_fract_x
 _atom_site_fract_y
 _atom_site_fract_z
 _atom_site_occupancy
  C  C0  1  0.77740000  0.25570000  0.26300000  1
  C  C1  1  0.84670000  0.27330000  0.35670000  1
  C  C2  1  0.62860000  0.81690000  0.37110000  1
  C  C3  1  0.63720000  0.37330000  0.81630000  1
  C  C4  1  0.83980000  0.22190000  0.31150000  1
  C  C5  1  0.06090000  0.18960000  0.78310000  1
  C  C6  1  0.55700000  0.30950000  0.65250000  1
  C  C7  1  0.55770000  0.39140000  0.56720000  1
  C  C8  1  0.06416000  0.78076000  0.18946000  1
  C  C9  1  0.78700000  0.19810000  0.20210000  1
  C  C10  1  0.56720000  0.55770000  0.39140000  1
  C  C11  1  0.10954000  0.23974000  0.78644000  1
  C  C12  1  0.11430000  0.78410000  0.23810000  1
  C  C13  1  0.78410000  0.23810000  0.11430000  1
  C  C14  1  0.78644000  0.10954000  0.23974000  1
  C  C15  1  0.23830000  0.59160000  0.61170000  1
  C  C16  1  0.53430000  0.22550000  0.56840000  1
  C  C17  1  0.22190000  0.31150000  0.83980000  1
  C  C18  1  0.37330000  0.81630000  0.63720000  1
  C  C19  1  0.37110000  0.62860000  0.81690000  1
  C  C20  1  0.78076000  0.18946000  0.06416000  1
  C  C21  1  0.78310000  0.06090000  0.18960000  1
  C  C22  1  0.10091000  0.10181000  0.78021000  1
  C  C23  1  0.10181000  0.78021000  0.10091000  1
  C  C24  1  0.59160000  0.61170000  0.23830000  1
  C  C25  1  0.27330000  0.35670000  0.84670000  1
  C  C26  1  0.22550000  0.56840000  0.53430000  1
  C  C27  1  0.77900000  0.96740000  0.23410000  1
  C  C28  1  0.78021000  0.10091000  0.10181000  1
  C  C29  1  0.78210000  0.22840000  0.96310000  1
  C  C30  1  0.56840000  0.53430000  0.22550000  1
  C  C31  1  0.61170000  0.23830000  0.59160000  1
  C  C32  1  0.93620000  0.07460000  0.39480000  1
  C  C33  1  0.19810000  0.20210000  0.78700000  1
  C  C34  1  0.30950000  0.65250000  0.55700000  1
  C  C35  1  0.36390000  0.81980000  0.48890000  1
  C  C36  1  0.20210000  0.78700000  0.19810000  1
  C  C37  1  0.36400000  0.49280000  0.81340000  1
  C  C38  1  0.65250000  0.55700000  0.30950000  1
  C  C39  1  0.25970000  0.72180000  0.34100000  1
  C  C40  1  0.41140000  0.82930000  0.53630000  1
  C  C41  1  0.41140000  0.54030000  0.82290000  1
  C  C42  1  0.25570000  0.26300000  0.77740000  1
  C  C43  1  0.30490000  0.72870000  0.39240000  1
  C  C44  1  0.26300000  0.77740000  0.25570000  1
  C  C45  1  0.18946000  0.06416000  0.78076000  1
  C  C46  1  0.00280000  0.13030000  0.34120000  1
  C  C47  1  0.18960000  0.78310000  0.06090000  1
  C  C48  1  0.28320000  0.02390000  0.00340000  1
  C  C49  1  0.34120000  0.00280000  0.13030000  1
  C  C50  1  0.35340000  0.79110000  0.35860000  1
  C  C51  1  0.31150000  0.83980000  0.22190000  1
  C  C52  1  0.35860000  0.35340000  0.79110000  1
  C  C53  1  0.23810000  0.11430000  0.78410000  1
  C  C54  1  0.96970000  0.98180000  0.37760000  1
  C  C55  1  0.23974000  0.78644000  0.10954000  1
  C  C56  1  0.40268000  0.40458000  0.81188000  1
  C  C57  1  0.35670000  0.84670000  0.27330000  1
  C  C58  1  0.40458000  0.81188000  0.40268000  1
  C  C59  1  0.98180000  0.37760000  0.96970000  1
  C  C60  1  0.81630000  0.63720000  0.37330000  1
  C  C61  1  0.81690000  0.37110000  0.62860000  1
  C  C62  1  0.39140000  0.56720000  0.55770000  1
  C  C63  1  0.83088000  0.49768000  0.49968000  1
  C  C64  1  0.49768000  0.49968000  0.83088000  1
  C  C65  1  0.49968000  0.83088000  0.49768000  1
  C  C66  1  0.82290000  0.41140000  0.54030000  1
  C  C67  1  0.00340000  0.28320000  0.02390000  1
  C  C68  1  0.34100000  0.25970000  0.72180000  1
  C  C69  1  0.82930000  0.53630000  0.41140000  1
  C  C70  1  0.22840000  0.96310000  0.78210000  1
  C  C71  1  0.23410000  0.77900000  0.96740000  1
  C  C72  1  0.39240000  0.30490000  0.72870000  1
  C  C73  1  0.72870000  0.39240000  0.30490000  1
  C  C74  1  0.02390000  0.00340000  0.28320000  1
  C  C75  1  0.81340000  0.36400000  0.49280000  1
  C  C76  1  0.39480000  0.93620000  0.07460000  1
  C  C77  1  0.81980000  0.48890000  0.36390000  1
  C  C78  1  0.48890000  0.36390000  0.81980000  1
  C  C79  1  0.37760000  0.96970000  0.98180000  1
  C  C80  1  0.49280000  0.81340000  0.36400000  1
  C  C81  1  0.81188000  0.40268000  0.40458000  1
  C  C82  1  0.07460000  0.39480000  0.93620000  1
  C  C83  1  0.53630000  0.41140000  0.82930000  1
  C  C84  1  0.72180000  0.34100000  0.25970000  1
  C  C85  1  0.54030000  0.82290000  0.41140000  1
  C  C86  1  0.79110000  0.35860000  0.35340000  1
  C  C87  1  0.96310000  0.78210000  0.22840000  1
  C  C88  1  0.13030000  0.34120000  0.00280000  1
  C  C89  1  0.96740000  0.23410000  0.77900000  1
  H  H90  1  0.52570000  0.61680000  0.38310000  1
  H  H91  1  0.54230000  0.44600000  0.58470000  1
  H  H92  1  0.16880000  0.28630000  0.98680000  1
  H  H93  1  0.08220000  0.29970000  0.78850000  1
  H  H94  1  0.18170000  0.62550000  0.64400000  1
  H  H95  1  0.08850000  0.78450000  0.29860000  1
  H  H96  1  0.51420000  0.39560000  0.53840000  1
  H  H97  1  0.88930000  0.25030000  0.38990000  1
  H  H98  1  0.58090000  0.30760000  0.70010000  1
  H  H99  1  0.53730000  0.65420000  0.26300000  1
  H  H100  1  0.53840000  0.51420000  0.39560000  1
  H  H101  1  0.49480000  0.19860000  0.62310000  1
  H  H102  1  0.50060000  0.28330000  0.53920000  1
  H  H103  1  0.58470000  0.54230000  0.44600000  1
  H  H104  1  0.78450000  0.29860000  0.08850000  1
  H  H105  1  0.78850000  0.08220000  0.29970000  1
  H  H106  1  0.25030000  0.38990000  0.88930000  1
  H  H107  1  0.30350000  0.81870000  0.51530000  1
  H  H108  1  0.19860000  0.62310000  0.49480000  1
  H  H109  1  0.90730000  0.07670000  0.45790000  1
  H  H110  1  0.30510000  0.52060000  0.80790000  1
  H  H111  1  0.18660000  0.52860000  0.55960000  1
  H  H112  1  0.06750000  0.77790000  0.06760000  1
  H  H113  1  0.06760000  0.06750000  0.77790000  1
  H  H114  1  0.53920000  0.50060000  0.28330000  1
  H  H115  1  0.52860000  0.55960000  0.18660000  1
  H  H116  1  0.61680000  0.38310000  0.52570000  1
  H  H117  1  0.30760000  0.70010000  0.58090000  1
  H  H118  1  0.26300000  0.53730000  0.65420000  1
  H  H119  1  0.55960000  0.18660000  0.52860000  1
  H  H120  1  0.22660000  0.67900000  0.36410000  1
  H  H121  1  0.28630000  0.98680000  0.16880000  1
  H  H122  1  0.77790000  0.06760000  0.06750000  1
  H  H123  1  0.62550000  0.64400000  0.18170000  1
  H  H124  1  0.25960000  0.01330000  0.06790000  1
  H  H125  1  0.93820000  0.41760000  0.00630000  1
  H  H126  1  0.00150000  0.16670000  0.37630000  1
  H  H127  1  0.64400000  0.18170000  0.62550000  1
  H  H128  1  0.92000000  0.95940000  0.38370000  1
  H  H129  1  0.28070000  0.08700000  0.97640000  1
  H  H130  1  0.32670000  0.06240000  0.09090000  1
  H  H131  1  0.65420000  0.26300000  0.53730000  1
  H  H132  1  0.24760000  0.00700000  0.98000000  1
  H  H133  1  0.70010000  0.58090000  0.30760000  1
  H  H134  1  0.98680000  0.16880000  0.28630000  1
  H  H135  1  0.28330000  0.53920000  0.50060000  1
  H  H136  1  0.62310000  0.49480000  0.19860000  1
  H  H137  1  0.37630000  0.00150000  0.16670000  1
  H  H138  1  0.97640000  0.28070000  0.08700000  1
  H  H139  1  0.83750000  0.53010000  0.53210000  1
  H  H140  1  0.95940000  0.38370000  0.92000000  1
  H  H141  1  0.38310000  0.52570000  0.61680000  1
  H  H142  1  0.38990000  0.88930000  0.25030000  1
  H  H143  1  0.00630000  0.93820000  0.41760000  1
  H  H144  1  0.53010000  0.53210000  0.83750000  1
  H  H145  1  0.53210000  0.83750000  0.53010000  1
  H  H146  1  0.01330000  0.06790000  0.25960000  1
  H  H147  1  0.98000000  0.24760000  0.00700000  1
  H  H148  1  0.06240000  0.09090000  0.32670000  1
  H  H149  1  0.29860000  0.08850000  0.78450000  1
  H  H150  1  0.29970000  0.78850000  0.08220000  1
  H  H151  1  0.39560000  0.53840000  0.51420000  1
  H  H152  1  0.44600000  0.58470000  0.54230000  1
  H  H153  1  0.67900000  0.36410000  0.22660000  1
  H  H154  1  0.00700000  0.98000000  0.24760000  1
  H  H155  1  0.07670000  0.45790000  0.90730000  1
  H  H156  1  0.80790000  0.30510000  0.52060000  1
  H  H157  1  0.09090000  0.32670000  0.06240000  1
  H  H158  1  0.81870000  0.51530000  0.30350000  1
  H  H159  1  0.36410000  0.22660000  0.67900000  1
  H  H160  1  0.06790000  0.25960000  0.01330000  1
  H  H161  1  0.38370000  0.92000000  0.95940000  1
  H  H162  1  0.41760000  0.00630000  0.93820000  1
  H  H163  1  0.51530000  0.30350000  0.81870000  1
  H  H164  1  0.08700000  0.97640000  0.28070000  1
  H  H165  1  0.52060000  0.80790000  0.30510000  1
  H  H166  1  0.45790000  0.90730000  0.07670000  1
  H  H167  1  0.16670000  0.37630000  0.00150000  1
  O  O168  1  0.12500000  0.33020000  0.87780000  1
  O  O169  1  0.29116000  0.66576000  0.81516000  1
  O  O170  1  0.28900000  0.81240000  0.66390000  1
  O  O171  1  0.67470000  0.82230000  0.41860000  1
  O  O172  1  0.67740000  0.42420000  0.81790000  1
  O  O173  1  0.66576000  0.81516000  0.29116000  1
  O  O174  1  0.66390000  0.28900000  0.81240000  1
  O  O175  1  0.87780000  0.12500000  0.33020000  1
  O  O176  1  0.78320000  0.93430000  0.30740000  1
  O  O177  1  0.78750000  0.30750000  0.93530000  1
  O  O178  1  0.41860000  0.67470000  0.82230000  1
  O  O179  1  0.42420000  0.81790000  0.67740000  1
  O  O180  1  0.77050000  0.92740000  0.18810000  1
  O  O181  1  0.77850000  0.18340000  0.92410000  1
  O  O182  1  0.31450000  0.67100000  0.46990000  1
  O  O183  1  0.81790000  0.67740000  0.42420000  1
  O  O184  1  0.82230000  0.41860000  0.67470000  1
  O  O185  1  0.67100000  0.46990000  0.31450000  1
  O  O186  1  0.33020000  0.87780000  0.12500000  1
  O  O187  1  0.18340000  0.92410000  0.77850000  1
  O  O188  1  0.81240000  0.66390000  0.28900000  1
  O  O189  1  0.81516000  0.29116000  0.66576000  1
  O  O190  1  0.18810000  0.77050000  0.92740000  1
  O  O191  1  0.93530000  0.78750000  0.30750000  1
  O  O192  1  0.93430000  0.30740000  0.78320000  1
  O  O193  1  0.92410000  0.77850000  0.18340000  1
  O  O194  1  0.30750000  0.93530000  0.78750000  1
  O  O195  1  0.92740000  0.18810000  0.77050000  1
  O  O196  1  0.30740000  0.78320000  0.93430000  1
  O  O197  1  0.46990000  0.31450000  0.67100000  1
  Zn  Zn198  1  0.38349889  0.80801889  0.80835889  1
  Zn  Zn199  1  0.80801889  0.80835889  0.38349889  1
  Zn  Zn200  1  0.80835889  0.38349889  0.80801889  1
  Zn  Zn201  1  0.79268000  0.79320000  0.21792000  1
  Zn  Zn202  1  0.79320000  0.21792000  0.79268000  1
  Zn  Zn203  1  0.21792000  0.79268000  0.79320000  1
