# generated using pymatgen
data_CoHC4O3
_symmetry_space_group_name_H-M   'P 1'
_cell_length_a   6.78980000
_cell_length_b   15.09630000
_cell_length_c   15.09628298
_cell_angle_alpha   117.79343392
_cell_angle_beta   98.62221945
_cell_angle_gamma   98.62250000
_symmetry_Int_Tables_number   1
_chemical_formula_structural   CoHC4O3
_chemical_formula_sum   'Co6 H6 C24 O18'
_cell_volume   1309.95230057
_cell_formula_units_Z   6
loop_
 _symmetry_equiv_pos_site_id
 _symmetry_equiv_pos_as_xyz
  1  'x, y, z'
loop_
 _atom_site_type_symbol
 _atom_site_label
 _atom_site_symmetry_multiplicity
 _atom_site_fract_x
 _atom_site_fract_y
 _atom_site_fract_z
 _atom_site_occupancy
  Co  Co0  1  0.40030000  0.58330000  0.28260000  1
  Co  Co1  1  0.81700000  0.41670000  0.69930000  1
  Co  Co2  1  0.81700000  0.69930000  0.41670000  1
  Co  Co3  1  0.11770000  0.30070000  0.71740000  1
  Co  Co4  1  0.11770000  0.71740000  0.30070000  1
  Co  Co5  1  0.40030000  0.28260000  0.58330000  1
  H  H6  1  0.53470000  0.00000000  0.42310000  1
  H  H7  1  0.72860000  0.48390000  0.48390000  1
  H  H8  1  0.24470000  0.51610000  1.00000000  1
  H  H9  1  0.11160000  0.57690000  0.57690000  1
  H  H10  1  0.53470000  0.42310000  1.00000000  1
  H  H11  1  0.24470000  0.00000000  0.51610000  1
  C  C12  1  0.50470000  0.56030000  0.46840000  1
  C  C13  1  0.94440000  0.43970000  0.90810000  1
  C  C14  1  0.58170000  0.50355000  0.50355000  1
  C  C15  1  0.07815000  0.49645000  1.00000000  1
  C  C16  1  0.55830000  0.81420000  0.35570000  1
  C  C17  1  0.74410000  0.18580000  0.54150000  1
  C  C18  1  0.68075000  0.00000000  0.44125000  1
  C  C19  1  0.72970000  0.90610000  0.41500000  1
  C  C20  1  0.82360000  0.09390000  0.50890000  1
  C  C21  1  0.94440000  0.90810000  0.43970000  1
  C  C22  1  0.03630000  0.09190000  0.53160000  1
  C  C23  1  0.74410000  0.54150000  0.18580000  1
  C  C24  1  0.20260000  0.45850000  0.64430000  1
  C  C25  1  0.07815000  0.00000000  0.49645000  1
  C  C26  1  0.23950000  0.55875000  0.55875000  1
  C  C27  1  0.68075000  0.44125000  1.00000000  1
  C  C28  1  0.82360000  0.50890000  0.09390000  1
  C  C29  1  0.31470000  0.49110000  0.58500000  1
  C  C30  1  0.20260000  0.64430000  0.45850000  1
  C  C31  1  0.55830000  0.35570000  0.81420000  1
  C  C32  1  0.31470000  0.58500000  0.49110000  1
  C  C33  1  0.72970000  0.41500000  0.90610000  1
  C  C34  1  0.03630000  0.53160000  0.09190000  1
  C  C35  1  0.50470000  0.46840000  0.56030000  1
  O  O36  1  0.38060000  0.82380000  0.32480000  1
  O  O37  1  0.55680000  0.17620000  0.50100000  1
  O  O38  1  0.57970000  0.58490000  0.40330000  1
  O  O39  1  0.99480000  0.41510000  0.81840000  1
  O  O40  1  0.59800000  0.72540000  0.34130000  1
  O  O41  1  0.87260000  0.27460000  0.61590000  1
  O  O42  1  0.55680000  0.50100000  0.17620000  1
  O  O43  1  0.05580000  0.49900000  0.67520000  1
  O  O44  1  0.05580000  0.67520000  0.49900000  1
  O  O45  1  0.38060000  0.32480000  0.82380000  1
  O  O46  1  0.99480000  0.81840000  0.41510000  1
  O  O47  1  0.17640000  0.18160000  0.59670000  1
  O  O48  1  0.87260000  0.61590000  0.27460000  1
  O  O49  1  0.25670000  0.38410000  0.65870000  1
  O  O50  1  0.25670000  0.65870000  0.38410000  1
  O  O51  1  0.59800000  0.34130000  0.72540000  1
  O  O52  1  0.17640000  0.59670000  0.18160000  1
  O  O53  1  0.57970000  0.40330000  0.58490000  1
