# generated using pymatgen
data_CoH13C18N3O4
_symmetry_space_group_name_H-M   'P 1'
_cell_length_a   11.37370000
_cell_length_b   17.60130000
_cell_length_c   17.90580000
_cell_angle_alpha   90.00000000
_cell_angle_beta   90.00000000
_cell_angle_gamma   99.23400000
_symmetry_Int_Tables_number   1
_chemical_formula_structural   CoH13C18N3O4
_chemical_formula_sum   'Co4 H52 C72 N12 O16'
_cell_volume   3538.14421835
_cell_formula_units_Z   4
loop_
 _symmetry_equiv_pos_site_id
 _symmetry_equiv_pos_as_xyz
  1  'x, y, z'
loop_
 _atom_site_type_symbol
 _atom_site_label
 _atom_site_symmetry_multiplicity
 _atom_site_fract_x
 _atom_site_fract_y
 _atom_site_fract_z
 _atom_site_occupancy
  Co  Co0  1  0.03434000  0.42439000  0.42205000  1
  Co  Co1  1  0.03434000  0.92439000  0.07795000  1
  Co  Co2  1  0.96566000  0.07561000  0.92205000  1
  Co  Co3  1  0.96566000  0.57561000  0.57795000  1
  H  H4  1  0.00150000  0.21910000  0.01880000  1
  H  H5  1  0.00150000  0.71910000  0.48120000  1
  H  H6  1  0.00270000  0.33640000  0.17350000  1
  H  H7  1  0.00270000  0.83640000  0.32650000  1
  H  H8  1  0.01130000  0.20020000  0.54490000  1
  H  H9  1  0.01130000  0.70020000  0.95510000  1
  H  H10  1  0.04860000  0.17640000  0.33010000  1
  H  H11  1  0.04860000  0.67640000  0.16990000  1
  H  H12  1  0.05330000  0.09900000  0.24530000  1
  H  H13  1  0.05330000  0.59900000  0.25470000  1
  H  H14  1  0.15240000  0.49960000  0.66100000  1
  H  H15  1  0.15240000  0.99960000  0.83900000  1
  H  H16  1  0.19460000  0.15750000  0.00040000  1
  H  H17  1  0.19460000  0.65750000  0.49960000  1
  H  H18  1  0.22080000  0.33720000  0.49340000  1
  H  H19  1  0.22080000  0.83720000  0.00660000  1
  H  H20  1  0.26930000  0.01750000  0.14640000  1
  H  H21  1  0.26930000  0.51750000  0.35360000  1
  H  H22  1  0.35510000  0.00070000  0.83560000  1
  H  H23  1  0.35510000  0.50070000  0.66440000  1
  H  H24  1  0.39640000  0.15120000  0.00570000  1
  H  H25  1  0.39640000  0.65120000  0.49430000  1
  H  H26  1  0.42110000  0.33490000  0.49230000  1
  H  H27  1  0.42110000  0.83490000  0.00770000  1
  H  H28  1  0.47120000  0.01570000  0.14910000  1
  H  H29  1  0.47120000  0.51570000  0.35090000  1
  H  H30  1  0.52880000  0.48430000  0.64910000  1
  H  H31  1  0.52880000  0.98430000  0.85090000  1
  H  H32  1  0.57890000  0.16510000  0.99230000  1
  H  H33  1  0.57890000  0.66510000  0.50770000  1
  H  H34  1  0.60360000  0.34880000  0.50570000  1
  H  H35  1  0.60360000  0.84880000  0.99430000  1
  H  H36  1  0.64490000  0.49930000  0.33560000  1
  H  H37  1  0.64490000  0.99930000  0.16440000  1
  H  H38  1  0.73070000  0.48250000  0.64640000  1
  H  H39  1  0.73070000  0.98250000  0.85360000  1
  H  H40  1  0.77920000  0.16280000  0.99340000  1
  H  H41  1  0.77920000  0.66280000  0.50660000  1
  H  H42  1  0.80540000  0.34250000  0.50040000  1
  H  H43  1  0.80540000  0.84250000  0.99960000  1
  H  H44  1  0.84760000  0.00040000  0.16100000  1
  H  H45  1  0.84760000  0.50040000  0.33900000  1
  H  H46  1  0.94670000  0.40100000  0.74530000  1
  H  H47  1  0.94670000  0.90100000  0.75470000  1
  H  H48  1  0.95140000  0.32360000  0.83010000  1
  H  H49  1  0.95140000  0.82360000  0.66990000  1
  H  H50  1  0.98870000  0.29980000  0.04490000  1
  H  H51  1  0.98870000  0.79980000  0.45510000  1
  H  H52  1  0.99730000  0.16360000  0.67350000  1
  H  H53  1  0.99730000  0.66360000  0.82650000  1
  H  H54  1  0.99850000  0.28090000  0.51880000  1
  H  H55  1  0.99850000  0.78090000  0.98120000  1
  C  C56  1  0.00290000  0.27380000  0.63330000  1
  C  C57  1  0.00290000  0.77380000  0.86670000  1
  C  C58  1  0.00490000  0.28440000  0.18690000  1
  C  C59  1  0.00490000  0.78440000  0.31310000  1
  C  C60  1  0.00740000  0.15310000  0.15130000  1
  C  C61  1  0.00740000  0.65310000  0.34870000  1
  C  C62  1  0.01540000  0.09630000  0.08550000  1
  C  C63  1  0.01540000  0.59630000  0.41450000  1
  C  C64  1  0.01620000  0.26270000  0.26060000  1
  C  C65  1  0.01620000  0.76270000  0.23940000  1
  C  C66  1  0.01920000  0.32680000  0.32300000  1
  C  C67  1  0.01920000  0.82680000  0.17700000  1
  C  C68  1  0.03280000  0.13510000  0.22480000  1
  C  C69  1  0.03280000  0.63510000  0.27520000  1
  C  C70  1  0.03470000  0.18900000  0.27960000  1
  C  C71  1  0.03470000  0.68900000  0.22040000  1
  C  C72  1  0.20320000  0.03240000  0.87180000  1
  C  C73  1  0.20320000  0.53240000  0.62820000  1
  C  C74  1  0.22840000  0.12430000  0.96780000  1
  C  C75  1  0.22840000  0.62430000  0.53220000  1
  C  C76  1  0.27150000  0.37380000  0.46420000  1
  C  C77  1  0.27150000  0.87380000  0.03580000  1
  C  C78  1  0.30090000  0.47980000  0.38190000  1
  C  C79  1  0.30090000  0.97980000  0.11810000  1
  C  C80  1  0.32490000  0.03240000  0.87150000  1
  C  C81  1  0.32490000  0.53240000  0.62850000  1
  C  C82  1  0.34950000  0.12090000  0.96920000  1
  C  C83  1  0.34950000  0.62090000  0.53080000  1
  C  C84  1  0.39050000  0.37270000  0.46360000  1
  C  C85  1  0.39050000  0.87270000  0.03640000  1
  C  C86  1  0.40880000  0.07600000  0.92060000  1
  C  C87  1  0.40880000  0.57600000  0.57940000  1
  C  C88  1  0.42100000  0.47920000  0.38050000  1
  C  C89  1  0.42100000  0.97920000  0.11950000  1
  C  C90  1  0.46980000  0.42580000  0.42200000  1
  C  C91  1  0.46980000  0.92580000  0.07800000  1
  C  C92  1  0.53020000  0.07420000  0.92200000  1
  C  C93  1  0.53020000  0.57420000  0.57800000  1
  C  C94  1  0.57900000  0.02080000  0.88050000  1
  C  C95  1  0.57900000  0.52080000  0.61950000  1
  C  C96  1  0.59120000  0.42400000  0.42060000  1
  C  C97  1  0.59120000  0.92400000  0.07940000  1
  C  C98  1  0.60950000  0.12730000  0.96360000  1
  C  C99  1  0.60950000  0.62730000  0.53640000  1
  C  C100  1  0.65050000  0.37910000  0.46920000  1
  C  C101  1  0.65050000  0.87910000  0.03080000  1
  C  C102  1  0.67510000  0.46760000  0.37150000  1
  C  C103  1  0.67510000  0.96760000  0.12850000  1
  C  C104  1  0.69910000  0.02020000  0.88190000  1
  C  C105  1  0.69910000  0.52020000  0.61810000  1
  C  C106  1  0.72850000  0.12620000  0.96420000  1
  C  C107  1  0.72850000  0.62620000  0.53580000  1
  C  C108  1  0.77160000  0.37570000  0.46780000  1
  C  C109  1  0.77160000  0.87570000  0.03220000  1
  C  C110  1  0.79680000  0.46760000  0.37180000  1
  C  C111  1  0.79680000  0.96760000  0.12820000  1
  C  C112  1  0.96530000  0.31100000  0.77960000  1
  C  C113  1  0.96530000  0.81100000  0.72040000  1
  C  C114  1  0.96720000  0.36490000  0.72480000  1
  C  C115  1  0.96720000  0.86490000  0.77520000  1
  C  C116  1  0.98080000  0.17320000  0.82300000  1
  C  C117  1  0.98080000  0.67320000  0.67700000  1
  C  C118  1  0.98380000  0.23730000  0.76060000  1
  C  C119  1  0.98380000  0.73730000  0.73940000  1
  C  C120  1  0.98460000  0.40370000  0.58550000  1
  C  C121  1  0.98460000  0.90370000  0.91450000  1
  C  C122  1  0.99260000  0.34690000  0.65130000  1
  C  C123  1  0.99260000  0.84690000  0.84870000  1
  C  C124  1  0.99510000  0.21560000  0.68690000  1
  C  C125  1  0.99510000  0.71560000  0.81310000  1
  C  C126  1  0.99710000  0.22620000  0.13330000  1
  C  C127  1  0.99710000  0.72620000  0.36670000  1
  N  N128  1  0.00400000  0.24820000  0.55520000  1
  N  N129  1  0.00400000  0.74820000  0.94480000  1
  N  N130  1  0.15920000  0.07810000  0.91780000  1
  N  N131  1  0.15920000  0.57810000  0.58220000  1
  N  N132  1  0.22370000  0.42670000  0.42360000  1
  N  N133  1  0.22370000  0.92670000  0.07640000  1
  N  N134  1  0.77630000  0.07330000  0.92360000  1
  N  N135  1  0.77630000  0.57330000  0.57640000  1
  N  N136  1  0.84080000  0.42190000  0.41780000  1
  N  N137  1  0.84080000  0.92190000  0.08220000  1
  N  N138  1  0.99600000  0.25180000  0.05520000  1
  N  N139  1  0.99600000  0.75180000  0.44480000  1
  O  O140  1  0.01110000  0.30340000  0.38880000  1
  O  O141  1  0.01110000  0.80340000  0.11120000  1
  O  O142  1  0.03180000  0.39550000  0.30270000  1
  O  O143  1  0.03180000  0.89550000  0.19730000  1
  O  O144  1  0.03340000  0.39380000  0.52930000  1
  O  O145  1  0.03340000  0.89380000  0.97070000  1
  O  O146  1  0.06250000  0.03590000  0.10450000  1
  O  O147  1  0.06250000  0.53590000  0.39550000  1
  O  O148  1  0.93750000  0.46410000  0.60450000  1
  O  O149  1  0.93750000  0.96410000  0.89550000  1
  O  O150  1  0.96660000  0.10620000  0.02930000  1
  O  O151  1  0.96660000  0.60620000  0.47070000  1
  O  O152  1  0.96820000  0.10450000  0.80270000  1
  O  O153  1  0.96820000  0.60450000  0.69730000  1
  O  O154  1  0.98890000  0.19660000  0.88880000  1
  O  O155  1  0.98890000  0.69660000  0.61120000  1
