# generated using pymatgen
data_U3(C3O5)2
_symmetry_space_group_name_H-M   'P 1'
_cell_length_a   14.45385742
_cell_length_b   14.45370000
_cell_length_c   14.45370000
_cell_angle_alpha   109.47100000
_cell_angle_beta   109.47144127
_cell_angle_gamma   109.47144127
_symmetry_Int_Tables_number   1
_chemical_formula_structural   U3(C3O5)2
_chemical_formula_sum   'U12 C24 O40'
_cell_volume   2324.44227660
_cell_formula_units_Z   4
loop_
 _symmetry_equiv_pos_site_id
 _symmetry_equiv_pos_as_xyz
  1  'x, y, z'
loop_
 _atom_site_type_symbol
 _atom_site_label
 _atom_site_symmetry_multiplicity
 _atom_site_fract_x
 _atom_site_fract_y
 _atom_site_fract_z
 _atom_site_occupancy
  U  U0  1  0.83581000  0.46095000  0.84539000  1
  U  U1  1  0.00958000  0.62514000  0.16419000  1
  U  U2  1  0.37486000  0.38444000  0.53905000  1
  U  U3  1  0.46095000  0.84539000  0.83581000  1
  U  U4  1  0.62514000  0.16419000  0.00958000  1
  U  U5  1  0.16419000  0.00958000  0.62514000  1
  U  U6  1  0.61556000  0.99042000  0.15461000  1
  U  U7  1  0.84539000  0.83581000  0.46095000  1
  U  U8  1  0.99042000  0.15461000  0.61556000  1
  U  U9  1  0.15461000  0.61556000  0.99042000  1
  U  U10  1  0.53905000  0.37486000  0.38444000  1
  U  U11  1  0.38444000  0.53905000  0.37486000  1
  C  C12  1  0.27190000  0.70860000  0.44010000  1
  C  C13  1  0.56380000  0.33270000  0.77270000  1
  C  C14  1  0.20890000  0.76890000  0.43620000  1
  C  C15  1  0.33270000  0.77270000  0.56380000  1
  C  C16  1  0.44010000  0.27190000  0.70860000  1
  C  C17  1  0.55990000  0.26850000  0.83180000  1
  C  C18  1  0.26850000  0.83180000  0.55990000  1
  C  C19  1  0.43620000  0.20890000  0.76890000  1
  C  C20  1  0.23110000  0.44000000  0.66730000  1
  C  C21  1  0.83180000  0.55990000  0.26850000  1
  C  C22  1  0.76890000  0.43620000  0.20890000  1
  C  C23  1  0.29140000  0.56330000  0.73150000  1
  C  C24  1  0.16820000  0.43670000  0.72810000  1
  C  C25  1  0.77270000  0.56380000  0.33270000  1
  C  C26  1  0.70860000  0.44010000  0.27190000  1
  C  C27  1  0.22730000  0.56000000  0.79110000  1
  C  C28  1  0.56000000  0.79110000  0.22730000  1
  C  C29  1  0.72810000  0.16820000  0.43670000  1
  C  C30  1  0.56330000  0.73150000  0.29140000  1
  C  C31  1  0.43670000  0.72810000  0.16820000  1
  C  C32  1  0.79110000  0.22730000  0.56000000  1
  C  C33  1  0.66730000  0.23110000  0.44000000  1
  C  C34  1  0.44000000  0.66730000  0.23110000  1
  C  C35  1  0.73150000  0.29140000  0.56330000  1
  O  O36  1  0.45920000  0.45920000  0.45920000  1
  O  O37  1  1.00000000  0.54080000  1.00000000  1
  O  O38  1  0.49560000  0.31150000  0.50970000  1
  O  O39  1  0.26960000  0.63000000  0.36500000  1
  O  O40  1  0.63810000  0.40680000  0.77210000  1
  O  O41  1  0.31150000  0.50970000  0.49560000  1
  O  O42  1  0.81590000  0.50440000  0.01410000  1
  O  O43  1  0.13400000  0.76870000  0.36190000  1
  O  O44  1  0.40680000  0.77210000  0.63810000  1
  O  O45  1  0.36500000  0.26960000  0.63000000  1
  O  O46  1  0.63500000  0.26500000  0.90460000  1
  O  O47  1  0.50440000  0.01410000  0.81590000  1
  O  O48  1  0.90460000  0.63500000  0.26500000  1
  O  O49  1  0.23130000  0.36530000  0.59320000  1
  O  O50  1  0.37000000  0.63960000  0.73500000  1
  O  O51  1  0.76870000  0.36190000  0.13400000  1
  O  O52  1  0.26500000  0.90460000  0.63500000  1
  O  O53  1  0.36190000  0.13400000  0.76870000  1
  O  O54  1  0.54080000  1.00000000  0.00000000  1
  O  O55  1  0.01410000  0.81590000  0.50440000  1
  O  O56  1  0.49030000  0.80180000  0.98590000  1
  O  O57  1  0.18410000  0.19820000  0.68850000  1
  O  O58  1  0.68850000  0.18410000  0.19820000  1
  O  O59  1  1.00000000  1.00000000  0.54080000  1
  O  O60  1  0.63470000  0.86600000  0.22790000  1
  O  O61  1  0.73040000  0.09540000  0.36040000  1
  O  O62  1  0.77210000  0.63810000  0.40680000  1
  O  O63  1  0.09540000  0.36040000  0.73040000  1
  O  O64  1  0.22790000  0.63470000  0.86600000  1
  O  O65  1  0.63000000  0.36500000  0.26960000  1
  O  O66  1  0.80180000  0.98590000  0.49030000  1
  O  O67  1  0.63960000  0.73500000  0.37000000  1
  O  O68  1  0.36040000  0.73040000  0.09540000  1
  O  O69  1  0.86600000  0.22790000  0.63470000  1
  O  O70  1  0.59320000  0.23130000  0.36530000  1
  O  O71  1  0.50970000  0.49560000  0.31150000  1
  O  O72  1  0.98590000  0.49030000  0.80180000  1
  O  O73  1  0.36530000  0.59320000  0.23130000  1
  O  O74  1  0.73500000  0.37000000  0.63960000  1
  O  O75  1  0.19820000  0.68850000  0.18410000  1
