# generated using pymatgen
data_Cu5H21C39N19
_symmetry_space_group_name_H-M   'P 1'
_cell_length_a   11.44600000
_cell_length_b   13.43400000
_cell_length_c   15.35200000
_cell_angle_alpha   79.59000000
_cell_angle_beta   76.45000000
_cell_angle_gamma   79.82000000
_symmetry_Int_Tables_number   1
_chemical_formula_structural   Cu5H21C39N19
_chemical_formula_sum   'Cu10 H42 C78 N38'
_cell_volume   2234.71801870
_cell_formula_units_Z   2
loop_
 _symmetry_equiv_pos_site_id
 _symmetry_equiv_pos_as_xyz
  1  'x, y, z'
loop_
 _atom_site_type_symbol
 _atom_site_label
 _atom_site_symmetry_multiplicity
 _atom_site_fract_x
 _atom_site_fract_y
 _atom_site_fract_z
 _atom_site_occupancy
  Cu  Cu0  1  0.19201000  0.51428000  0.21743000  1
  Cu  Cu1  1  0.20021000  0.63781000  0.47923000  1
  Cu  Cu2  1  0.30141000  0.97051000  0.31503000  1
  Cu  Cu3  1  0.32764000  0.62898000  0.26946000  1
  Cu  Cu4  1  0.42746000  0.33448000  0.89380000  1
  Cu  Cu5  1  0.57254000  0.66552000  0.10620000  1
  Cu  Cu6  1  0.67236000  0.37102000  0.73054000  1
  Cu  Cu7  1  0.69859000  0.02949000  0.68497000  1
  Cu  Cu8  1  0.79979000  0.36219000  0.52077000  1
  Cu  Cu9  1  0.80799000  0.48572000  0.78257000  1
  H  H10  1  0.01700000  0.63790000  0.13920000  1
  H  H11  1  0.03950000  0.07900000  0.36510000  1
  H  H12  1  0.06270000  0.75950000  0.62560000  1
  H  H13  1  0.06560000  0.61360000  0.87510000  1
  H  H14  1  0.11260000  0.28040000  0.12870000  1
  H  H15  1  0.14870000  0.08960000  0.69080000  1
  H  H16  1  0.15410000  0.25220000  0.87510000  1
  H  H17  1  0.16990000  0.25430000  0.61740000  1
  H  H18  1  0.24900000  0.33680000  0.35460000  1
  H  H19  1  0.27300000  0.09690000  0.14100000  1
  H  H20  1  0.28540000  0.48280000  0.77500000  1
  H  H21  1  0.29660000  0.53430000  0.62210000  1
  H  H22  1  0.31580000  0.98170000  0.91600000  1
  H  H23  1  0.32130000  0.73180000  0.88140000  1
  H  H24  1  0.34310000  0.17520000  0.34490000  1
  H  H25  1  0.37270000  0.69160000  0.73440000  1
  H  H26  1  0.38090000  0.17190000  0.00820000  1
  H  H27  1  0.43120000  0.04650000  0.78290000  1
  H  H28  1  0.44760000  0.66600000  0.97840000  1
  H  H29  1  0.48400000  0.26060000  0.57730000  1
  H  H30  1  0.48610000  0.22420000  0.72850000  1
  H  H31  1  0.51390000  0.77580000  0.27150000  1
  H  H32  1  0.51600000  0.73940000  0.42270000  1
  H  H33  1  0.55240000  0.33400000  0.02160000  1
  H  H34  1  0.56880000  0.95350000  0.21710000  1
  H  H35  1  0.61910000  0.82810000  0.99180000  1
  H  H36  1  0.62730000  0.30840000  0.26560000  1
  H  H37  1  0.65690000  0.82480000  0.65510000  1
  H  H38  1  0.67870000  0.26820000  0.11860000  1
  H  H39  1  0.68420000  0.01830000  0.08400000  1
  H  H40  1  0.70340000  0.46570000  0.37790000  1
  H  H41  1  0.71460000  0.51720000  0.22500000  1
  H  H42  1  0.72700000  0.90310000  0.85900000  1
  H  H43  1  0.75100000  0.66320000  0.64540000  1
  H  H44  1  0.83010000  0.74570000  0.38260000  1
  H  H45  1  0.84590000  0.74780000  0.12490000  1
  H  H46  1  0.85130000  0.91040000  0.30920000  1
  H  H47  1  0.88740000  0.71960000  0.87130000  1
  H  H48  1  0.93440000  0.38640000  0.12490000  1
  H  H49  1  0.93730000  0.24050000  0.37440000  1
  H  H50  1  0.96050000  0.92100000  0.63490000  1
  H  H51  1  0.98300000  0.36210000  0.86080000  1
  C  C52  1  0.00060000  0.31700000  0.67910000  1
  C  C53  1  0.00590000  0.34630000  0.91650000  1
  C  C54  1  0.01160000  0.42500000  0.63880000  1
  C  C55  1  0.02100000  0.22940000  0.36950000  1
  C  C56  1  0.02160000  0.63910000  0.92740000  1
  C  C57  1  0.02200000  0.41220000  0.37950000  1
  C  C58  1  0.02300000  0.87790000  0.23340000  1
  C  C59  1  0.06550000  0.61120000  0.00900000  1
  C  C60  1  0.07940000  0.30820000  0.37030000  1
  C  C61  1  0.08410000  0.13170000  0.36120000  1
  C  C62  1  0.08530000  0.29650000  0.07460000  1
  C  C63  1  0.08590000  0.14280000  0.70280000  1
  C  C64  1  0.09910000  0.24000000  0.65870000  1
  C  C65  1  0.11000000  0.28100000  0.92570000  1
  C  C66  1  0.11410000  0.79680000  0.21830000  1
  C  C67  1  0.17700000  0.54170000  0.01180000  1
  C  C68  1  0.20280000  0.28540000  0.35780000  1
  C  C69  1  0.23390000  0.80570000  0.15900000  1
  C  C70  1  0.25670000  0.84740000  0.38190000  1
  C  C71  1  0.25940000  0.18770000  0.34970000  1
  C  C72  1  0.32940000  0.43870000  0.73490000  1
  C  C73  1  0.33220000  0.46930000  0.64310000  1
  C  C74  1  0.33300000  0.45250000  0.05440000  1
  C  C75  1  0.35720000  0.08240000  0.13010000  1
  C  C76  1  0.37970000  0.84880000  0.05350000  1
  C  C77  1  0.39020000  0.39990000  0.58240000  1
  C  C78  1  0.39350000  0.69020000  0.86220000  1
  C  C79  1  0.39420000  0.42980000  0.48320000  1
  C  C80  1  0.39960000  0.96330000  0.90510000  1
  C  C81  1  0.42040000  0.40990000  0.11000000  1
  C  C82  1  0.42140000  0.12730000  0.04880000  1
  C  C83  1  0.42470000  0.66720000  0.77430000  1
  C  C84  1  0.42820000  0.42550000  0.34340000  1
  C  C85  1  0.44420000  0.28650000  0.70770000  1
  C  C86  1  0.44550000  0.30830000  0.61560000  1
  C  C87  1  0.45320000  0.89510000  0.97120000  1
  C  C88  1  0.46550000  0.39300000  0.25300000  1
  C  C89  1  0.46880000  0.65180000  0.91920000  1
  C  C90  1  0.46990000  0.00280000  0.82500000  1
  C  C91  1  0.53010000  0.99720000  0.17500000  1
  C  C92  1  0.53120000  0.34820000  0.08080000  1
  C  C93  1  0.53450000  0.60700000  0.74700000  1
  C  C94  1  0.54680000  0.10490000  0.02880000  1
  C  C95  1  0.55450000  0.69170000  0.38440000  1
  C  C96  1  0.55580000  0.71350000  0.29230000  1
  C  C97  1  0.57180000  0.57450000  0.65660000  1
  C  C98  1  0.57530000  0.33280000  0.22570000  1
  C  C99  1  0.57860000  0.87270000  0.95120000  1
  C  C100  1  0.57960000  0.59010000  0.89000000  1
  C  C101  1  0.60040000  0.03670000  0.09490000  1
  C  C102  1  0.60580000  0.57020000  0.51680000  1
  C  C103  1  0.60650000  0.30980000  0.13780000  1
  C  C104  1  0.60980000  0.60010000  0.41760000  1
  C  C105  1  0.62030000  0.15120000  0.94650000  1
  C  C106  1  0.64280000  0.91760000  0.86990000  1
  C  C107  1  0.66700000  0.54750000  0.94560000  1
  C  C108  1  0.66780000  0.53070000  0.35690000  1
  C  C109  1  0.67060000  0.56130000  0.26510000  1
  C  C110  1  0.74060000  0.81230000  0.65030000  1
  C  C111  1  0.74330000  0.15260000  0.61810000  1
  C  C112  1  0.76610000  0.19430000  0.84100000  1
  C  C113  1  0.79720000  0.71460000  0.64220000  1
  C  C114  1  0.82300000  0.45830000  0.98820000  1
  C  C115  1  0.88590000  0.20320000  0.78170000  1
  C  C116  1  0.89000000  0.71900000  0.07430000  1
  C  C117  1  0.90090000  0.76000000  0.34130000  1
  C  C118  1  0.91410000  0.85720000  0.29720000  1
  C  C119  1  0.91470000  0.70350000  0.92540000  1
  C  C120  1  0.91590000  0.86830000  0.63880000  1
  C  C121  1  0.92060000  0.69180000  0.62970000  1
  C  C122  1  0.93450000  0.38880000  0.99100000  1
  C  C123  1  0.97700000  0.12210000  0.76660000  1
  C  C124  1  0.97800000  0.58780000  0.62050000  1
  C  C125  1  0.97840000  0.36090000  0.07260000  1
  C  C126  1  0.97900000  0.77060000  0.63050000  1
  C  C127  1  0.98840000  0.57500000  0.36120000  1
  C  C128  1  0.99410000  0.65370000  0.08350000  1
  C  C129  1  0.99940000  0.68300000  0.32090000  1
  N  N130  1  0.06900000  0.49660000  0.32700000  1
  N  N131  1  0.07970000  0.55800000  0.56270000  1
  N  N132  1  0.10080000  0.45570000  0.57310000  1
  N  N133  1  0.10310000  0.70030000  0.26230000  1
  N  N134  1  0.15310000  0.25530000  0.00110000  1
  N  N135  1  0.20320000  0.10940000  0.34840000  1
  N  N136  1  0.23140000  0.76840000  0.42180000  1
  N  N137  1  0.23240000  0.51590000  0.08660000  1
  N  N138  1  0.23730000  0.49360000  0.94230000  1
  N  N139  1  0.25830000  0.87690000  0.08280000  1
  N  N140  1  0.32830000  0.74150000  0.17430000  1
  N  N141  1  0.33760000  0.43610000  0.96920000  1
  N  N142  1  0.34140000  0.52010000  0.44660000  1
  N  N143  1  0.36450000  0.51540000  0.35620000  1
  N  N144  1  0.38710000  0.34830000  0.76930000  1
  N  N145  1  0.38980000  0.43160000  0.19610000  1
  N  N146  1  0.40790000  0.01840000  0.19570000  1
  N  N147  1  0.42610000  0.76740000  0.10730000  1
  N  N148  1  0.45110000  0.36660000  0.42080000  1
  N  N149  1  0.54890000  0.63340000  0.57920000  1
  N  N150  1  0.57390000  0.23260000  0.89270000  1
  N  N151  1  0.59210000  0.98160000  0.80430000  1
  N  N152  1  0.61020000  0.56840000  0.80390000  1
  N  N153  1  0.61290000  0.65170000  0.23070000  1
  N  N154  1  0.63550000  0.48460000  0.64380000  1
  N  N155  1  0.65860000  0.47990000  0.55340000  1
  N  N156  1  0.66240000  0.56390000  0.03080000  1
  N  N157  1  0.67170000  0.25850000  0.82570000  1
  N  N158  1  0.74170000  0.12310000  0.91720000  1
  N  N159  1  0.76270000  0.50640000  0.05770000  1
  N  N160  1  0.76760000  0.48410000  0.91340000  1
  N  N161  1  0.76860000  0.23160000  0.57820000  1
  N  N162  1  0.79680000  0.89060000  0.65160000  1
  N  N163  1  0.84690000  0.74470000  0.99890000  1
  N  N164  1  0.89690000  0.29970000  0.73770000  1
  N  N165  1  0.89920000  0.54430000  0.42690000  1
  N  N166  1  0.92030000  0.44200000  0.43730000  1
  N  N167  1  0.93100000  0.50340000  0.67300000  1
