# generated using pymatgen
data_NiH7C9NO5
_symmetry_space_group_name_H-M   'P 1'
_cell_length_a   9.35490000
_cell_length_b   10.88300000
_cell_length_c   13.10400000
_cell_angle_alpha   113.08000000
_cell_angle_beta   90.00000000
_cell_angle_gamma   90.00000000
_symmetry_Int_Tables_number   1
_chemical_formula_structural   NiH7C9NO5
_chemical_formula_sum   'Ni4 H28 C36 N4 O20'
_cell_volume   1227.32575787
_cell_formula_units_Z   4
loop_
 _symmetry_equiv_pos_site_id
 _symmetry_equiv_pos_as_xyz
  1  'x, y, z'
loop_
 _atom_site_type_symbol
 _atom_site_label
 _atom_site_symmetry_multiplicity
 _atom_site_fract_x
 _atom_site_fract_y
 _atom_site_fract_z
 _atom_site_occupancy
  Ni  Ni0  1  0.76161000  0.80666000  0.57437000  1
  Ni  Ni1  1  0.73839000  0.30666000  0.57437000  1
  Ni  Ni2  1  0.26161000  0.69334000  0.42563000  1
  Ni  Ni3  1  0.23839000  0.19334000  0.42563000  1
  H  H4  1  0.99180000  0.77660000  0.90400000  1
  H  H5  1  0.92650000  0.15200000  0.93640000  1
  H  H6  1  0.89370000  0.70690000  0.73110000  1
  H  H7  1  0.87970000  0.00300000  0.35300000  1
  H  H8  1  0.85380000  0.41860000  0.36170000  1
  H  H9  1  0.84410000  0.49500000  0.28270000  1
  H  H10  1  0.83570000  0.07180000  0.75980000  1
  H  H11  1  0.66430000  0.57180000  0.75980000  1
  H  H12  1  0.65590000  0.99500000  0.28270000  1
  H  H13  1  0.64620000  0.91860000  0.36170000  1
  H  H14  1  0.62030000  0.50300000  0.35300000  1
  H  H15  1  0.60630000  0.20690000  0.73110000  1
  H  H16  1  0.57350000  0.65200000  0.93640000  1
  H  H17  1  0.50820000  0.27660000  0.90400000  1
  H  H18  1  0.49180000  0.72340000  0.09600000  1
  H  H19  1  0.42650000  0.34800000  0.06360000  1
  H  H20  1  0.39370000  0.79310000  0.26890000  1
  H  H21  1  0.37970000  0.49700000  0.64700000  1
  H  H22  1  0.35380000  0.08140000  0.63830000  1
  H  H23  1  0.34410000  0.00500000  0.71730000  1
  H  H24  1  0.33570000  0.42820000  0.24020000  1
  H  H25  1  0.16430000  0.92820000  0.24020000  1
  H  H26  1  0.15590000  0.50500000  0.71730000  1
  H  H27  1  0.14620000  0.58140000  0.63830000  1
  H  H28  1  0.12030000  0.99700000  0.64700000  1
  H  H29  1  0.10630000  0.29310000  0.26890000  1
  H  H30  1  0.07350000  0.84800000  0.06360000  1
  H  H31  1  0.00820000  0.22340000  0.09600000  1
  C  C32  1  0.96840000  0.97530000  0.94270000  1
  C  C33  1  0.96360000  0.59450000  0.42070000  1
  C  C34  1  0.95870000  0.83910000  0.87740000  1
  C  C35  1  0.92100000  0.06030000  0.89620000  1
  C  C36  1  0.89960000  0.79820000  0.77330000  1
  C  C37  1  0.86470000  0.01140000  0.79000000  1
  C  C38  1  0.84060000  0.50600000  0.35980000  1
  C  C39  1  0.83200000  0.04780000  0.51800000  1
  C  C40  1  0.80750000  0.05730000  0.40560000  1
  C  C41  1  0.69250000  0.55730000  0.40560000  1
  C  C42  1  0.66800000  0.54780000  0.51800000  1
  C  C43  1  0.65940000  0.00600000  0.35980000  1
  C  C44  1  0.63530000  0.51140000  0.79000000  1
  C  C45  1  0.60040000  0.29820000  0.77330000  1
  C  C46  1  0.57900000  0.56030000  0.89620000  1
  C  C47  1  0.54130000  0.33910000  0.87740000  1
  C  C48  1  0.53640000  0.09450000  0.42070000  1
  C  C49  1  0.53160000  0.47530000  0.94270000  1
  C  C50  1  0.46840000  0.52470000  0.05730000  1
  C  C51  1  0.46360000  0.90550000  0.57930000  1
  C  C52  1  0.45870000  0.66090000  0.12260000  1
  C  C53  1  0.42100000  0.43970000  0.10380000  1
  C  C54  1  0.39960000  0.70180000  0.22670000  1
  C  C55  1  0.36470000  0.48860000  0.21000000  1
  C  C56  1  0.34060000  0.99400000  0.64020000  1
  C  C57  1  0.33200000  0.45220000  0.48200000  1
  C  C58  1  0.30750000  0.44270000  0.59440000  1
  C  C59  1  0.19250000  0.94270000  0.59440000  1
  C  C60  1  0.16800000  0.95220000  0.48200000  1
  C  C61  1  0.15940000  0.49400000  0.64020000  1
  C  C62  1  0.13530000  0.98860000  0.21000000  1
  C  C63  1  0.10040000  0.20180000  0.22670000  1
  C  C64  1  0.07900000  0.93970000  0.10380000  1
  C  C65  1  0.04130000  0.16090000  0.12260000  1
  C  C66  1  0.03640000  0.40550000  0.57930000  1
  C  C67  1  0.03160000  0.02470000  0.05730000  1
  N  N68  1  0.85060000  0.88060000  0.72910000  1
  N  N69  1  0.64940000  0.38060000  0.72910000  1
  N  N70  1  0.35060000  0.61940000  0.27090000  1
  N  N71  1  0.14940000  0.11940000  0.27090000  1
  O  O72  1  0.94240000  0.68560000  0.51590000  1
  O  O73  1  0.91560000  0.42880000  0.62550000  1
  O  O74  1  0.85450000  0.93260000  0.51380000  1
  O  O75  1  0.83100000  0.15380000  0.60380000  1
  O  O76  1  0.81910000  0.19330000  0.41460000  1
  O  O77  1  0.68090000  0.69330000  0.41460000  1
  O  O78  1  0.66900000  0.65380000  0.60380000  1
  O  O79  1  0.64550000  0.43260000  0.51380000  1
  O  O80  1  0.58440000  0.92880000  0.62550000  1
  O  O81  1  0.55760000  0.18560000  0.51590000  1
  O  O82  1  0.44240000  0.81440000  0.48410000  1
  O  O83  1  0.41560000  0.07120000  0.37450000  1
  O  O84  1  0.35450000  0.56740000  0.48620000  1
  O  O85  1  0.33100000  0.34620000  0.39620000  1
  O  O86  1  0.31910000  0.30670000  0.58540000  1
  O  O87  1  0.18090000  0.80670000  0.58540000  1
  O  O88  1  0.16900000  0.84620000  0.39620000  1
  O  O89  1  0.14550000  0.06740000  0.48620000  1
  O  O90  1  0.08440000  0.57120000  0.37450000  1
  O  O91  1  0.05760000  0.31440000  0.48410000  1
