# generated using pymatgen
data_Cr2CoH32C36N4O3
_symmetry_space_group_name_H-M   'P 1'
_cell_length_a   8.87680000
_cell_length_b   15.26780303
_cell_length_c   15.26780303
_cell_angle_alpha   74.39952699
_cell_angle_beta   75.36555042
_cell_angle_gamma   75.36555042
_symmetry_Int_Tables_number   1
_chemical_formula_structural   Cr2CoH32C36N4O3
_chemical_formula_sum   'Cr4 Co2 H64 C72 N8 O6'
_cell_volume   1890.08989411
_cell_formula_units_Z   2
loop_
 _symmetry_equiv_pos_site_id
 _symmetry_equiv_pos_as_xyz
  1  'x, y, z'
loop_
 _atom_site_type_symbol
 _atom_site_label
 _atom_site_symmetry_multiplicity
 _atom_site_fract_x
 _atom_site_fract_y
 _atom_site_fract_z
 _atom_site_occupancy
  C  C0  1  0.96950000  0.35980000  0.53480000  1
  C  C1  1  0.46950000  0.53480000  0.35980000  1
  C  C2  1  0.03510000  0.12530000  0.71510000  1
  C  C3  1  0.53510000  0.71510000  0.12530000  1
  C  C4  1  0.80500000  0.06970000  0.75770000  1
  C  C5  1  0.30500000  0.75770000  0.06970000  1
  C  C6  1  0.07200000  0.35870000  0.44710000  1
  C  C7  1  0.57200000  0.44710000  0.35870000  1
  C  C8  1  0.87660000  0.23410000  0.52810000  1
  C  C9  1  0.37660000  0.52810000  0.23410000  1
  C  C10  1  0.12550000  0.03790000  0.71290000  1
  C  C11  1  0.62550000  0.71290000  0.03790000  1
  C  C12  1  0.88770000  0.98060000  0.75480000  1
  C  C13  1  0.38770000  0.75480000  0.98060000  1
  C  C14  1  0.05500000  0.96420000  0.72920000  1
  C  C15  1  0.55500000  0.72920000  0.96420000  1
  C  C16  1  0.07440000  0.28930000  0.40130000  1
  C  C17  1  0.57440000  0.40130000  0.28930000  1
  C  C18  1  0.97340000  0.22810000  0.44430000  1
  C  C19  1  0.47340000  0.44430000  0.22810000  1
  C  C20  1  0.65000000  0.23490000  0.35790000  1
  C  C21  1  0.17420000  0.28390000  0.30890000  1
  C  C22  1  0.67420000  0.30890000  0.28390000  1
  C  C23  1  0.15000000  0.35790000  0.23490000  1
  C  C24  1  0.15000000  0.87010000  0.72170000  1
  C  C25  1  0.65000000  0.72170000  0.87010000  1
  C  C26  1  0.62240000  0.79570000  0.79450000  1
  C  C27  1  0.12240000  0.79450000  0.79570000  1
  C  C28  1  0.70670000  0.06850000  0.44450000  1
  C  C29  1  0.20670000  0.44450000  0.06850000  1
  C  C30  1  0.67630000  0.87590000  0.62750000  1
  C  C31  1  0.17630000  0.62750000  0.87590000  1
  C  C32  1  0.73580000  0.14470000  0.35670000  1
  C  C33  1  0.23580000  0.35670000  0.14470000  1
  C  C34  1  0.29160000  0.20520000  0.29540000  1
  C  C35  1  0.79160000  0.29540000  0.20520000  1
  C  C36  1  0.70840000  0.79480000  0.70460000  1
  C  C37  1  0.20840000  0.70460000  0.79480000  1
  C  C38  1  0.26420000  0.85530000  0.64330000  1
  C  C39  1  0.76420000  0.64330000  0.85530000  1
  C  C40  1  0.32370000  0.12410000  0.37250000  1
  C  C41  1  0.82370000  0.37250000  0.12410000  1
  C  C42  1  0.29330000  0.93150000  0.55550000  1
  C  C43  1  0.79330000  0.55550000  0.93150000  1
  C  C44  1  0.37760000  0.20430000  0.20550000  1
  C  C45  1  0.87760000  0.20550000  0.20430000  1
  C  C46  1  0.85000000  0.12990000  0.27830000  1
  C  C47  1  0.35000000  0.27830000  0.12990000  1
  C  C48  1  0.82580000  0.71610000  0.69110000  1
  C  C49  1  0.35000000  0.76510000  0.64210000  1
  C  C50  1  0.85000000  0.64210000  0.76510000  1
  C  C51  1  0.32580000  0.69110000  0.71610000  1
  C  C52  1  0.02660000  0.77190000  0.55570000  1
  C  C53  1  0.52660000  0.55570000  0.77190000  1
  C  C54  1  0.92560000  0.71070000  0.59870000  1
  C  C55  1  0.42560000  0.59870000  0.71070000  1
  C  C56  1  0.94500000  0.03580000  0.27080000  1
  C  C57  1  0.44500000  0.27080000  0.03580000  1
  C  C58  1  0.11230000  0.01940000  0.24520000  1
  C  C59  1  0.61230000  0.24520000  0.01940000  1
  C  C60  1  0.87450000  0.96210000  0.28710000  1
  C  C61  1  0.37450000  0.28710000  0.96210000  1
  C  C62  1  0.12340000  0.76590000  0.47190000  1
  C  C63  1  0.62340000  0.47190000  0.76590000  1
  C  C64  1  0.92800000  0.64130000  0.55290000  1
  C  C65  1  0.42800000  0.55290000  0.64130000  1
  C  C66  1  0.19500000  0.93030000  0.24230000  1
  C  C67  1  0.69500000  0.24230000  0.93030000  1
  C  C68  1  0.96490000  0.87470000  0.28490000  1
  C  C69  1  0.46490000  0.28490000  0.87470000  1
  C  C70  1  0.03050000  0.64020000  0.46520000  1
  C  C71  1  0.53050000  0.46520000  0.64020000  1
  Co  Co72  1  0.75000000  0.28312000  0.71688000  1
  Co  Co73  1  0.25000000  0.71688000  0.28312000  1
  Cr  Cr74  1  0.41660000  0.23748000  0.64940000  1
  Cr  Cr75  1  0.91660000  0.64940000  0.23748000  1
  Cr  Cr76  1  0.58340000  0.76252000  0.35060000  1
  Cr  Cr77  1  0.08340000  0.35060000  0.76252000  1
  H  H78  1  0.96762000  0.40654000  0.56556000  1
  H  H79  1  0.46762000  0.56556000  0.40654000  1
  H  H80  1  0.08758000  0.17604000  0.70052000  1
  H  H81  1  0.58758000  0.70052000  0.17604000  1
  H  H82  1  0.69241000  0.07996000  0.77506000  1
  H  H83  1  0.19241000  0.77506000  0.07996000  1
  H  H84  1  0.13731000  0.40356000  0.41988000  1
  H  H85  1  0.63731000  0.41988000  0.40356000  1
  H  H86  1  0.80662000  0.19171000  0.55429000  1
  H  H87  1  0.30662000  0.55429000  0.19171000  1
  H  H88  1  0.23810000  0.02900000  0.69980000  1
  H  H89  1  0.73810000  0.69980000  0.02900000  1
  H  H90  1  0.83282000  0.93090000  0.76990000  1
  H  H91  1  0.33282000  0.76990000  0.93090000  1
  H  H92  1  0.57226000  0.24587000  0.41143000  1
  H  H93  1  0.07226000  0.41143000  0.24587000  1
  H  H94  1  0.54219000  0.84850000  0.80500000  1
  H  H95  1  0.04219000  0.80500000  0.84850000  1
  H  H96  1  0.97133000  0.18101000  0.41489000  1
  H  H97  1  0.47133000  0.41489000  0.18101000  1
  H  H98  1  0.64317000  0.09688000  0.49606000  1
  H  H99  1  0.14317000  0.49606000  0.09688000  1
  H  H100  1  0.33743000  0.14540000  0.42452000  1
  H  H101  1  0.83743000  0.42452000  0.14540000  1
  H  H102  1  0.57925000  0.91844000  0.64898000  1
  H  H103  1  0.07925000  0.64898000  0.91844000  1
  H  H104  1  0.35045000  0.97343000  0.56649000  1
  H  H105  1  0.85045000  0.56649000  0.97343000  1
  H  H106  1  0.76582000  0.90806000  0.60738000  1
  H  H107  1  0.26582000  0.60738000  0.90806000  1
  H  H108  1  0.19121000  0.96665000  0.53985000  1
  H  H109  1  0.69121000  0.53985000  0.96665000  1
  H  H110  1  0.80879000  0.03335000  0.46015000  1
  H  H111  1  0.30879000  0.46015000  0.03335000  1
  H  H112  1  0.23418000  0.09194000  0.39262000  1
  H  H113  1  0.73418000  0.39262000  0.09194000  1
  H  H114  1  0.64955000  0.02657000  0.43351000  1
  H  H115  1  0.14955000  0.43351000  0.02657000  1
  H  H116  1  0.42075000  0.08156000  0.35102000  1
  H  H117  1  0.92075000  0.35102000  0.08156000  1
  H  H118  1  0.66257000  0.85460000  0.57548000  1
  H  H119  1  0.16257000  0.57548000  0.85460000  1
  H  H120  1  0.35683000  0.90312000  0.50394000  1
  H  H121  1  0.85683000  0.50394000  0.90312000  1
  H  H122  1  0.02867000  0.81899000  0.58511000  1
  H  H123  1  0.52867000  0.58511000  0.81899000  1
  H  H124  1  0.45781000  0.15150000  0.19500000  1
  H  H125  1  0.95781000  0.19500000  0.15150000  1
  H  H126  1  0.42774000  0.75413000  0.58857000  1
  H  H127  1  0.92774000  0.58857000  0.75413000  1
  H  H128  1  0.16718000  0.06910000  0.23010000  1
  H  H129  1  0.66718000  0.23010000  0.06910000  1
  H  H130  1  0.76190000  0.97100000  0.30020000  1
  H  H131  1  0.26190000  0.30020000  0.97100000  1
  H  H132  1  0.19338000  0.80829000  0.44571000  1
  H  H133  1  0.69338000  0.44571000  0.80829000  1
  H  H134  1  0.86269000  0.59644000  0.58012000  1
  H  H135  1  0.36269000  0.58012000  0.59644000  1
  H  H136  1  0.30759000  0.92004000  0.22494000  1
  H  H137  1  0.80759000  0.22494000  0.92004000  1
  H  H138  1  0.91242000  0.82396000  0.29948000  1
  H  H139  1  0.41242000  0.29948000  0.82396000  1
  H  H140  1  0.03238000  0.59346000  0.43444000  1
  H  H141  1  0.53238000  0.43444000  0.59346000  1
  N  N142  1  0.87560000  0.14160000  0.73720000  1
  N  N143  1  0.37560000  0.73720000  0.14160000  1
  N  N144  1  0.87470000  0.29810000  0.57670000  1
  N  N145  1  0.37470000  0.57670000  0.29810000  1
  N  N146  1  0.12530000  0.70190000  0.42330000  1
  N  N147  1  0.62530000  0.42330000  0.70190000  1
  N  N148  1  0.12440000  0.85840000  0.26280000  1
  N  N149  1  0.62440000  0.26280000  0.85840000  1
  O  O150  1  0.25000000  0.26250000  0.73750000  1
  O  O151  1  0.75000000  0.73750000  0.26250000  1
  O  O152  1  0.57090000  0.24740000  0.68040000  1
  O  O153  1  0.07090000  0.68040000  0.24740000  1
  O  O154  1  0.42910000  0.75260000  0.31960000  1
  O  O155  1  0.92910000  0.31960000  0.75260000  1
