# generated using pymatgen
data_NbFe2(CN)8
_symmetry_space_group_name_H-M   'P 1'
_cell_length_a   10.75498902
_cell_length_b   10.75510000
_cell_length_c   10.75510000
_cell_angle_alpha   104.04100000
_cell_angle_beta   112.25260311
_cell_angle_gamma   112.25260311
_symmetry_Int_Tables_number   1
_chemical_formula_structural   NbFe2(CN)8
_chemical_formula_sum   'Nb2 Fe4 C16 N16'
_cell_volume   951.30497663
_cell_formula_units_Z   2
loop_
 _symmetry_equiv_pos_site_id
 _symmetry_equiv_pos_as_xyz
  1  'x, y, z'
loop_
 _atom_site_type_symbol
 _atom_site_label
 _atom_site_symmetry_multiplicity
 _atom_site_fract_x
 _atom_site_fract_y
 _atom_site_fract_z
 _atom_site_occupancy
  Nb  Nb0  1  0.00000000  0.75036000  0.75036000  1
  Nb  Nb1  1  0.00000000  0.24964000  0.24964000  1
  Fe  Fe2  1  0.11028000  0.80115000  0.30913000  1
  Fe  Fe3  1  0.49202000  0.69087000  0.80115000  1
  Fe  Fe4  1  0.50798000  0.30913000  0.19885000  1
  Fe  Fe5  1  0.88972000  0.19885000  0.69087000  1
  C  C6  1  0.05260000  0.75699000  0.97619000  1
  C  C7  1  0.05260000  0.07641000  0.29561000  1
  C  C8  1  0.10181000  0.80958000  0.60959000  1
  C  C9  1  0.10181000  0.49222000  0.29223000  1
  C  C10  1  0.19999000  0.70777000  0.80958000  1
  C  C11  1  0.19999000  0.39041000  0.49222000  1
  C  C12  1  0.21920000  0.97619000  0.92359000  1
  C  C13  1  0.21920000  0.29561000  0.24301000  1
  C  C14  1  0.78080000  0.70439000  0.75699000  1
  C  C15  1  0.78080000  0.02381000  0.07641000  1
  C  C16  1  0.80001000  0.60959000  0.50778000  1
  C  C17  1  0.80001000  0.29223000  0.19042000  1
  C  C18  1  0.89819000  0.50778000  0.70777000  1
  C  C19  1  0.89819000  0.19042000  0.39041000  1
  C  C20  1  0.94740000  0.92359000  0.70439000  1
  C  C21  1  0.94740000  0.24301000  0.02381000  1
  N  N22  1  0.07173000  0.98349000  0.31542000  1
  N  N23  1  0.07173000  0.75631000  0.08824000  1
  N  N24  1  0.14165000  0.83522000  0.52915000  1
  N  N25  1  0.14165000  0.61250000  0.30643000  1
  N  N26  1  0.30607000  0.69357000  0.83522000  1
  N  N27  1  0.30607000  0.47085000  0.61250000  1
  N  N28  1  0.33193000  0.31542000  0.24369000  1
  N  N29  1  0.33193000  0.08824000  0.01651000  1
  N  N30  1  0.66807000  0.91176000  0.98349000  1
  N  N31  1  0.66807000  0.68458000  0.75631000  1
  N  N32  1  0.69393000  0.52915000  0.38750000  1
  N  N33  1  0.69393000  0.30643000  0.16478000  1
  N  N34  1  0.85835000  0.38750000  0.69357000  1
  N  N35  1  0.85835000  0.16478000  0.47085000  1
  N  N36  1  0.92827000  0.24369000  0.91176000  1
  N  N37  1  0.92827000  0.01651000  0.68458000  1
