# generated using pymatgen
data_ZnH3C8SO7
_symmetry_space_group_name_H-M   'P 1'
_cell_length_a   11.24990000
_cell_length_b   11.78880000
_cell_length_c   12.57536121
_cell_angle_alpha   90.00000000
_cell_angle_beta   94.33380613
_cell_angle_gamma   90.00000000
_symmetry_Int_Tables_number   1
_chemical_formula_structural   ZnH3C8SO7
_chemical_formula_sum   'Zn4 H12 C32 S4 O28'
_cell_volume   1663.01123107
_cell_formula_units_Z   4
loop_
 _symmetry_equiv_pos_site_id
 _symmetry_equiv_pos_as_xyz
  1  'x, y, z'
loop_
 _atom_site_type_symbol
 _atom_site_label
 _atom_site_symmetry_multiplicity
 _atom_site_fract_x
 _atom_site_fract_y
 _atom_site_fract_z
 _atom_site_occupancy
  Zn  Zn0  1  0.65924000  0.97352000  0.98257000  1
  Zn  Zn1  1  0.15924000  0.52648000  0.48257000  1
  Zn  Zn2  1  0.84076000  0.47352000  0.51743000  1
  Zn  Zn3  1  0.34077000  0.02648000  0.01744000  1
  H  H4  1  0.16180000  0.25920000  0.26330000  1
  H  H5  1  0.66180000  0.24080000  0.76330000  1
  H  H6  1  0.45570000  0.48780000  0.62030000  1
  H  H7  1  0.95570000  0.01220000  0.12030000  1
  H  H8  1  0.17650000  0.78790000  0.65410000  1
  H  H9  1  0.67650000  0.71210000  0.15410000  1
  H  H10  1  0.32350000  0.28790000  0.84590000  1
  H  H11  1  0.82350000  0.21210000  0.34590000  1
  H  H12  1  0.04430000  0.98780000  0.87970000  1
  H  H13  1  0.54430000  0.51220000  0.37970000  1
  H  H14  1  0.33820000  0.75920000  0.23670000  1
  H  H15  1  0.83820000  0.74080000  0.73670000  1
  C  C16  1  0.82436000  0.90438000  0.88056000  1
  C  C17  1  0.32436000  0.59562000  0.38056000  1
  C  C18  1  0.57415000  0.36988000  0.68305000  1
  C  C19  1  0.07415000  0.13012000  0.18305000  1
  C  C20  1  0.58823000  0.28057000  0.75518000  1
  C  C21  1  0.08823000  0.21943000  0.25518000  1
  C  C22  1  0.46619000  0.42766000  0.67039000  1
  C  C23  1  0.96619000  0.07234000  0.17039000  1
  C  C24  1  0.99478000  0.25073000  0.31548000  1
  C  C25  1  0.49478000  0.24927000  0.81548000  1
  C  C26  1  0.37370000  0.39648000  0.73180000  1
  C  C27  1  0.87370000  0.10352000  0.23180000  1
  C  C28  1  0.00876000  0.34813000  0.39136000  1
  C  C29  1  0.50876000  0.15187000  0.89136000  1
  C  C30  1  0.38719000  0.30820000  0.80419000  1
  C  C31  1  0.88719000  0.19180000  0.30419000  1
  C  C32  1  0.11281000  0.80820000  0.69581000  1
  C  C33  1  0.61281000  0.69180000  0.19581000  1
  C  C34  1  0.49124000  0.84813000  0.10864000  1
  C  C35  1  0.99124000  0.65187000  0.60864000  1
  C  C36  1  0.12630000  0.89648000  0.76820000  1
  C  C37  1  0.62630000  0.60352000  0.26820000  1
  C  C38  1  0.50522000  0.75073000  0.18452000  1
  C  C39  1  0.00522000  0.74927000  0.68452000  1
  C  C40  1  0.03381000  0.92766000  0.82961000  1
  C  C41  1  0.53381000  0.57234000  0.32961000  1
  C  C42  1  0.91177000  0.78057000  0.74482000  1
  C  C43  1  0.41177000  0.71943000  0.24482000  1
  C  C44  1  0.92585000  0.86988000  0.81695000  1
  C  C45  1  0.42585000  0.63012000  0.31695000  1
  C  C46  1  0.67564000  0.40438000  0.61944000  1
  C  C47  1  0.17564000  0.09562000  0.11944000  1
  S  S48  1  0.23718000  0.47259000  0.71493000  1
  S  S49  1  0.73718000  0.02741000  0.21493000  1
  S  S50  1  0.26282000  0.97259000  0.78507000  1
  S  S51  1  0.76282000  0.52741000  0.28507000  1
  O  O52  1  0.83818000  0.98598000  0.94495000  1
  O  O53  1  0.33818000  0.51402000  0.44495000  1
  O  O54  1  0.72763000  0.85234000  0.86894000  1
  O  O55  1  0.22763000  0.64766000  0.36894000  1
  O  O56  1  0.08834000  0.42029000  0.37447000  1
  O  O57  1  0.58834000  0.07971000  0.87447000  1
  O  O58  1  0.32995000  0.94442000  0.69573000  1
  O  O59  1  0.82995000  0.55558000  0.19573000  1
  O  O60  1  0.17804000  0.42907000  0.61406000  1
  O  O61  1  0.67804000  0.07093000  0.11406000  1
  O  O62  1  0.76861000  0.91011000  0.20631000  1
  O  O63  1  0.26861000  0.58989000  0.70631000  1
  O  O64  1  0.55891000  0.85144000  0.03377000  1
  O  O65  1  0.05891000  0.64856000  0.53377000  1
  O  O66  1  0.94109000  0.35144000  0.46623000  1
  O  O67  1  0.44109000  0.14856000  0.96623000  1
  O  O68  1  0.73139000  0.41011000  0.29369000  1
  O  O69  1  0.23139000  0.08989000  0.79369000  1
  O  O70  1  0.32196000  0.92907000  0.88594000  1
  O  O71  1  0.82196000  0.57093000  0.38594000  1
  O  O72  1  0.17005000  0.44442000  0.80427000  1
  O  O73  1  0.67005000  0.05558000  0.30427000  1
  O  O74  1  0.41166000  0.92029000  0.12553000  1
  O  O75  1  0.91166000  0.57971000  0.62553000  1
  O  O76  1  0.77237000  0.35234000  0.63106000  1
  O  O77  1  0.27237000  0.14766000  0.13106000  1
  O  O78  1  0.66182000  0.48598000  0.55505000  1
  O  O79  1  0.16182000  0.01402000  0.05505000  1
