# generated using pymatgen
data_DyH9C18(NO2)3
_symmetry_space_group_name_H-M   'P 1'
_cell_length_a   13.66050000
_cell_length_b   15.01030000
_cell_length_c   18.53450000
_cell_angle_alpha   69.05100000
_cell_angle_beta   71.14500000
_cell_angle_gamma   65.01400000
_symmetry_Int_Tables_number   1
_chemical_formula_structural   DyH9C18(NO2)3
_chemical_formula_sum   'Dy4 H36 C72 N12 O24'
_cell_volume   3149.85008787
_cell_formula_units_Z   4
loop_
 _symmetry_equiv_pos_site_id
 _symmetry_equiv_pos_as_xyz
  1  'x, y, z'
loop_
 _atom_site_type_symbol
 _atom_site_label
 _atom_site_symmetry_multiplicity
 _atom_site_fract_x
 _atom_site_fract_y
 _atom_site_fract_z
 _atom_site_occupancy
  Dy  Dy0  1  0.15214000  0.50291000  0.86236000  1
  Dy  Dy1  1  0.37001000  0.49616000  0.63014000  1
  Dy  Dy2  1  0.62999000  0.50384000  0.36986000  1
  Dy  Dy3  1  0.84786000  0.49709000  0.13764000  1
  H  H4  1  0.06230000  0.18660000  0.16550000  1
  H  H5  1  0.06940000  0.75100000  0.54000000  1
  H  H6  1  0.10010000  0.28070000  0.23700000  1
  H  H7  1  0.13090000  0.20460000  0.86050000  1
  H  H8  1  0.13170000  0.94280000  0.52080000  1
  H  H9  1  0.13560000  0.05330000  0.85090000  1
  H  H10  1  0.16580000  0.76910000  0.84040000  1
  H  H11  1  0.22900000  0.12120000  0.27880000  1
  H  H12  1  0.24650000  0.77370000  0.54800000  1
  H  H13  1  0.24690000  0.23710000  0.95110000  1
  H  H14  1  0.29120000  0.90030000  0.23400000  1
  H  H15  1  0.32740000  0.24210000  0.64560000  1
  H  H16  1  0.34740000  0.96520000  0.63240000  1
  H  H17  1  0.35890000  0.06550000  0.97900000  1
  H  H18  1  0.36620000  0.80680000  0.62840000  1
  H  H19  1  0.41980000  0.73860000  0.26850000  1
  H  H20  1  0.44480000  0.23770000  0.96220000  1
  H  H21  1  0.45570000  0.84460000  0.34970000  1
  H  H22  1  0.54430000  0.15540000  0.65030000  1
  H  H23  1  0.55520000  0.76230000  0.03780000  1
  H  H24  1  0.58020000  0.26140000  0.73150000  1
  H  H25  1  0.63380000  0.19320000  0.37160000  1
  H  H26  1  0.64110000  0.93450000  0.02100000  1
  H  H27  1  0.65260000  0.03480000  0.36760000  1
  H  H28  1  0.67260000  0.75790000  0.35440000  1
  H  H29  1  0.70880000  0.09970000  0.76600000  1
  H  H30  1  0.75310000  0.76290000  0.04890000  1
  H  H31  1  0.75350000  0.22630000  0.45200000  1
  H  H32  1  0.77100000  0.87880000  0.72120000  1
  H  H33  1  0.83420000  0.23090000  0.15960000  1
  H  H34  1  0.86440000  0.94670000  0.14910000  1
  H  H35  1  0.86830000  0.05720000  0.47920000  1
  H  H36  1  0.86910000  0.79540000  0.13950000  1
  H  H37  1  0.89990000  0.71930000  0.76300000  1
  H  H38  1  0.93060000  0.24900000  0.46000000  1
  H  H39  1  0.93770000  0.81340000  0.83450000  1
  C  C40  1  0.00120000  0.72080000  0.65560000  1
  C  C41  1  0.00940000  0.77800000  0.57720000  1
  C  C42  1  0.07570000  0.34230000  0.04420000  1
  C  C43  1  0.09020000  0.24300000  0.28930000  1
  C  C44  1  0.09610000  0.62490000  0.68180000  1
  C  C45  1  0.12400000  0.16280000  0.12800000  1
  C  C46  1  0.14450000  0.22990000  0.05780000  1
  C  C47  1  0.15210000  0.09340000  0.39280000  1
  C  C48  1  0.16680000  0.14820000  0.31470000  1
  C  C49  1  0.17160000  0.18170000  0.81560000  1
  C  C50  1  0.17470000  0.09120000  0.81040000  1
  C  C51  1  0.19770000  0.92080000  0.48590000  1
  C  C52  1  0.20240000  0.80830000  0.79880000  1
  C  C53  1  0.22420000  0.33940000  0.75880000  1
  C  C54  1  0.22820000  0.98820000  0.41850000  1
  C  C55  1  0.22950000  0.23980000  0.75360000  1
  C  C56  1  0.23250000  0.19360000  0.00040000  1
  C  C57  1  0.23720000  0.05830000  0.74380000  1
  C  C58  1  0.24500000  0.96030000  0.73990000  1
  C  C59  1  0.26520000  0.82000000  0.50180000  1
  C  C60  1  0.27040000  0.76990000  0.73530000  1
  C  C61  1  0.27560000  0.03040000  0.09100000  1
  C  C62  1  0.28600000  0.66600000  0.73250000  1
  C  C63  1  0.28980000  0.20380000  0.68710000  1
  C  C64  1  0.29960000  0.09160000  0.01690000  1
  C  C65  1  0.31150000  0.92560000  0.67410000  1
  C  C66  1  0.32280000  0.83090000  0.67240000  1
  C  C67  1  0.34590000  0.87120000  0.19540000  1
  C  C68  1  0.35150000  0.92450000  0.11520000  1
  C  C69  1  0.36180000  0.78950000  0.44750000  1
  C  C70  1  0.38810000  0.86360000  0.38400000  1
  C  C71  1  0.40590000  0.36730000  0.82390000  1
  C  C72  1  0.42250000  0.77540000  0.21600000  1
  C  C73  1  0.43530000  0.67830000  0.45600000  1
  C  C74  1  0.49520000  0.26550000  0.84430000  1
  C  C75  1  0.49690000  0.20920000  0.92230000  1
  C  C76  1  0.50310000  0.79080000  0.07770000  1
  C  C77  1  0.50480000  0.73450000  0.15570000  1
  C  C78  1  0.56470000  0.32170000  0.54400000  1
  C  C79  1  0.57750000  0.22460000  0.78400000  1
  C  C80  1  0.59410000  0.63270000  0.17610000  1
  C  C81  1  0.61190000  0.13640000  0.61600000  1
  C  C82  1  0.63820000  0.21050000  0.55250000  1
  C  C83  1  0.64850000  0.07550000  0.88480000  1
  C  C84  1  0.65410000  0.12880000  0.80460000  1
  C  C85  1  0.67720000  0.16910000  0.32760000  1
  C  C86  1  0.68850000  0.07440000  0.32590000  1
  C  C87  1  0.70040000  0.90840000  0.98310000  1
  C  C88  1  0.71020000  0.79620000  0.31290000  1
  C  C89  1  0.71400000  0.33400000  0.26750000  1
  C  C90  1  0.72440000  0.96960000  0.90900000  1
  C  C91  1  0.72960000  0.23010000  0.26470000  1
  C  C92  1  0.73480000  0.18000000  0.49820000  1
  C  C93  1  0.75500000  0.03970000  0.26010000  1
  C  C94  1  0.76280000  0.94170000  0.25620000  1
  C  C95  1  0.76750000  0.80640000  0.99960000  1
  C  C96  1  0.77050000  0.76020000  0.24640000  1
  C  C97  1  0.77180000  0.01180000  0.58150000  1
  C  C98  1  0.77580000  0.66060000  0.24120000  1
  C  C99  1  0.79760000  0.19170000  0.20120000  1
  C  C100  1  0.80230000  0.07920000  0.51410000  1
  C  C101  1  0.82530000  0.90880000  0.18960000  1
  C  C102  1  0.82840000  0.81830000  0.18440000  1
  C  C103  1  0.83320000  0.85180000  0.68530000  1
  C  C104  1  0.84790000  0.90660000  0.60720000  1
  C  C105  1  0.85550000  0.77010000  0.94220000  1
  C  C106  1  0.87600000  0.83720000  0.87200000  1
  C  C107  1  0.90390000  0.37510000  0.31820000  1
  C  C108  1  0.90980000  0.75700000  0.71070000  1
  C  C109  1  0.92430000  0.65770000  0.95580000  1
  C  C110  1  0.99060000  0.22200000  0.42280000  1
  C  C111  1  0.99880000  0.27920000  0.34440000  1
  N  N112  1  0.06460000  0.12960000  0.44780000  1
  N  N113  1  0.18730000  0.06420000  0.14630000  1
  N  N114  1  0.18790000  0.90450000  0.80160000  1
  N  N115  1  0.29530000  0.11280000  0.68120000  1
  N  N116  1  0.32360000  0.96080000  0.36820000  1
  N  N117  1  0.42940000  0.88450000  0.05760000  1
  N  N118  1  0.57060000  0.11550000  0.94240000  1
  N  N119  1  0.67640000  0.03920000  0.63180000  1
  N  N120  1  0.70470000  0.88720000  0.31880000  1
  N  N121  1  0.81210000  0.09550000  0.19840000  1
  N  N122  1  0.81270000  0.93580000  0.85370000  1
  N  N123  1  0.93540000  0.87040000  0.55220000  1
  O  O124  1  0.01140000  0.37240000  0.10310000  1
  O  O125  1  0.07720000  0.57050000  0.75080000  1
  O  O126  1  0.09110000  0.39720000  0.97650000  1
  O  O127  1  0.17720000  0.36210000  0.82300000  1
  O  O128  1  0.18570000  0.60870000  0.63390000  1
  O  O129  1  0.22900000  0.62080000  0.78740000  1
  O  O130  1  0.26680000  0.39120000  0.69880000  1
  O  O131  1  0.32990000  0.39440000  0.87950000  1
  O  O132  1  0.35260000  0.63420000  0.67530000  1
  O  O133  1  0.40660000  0.61360000  0.51440000  1
  O  O134  1  0.41250000  0.41720000  0.75400000  1
  O  O135  1  0.48270000  0.34040000  0.59820000  1
  O  O136  1  0.51730000  0.65960000  0.40180000  1
  O  O137  1  0.58750000  0.58280000  0.24600000  1
  O  O138  1  0.59340000  0.38640000  0.48560000  1
  O  O139  1  0.64740000  0.36580000  0.32470000  1
  O  O140  1  0.67010000  0.60560000  0.12050000  1
  O  O141  1  0.73320000  0.60880000  0.30120000  1
  O  O142  1  0.77100000  0.37920000  0.21260000  1
  O  O143  1  0.81430000  0.39130000  0.36610000  1
  O  O144  1  0.82280000  0.63790000  0.17700000  1
  O  O145  1  0.90890000  0.60280000  0.02350000  1
  O  O146  1  0.92280000  0.42950000  0.24920000  1
  O  O147  1  0.98860000  0.62760000  0.89690000  1
