# generated using pymatgen
data_AgH6(C2N)4
_symmetry_space_group_name_H-M   'P 1'
_cell_length_a   8.99868263
_cell_length_b   8.99868263
_cell_length_c   9.76494199
_cell_angle_alpha   103.88316909
_cell_angle_beta   103.88316909
_cell_angle_gamma   118.63648332
_symmetry_Int_Tables_number   1
_chemical_formula_structural   AgH6(C2N)4
_chemical_formula_sum   'Ag2 H12 C16 N8'
_cell_volume   612.49079582
_cell_formula_units_Z   2
loop_
 _symmetry_equiv_pos_site_id
 _symmetry_equiv_pos_as_xyz
  1  'x, y, z'
loop_
 _atom_site_type_symbol
 _atom_site_label
 _atom_site_symmetry_multiplicity
 _atom_site_fract_x
 _atom_site_fract_y
 _atom_site_fract_z
 _atom_site_occupancy
  Ag  Ag0  1  0.99992000  0.00008000  0.00000000  1
  Ag  Ag1  1  0.24992000  0.75008000  0.50000000  1
  C  C2  1  0.79230000  0.57050000  0.97760000  1
  C  C3  1  0.56020000  0.25580000  0.95820000  1
  C  C4  1  0.50330000  0.13130000  0.81340000  1
  C  C5  1  0.22440000  0.93340000  0.81140000  1
  C  C6  1  0.66300000  0.87200000  0.68860000  1
  C  C7  1  0.93990000  0.06790000  0.68660000  1
  C  C8  1  0.85200000  0.04760000  0.54180000  1
  C  C9  1  0.06470000  0.34290000  0.52240000  1
  C  C10  1  0.65710000  0.93530000  0.47760000  1
  C  C11  1  0.95240000  0.14800000  0.45820000  1
  C  C12  1  0.93210000  0.06010000  0.31340000  1
  C  C13  1  0.12800000  0.33700000  0.31140000  1
  C  C14  1  0.06660000  0.77560000  0.18860000  1
  C  C15  1  0.86870000  0.49670000  0.18660000  1
  C  C16  1  0.74420000  0.43980000  0.04180000  1
  C  C17  1  0.42950000  0.20770000  0.02240000  1
  H  H18  1  0.71000000  0.53920000  0.88020000  1
  H  H19  1  0.58360000  0.16200000  0.76440000  1
  H  H20  1  0.10900000  0.81920000  0.76140000  1
  H  H21  1  0.59756667  0.80776667  0.73860000  1
  H  H22  1  0.06920000  0.14760000  0.73560000  1
  H  H23  1  0.07980000  0.40900000  0.61980000  1
  H  H24  1  0.59100000  0.92020000  0.38020000  1
  H  H25  1  0.85240000  0.93080000  0.26440000  1
  H  H26  1  0.19220000  0.40240000  0.26140000  1
  H  H27  1  0.18080000  0.89100000  0.23860000  1
  H  H28  1  0.83800000  0.41640000  0.23560000  1
  H  H29  1  0.46080000  0.29000000  0.11980000  1
  N  N30  1  0.26246000  0.04786000  0.94832000  1
  N  N31  1  0.84960000  0.97940000  0.76160000  1
  N  N32  1  0.33800000  0.96780000  0.73840000  1
  N  N33  1  0.56414000  0.84954000  0.55168000  1
  N  N34  1  0.15046000  0.43586000  0.44832000  1
  N  N35  1  0.03220000  0.66200000  0.26160000  1
  N  N36  1  0.02060000  0.15040000  0.23840000  1
  N  N37  1  0.95214000  0.73754000  0.05168000  1
