# generated using pymatgen
data_InH4(C3O2)4
_symmetry_space_group_name_H-M   'P 1'
_cell_length_a   17.66960292
_cell_length_b   17.66960292
_cell_length_c   17.66960292
_cell_angle_alpha   109.47122063
_cell_angle_beta   109.47122063
_cell_angle_gamma   109.47122063
_symmetry_Int_Tables_number   1
_chemical_formula_structural   InH4(C3O2)4
_chemical_formula_sum   'In6 H24 C72 O48'
_cell_volume   4246.76743808
_cell_formula_units_Z   6
loop_
 _symmetry_equiv_pos_site_id
 _symmetry_equiv_pos_as_xyz
  1  'x, y, z'
loop_
 _atom_site_type_symbol
 _atom_site_label
 _atom_site_symmetry_multiplicity
 _atom_site_fract_x
 _atom_site_fract_y
 _atom_site_fract_z
 _atom_site_occupancy
  C  C0  1  0.03540000  0.90620000  0.93260000  1
  C  C1  1  0.97360000  0.60280000  0.56740000  1
  C  C2  1  0.42610000  0.95280000  0.35950000  1
  C  C3  1  0.59330000  0.56660000  0.14050000  1
  C  C4  1  0.16960000  0.05410000  0.19410000  1
  C  C5  1  0.86000000  0.47550000  0.30590000  1
  C  C6  1  0.12920000  0.02640000  0.09380000  1
  C  C7  1  0.93260000  0.53540000  0.40620000  1
  C  C8  1  0.52450000  0.88450000  0.33040000  1
  C  C9  1  0.55410000  0.69410000  0.16960000  1
  C  C10  1  0.06660000  0.64050000  0.59330000  1
  C  C11  1  0.04720000  0.97330000  0.90670000  1
  C  C12  1  0.14050000  0.09330000  0.06660000  1
  C  C13  1  0.02670000  0.57390000  0.43340000  1
  C  C14  1  0.36000000  0.30590000  0.47550000  1
  C  C15  1  0.83040000  0.38450000  0.02450000  1
  C  C16  1  0.10280000  0.06740000  0.97360000  1
  C  C17  1  0.09380000  0.62920000  0.52640000  1
  C  C18  1  0.43260000  0.40620000  0.53540000  1
  C  C19  1  0.87080000  0.39720000  0.96460000  1
  C  C20  1  0.19410000  0.66960000  0.55410000  1
  C  C21  1  0.11550000  0.14000000  0.94590000  1
  C  C22  1  0.40670000  0.47330000  0.54720000  1
  C  C23  1  0.92610000  0.35950000  0.95280000  1
  C  C24  1  0.52670000  0.43340000  0.57390000  1
  C  C25  1  0.85950000  0.45280000  0.92610000  1
  C  C26  1  0.61550000  0.94590000  0.14000000  1
  C  C27  1  0.80590000  0.97550000  0.36000000  1
  C  C28  1  0.47360000  0.56740000  0.60280000  1
  C  C29  1  0.96460000  0.37080000  0.89720000  1
  C  C30  1  0.44590000  0.64000000  0.61550000  1
  C  C31  1  0.02450000  0.33040000  0.88450000  1
  C  C32  1  0.54720000  0.90670000  0.97330000  1
  C  C33  1  0.93340000  0.07390000  0.52670000  1
  C  C34  1  0.59380000  0.52640000  0.62920000  1
  C  C35  1  0.89720000  0.46460000  0.87080000  1
  C  C36  1  0.60280000  0.97360000  0.06740000  1
  C  C37  1  0.90620000  0.03540000  0.43260000  1
  C  C38  1  0.56660000  0.59330000  0.64050000  1
  C  C39  1  0.95280000  0.42610000  0.85950000  1
  C  C40  1  0.47550000  0.86000000  0.80590000  1
  C  C41  1  0.05410000  0.16960000  0.69410000  1
  C  C42  1  0.53540000  0.93260000  0.90620000  1
  C  C43  1  0.02640000  0.12920000  0.59380000  1
  C  C44  1  0.69410000  0.55410000  0.66960000  1
  C  C45  1  0.88450000  0.52450000  0.83040000  1
  C  C46  1  0.64050000  0.06660000  0.09330000  1
  C  C47  1  0.97330000  0.04720000  0.40670000  1
  C  C48  1  0.57390000  0.02670000  0.93340000  1
  C  C49  1  0.09330000  0.14050000  0.56660000  1
  C  C50  1  0.38450000  0.83040000  0.52450000  1
  C  C51  1  0.30590000  0.36000000  0.97550000  1
  C  C52  1  0.62920000  0.09380000  0.02640000  1
  C  C53  1  0.06740000  0.10280000  0.47360000  1
  C  C54  1  0.40620000  0.43260000  0.03540000  1
  C  C55  1  0.39720000  0.87080000  0.46460000  1
  C  C56  1  0.66960000  0.19410000  0.05410000  1
  C  C57  1  0.14000000  0.11550000  0.44590000  1
  C  C58  1  0.47330000  0.40670000  0.04720000  1
  C  C59  1  0.35950000  0.92610000  0.45280000  1
  C  C60  1  0.45280000  0.85950000  0.42610000  1
  C  C61  1  0.43340000  0.52670000  0.07390000  1
  C  C62  1  0.94590000  0.61550000  0.64000000  1
  C  C63  1  0.97550000  0.80590000  0.86000000  1
  C  C64  1  0.56740000  0.47360000  0.10280000  1
  C  C65  1  0.37080000  0.96460000  0.39720000  1
  C  C66  1  0.64000000  0.44590000  0.11550000  1
  C  C67  1  0.33040000  0.02450000  0.38450000  1
  C  C68  1  0.90670000  0.54720000  0.47330000  1
  C  C69  1  0.07390000  0.93340000  0.02670000  1
  C  C70  1  0.52640000  0.59380000  0.12920000  1
  C  C71  1  0.46460000  0.89720000  0.37080000  1
  H  H72  1  0.43760000  0.98210000  0.32630000  1
  H  H73  1  0.65580000  0.61130000  0.17370000  1
  H  H74  1  0.11130000  0.67370000  0.65580000  1
  H  H75  1  0.01790000  0.95550000  0.84420000  1
  H  H76  1  0.17370000  0.15580000  0.11130000  1
  H  H77  1  0.04450000  0.56240000  0.38870000  1
  H  H78  1  0.34420000  0.45550000  0.51790000  1
  H  H79  1  0.93760000  0.32630000  0.98210000  1
  H  H80  1  0.54450000  0.38870000  0.56240000  1
  H  H81  1  0.82630000  0.48210000  0.93760000  1
  H  H82  1  0.51790000  0.84420000  0.95550000  1
  H  H83  1  0.88870000  0.06240000  0.54450000  1
  H  H84  1  0.61130000  0.65580000  0.67370000  1
  H  H85  1  0.98210000  0.43760000  0.82630000  1
  H  H86  1  0.67370000  0.11130000  0.15580000  1
  H  H87  1  0.95550000  0.01790000  0.34420000  1
  H  H88  1  0.56240000  0.04450000  0.88870000  1
  H  H89  1  0.15580000  0.17370000  0.61130000  1
  H  H90  1  0.45550000  0.34420000  0.01790000  1
  H  H91  1  0.32630000  0.93760000  0.48210000  1
  H  H92  1  0.48210000  0.82630000  0.43760000  1
  H  H93  1  0.38870000  0.54450000  0.06240000  1
  H  H94  1  0.84420000  0.51790000  0.45550000  1
  H  H95  1  0.06240000  0.88870000  0.04450000  1
  In  In96  1  0.25000000  0.12500000  0.37500000  1
  In  In97  1  0.75000000  0.37500000  0.12500000  1
  In  In98  1  0.62500000  0.87500000  0.25000000  1
  In  In99  1  0.37500000  0.75000000  0.62500000  1
  In  In100  1  0.12500000  0.25000000  0.87500000  1
  In  In101  1  0.87500000  0.62500000  0.75000000  1
  O  O102  1  0.49550000  0.71840000  0.15010000  1
  O  O103  1  0.56830000  0.84540000  0.34990000  1
  O  O104  1  0.34990000  0.06830000  0.34540000  1
  O  O105  1  0.72290000  0.50450000  0.15460000  1
  O  O106  1  0.22180000  0.13990000  0.25370000  1
  O  O107  1  0.88620000  0.46810000  0.24630000  1
  O  O108  1  0.27710000  0.28160000  0.43170000  1
  O  O109  1  0.84990000  0.34540000  0.06830000  1
  O  O110  1  0.38620000  0.24630000  0.46810000  1
  O  O111  1  0.77820000  0.41810000  0.03190000  1
  O  O112  1  0.53190000  0.91810000  0.27820000  1
  O  O113  1  0.63990000  0.75370000  0.22180000  1
  O  O114  1  0.58190000  0.86010000  0.11380000  1
  O  O115  1  0.74630000  0.96810000  0.38620000  1
  O  O116  1  0.25370000  0.72180000  0.63990000  1
  O  O117  1  0.08190000  0.11380000  0.86010000  1
  O  O118  1  0.21840000  0.65010000  0.49550000  1
  O  O119  1  0.15460000  0.22290000  0.00450000  1
  O  O120  1  0.36010000  0.61380000  0.58190000  1
  O  O121  1  0.03190000  0.27820000  0.91810000  1
  O  O122  1  0.43170000  0.77710000  0.78160000  1
  O  O123  1  0.99550000  0.15010000  0.71840000  1
  O  O124  1  0.65460000  0.00450000  0.22290000  1
  O  O125  1  0.78160000  0.93170000  0.27710000  1
  O  O126  1  0.71840000  0.49550000  0.65010000  1
  O  O127  1  0.84540000  0.56830000  0.84990000  1
  O  O128  1  0.50450000  0.72290000  0.65460000  1
  O  O129  1  0.06830000  0.34990000  0.84540000  1
  O  O130  1  0.46810000  0.88620000  0.74630000  1
  O  O131  1  0.13990000  0.22180000  0.75370000  1
  O  O132  1  0.34540000  0.84990000  0.56830000  1
  O  O133  1  0.28160000  0.27710000  0.93170000  1
  O  O134  1  0.41810000  0.77820000  0.53190000  1
  O  O135  1  0.24630000  0.38620000  0.96810000  1
  O  O136  1  0.75370000  0.63990000  0.72180000  1
  O  O137  1  0.91810000  0.53190000  0.77820000  1
  O  O138  1  0.86010000  0.58190000  0.61380000  1
  O  O139  1  0.96810000  0.74630000  0.88620000  1
  O  O140  1  0.72180000  0.25370000  0.13990000  1
  O  O141  1  0.11380000  0.08190000  0.36010000  1
  O  O142  1  0.65010000  0.21840000  0.99550000  1
  O  O143  1  0.22290000  0.15460000  0.50450000  1
  O  O144  1  0.61380000  0.36010000  0.08190000  1
  O  O145  1  0.27820000  0.03190000  0.41810000  1
  O  O146  1  0.77710000  0.43170000  0.28160000  1
  O  O147  1  0.15010000  0.99550000  0.21840000  1
  O  O148  1  0.93170000  0.78160000  0.77710000  1
  O  O149  1  0.00450000  0.65460000  0.72290000  1
