# generated using pymatgen
data_Ni3H9C24N3O13
_symmetry_space_group_name_H-M   'P 1'
_cell_length_a   22.11520000
_cell_length_b   22.11520000
_cell_length_c   22.11520000
_cell_angle_alpha   90.00000000
_cell_angle_beta   90.00000000
_cell_angle_gamma   90.00000000
_symmetry_Int_Tables_number   1
_chemical_formula_structural   Ni3H9C24N3O13
_chemical_formula_sum   'Ni24 H72 C192 N24 O104'
_cell_volume   10816.14781746
_cell_formula_units_Z   8
loop_
 _symmetry_equiv_pos_site_id
 _symmetry_equiv_pos_as_xyz
  1  'x, y, z'
loop_
 _atom_site_type_symbol
 _atom_site_label
 _atom_site_symmetry_multiplicity
 _atom_site_fract_x
 _atom_site_fract_y
 _atom_site_fract_z
 _atom_site_occupancy
  Ni  Ni0  1  0.17772000  0.23945000  0.30666000  1
  Ni  Ni1  1  0.17772000  0.76055000  0.69334000  1
  Ni  Ni2  1  0.19334000  0.26055000  0.67772000  1
  Ni  Ni3  1  0.19334000  0.73945000  0.32228000  1
  Ni  Ni4  1  0.23945000  0.30666000  0.17772000  1
  Ni  Ni5  1  0.23945000  0.69334000  0.82228000  1
  Ni  Ni6  1  0.26055000  0.32228000  0.80666000  1
  Ni  Ni7  1  0.26055000  0.67772000  0.19334000  1
  Ni  Ni8  1  0.30666000  0.17772000  0.23945000  1
  Ni  Ni9  1  0.30666000  0.82228000  0.76055000  1
  Ni  Ni10  1  0.32228000  0.19334000  0.73945000  1
  Ni  Ni11  1  0.32228000  0.80666000  0.26055000  1
  Ni  Ni12  1  0.67772000  0.19334000  0.26055000  1
  Ni  Ni13  1  0.67772000  0.80666000  0.73945000  1
  Ni  Ni14  1  0.69334000  0.17772000  0.76055000  1
  Ni  Ni15  1  0.69334000  0.82228000  0.23945000  1
  Ni  Ni16  1  0.73945000  0.32228000  0.19334000  1
  Ni  Ni17  1  0.73945000  0.67772000  0.80666000  1
  Ni  Ni18  1  0.76055000  0.30666000  0.82228000  1
  Ni  Ni19  1  0.76055000  0.69334000  0.17772000  1
  Ni  Ni20  1  0.80666000  0.26055000  0.32228000  1
  Ni  Ni21  1  0.80666000  0.73945000  0.67772000  1
  Ni  Ni22  1  0.82228000  0.23945000  0.69334000  1
  Ni  Ni23  1  0.82228000  0.76055000  0.30666000  1
  H  H24  1  0.00840000  0.27920000  0.75600000  1
  H  H25  1  0.00840000  0.72080000  0.24400000  1
  H  H26  1  0.07490000  0.28800000  0.08410000  1
  H  H27  1  0.07490000  0.71200000  0.91590000  1
  H  H28  1  0.08410000  0.07490000  0.28800000  1
  H  H29  1  0.08410000  0.92510000  0.71200000  1
  H  H30  1  0.09170000  0.10580000  0.69850000  1
  H  H31  1  0.09170000  0.89420000  0.30150000  1
  H  H32  1  0.10580000  0.30150000  0.90830000  1
  H  H33  1  0.10580000  0.69850000  0.09170000  1
  H  H34  1  0.19850000  0.39420000  0.40830000  1
  H  H35  1  0.19850000  0.60580000  0.59170000  1
  H  H36  1  0.21200000  0.42510000  0.58410000  1
  H  H37  1  0.21200000  0.57490000  0.41590000  1
  H  H38  1  0.22080000  0.49160000  0.25600000  1
  H  H39  1  0.22080000  0.50840000  0.74400000  1
  H  H40  1  0.24400000  0.00840000  0.72080000  1
  H  H41  1  0.24400000  0.99160000  0.27920000  1
  H  H42  1  0.25600000  0.22080000  0.49160000  1
  H  H43  1  0.25600000  0.77920000  0.50840000  1
  H  H44  1  0.27920000  0.24400000  0.99160000  1
  H  H45  1  0.27920000  0.75600000  0.00840000  1
  H  H46  1  0.28800000  0.08410000  0.07490000  1
  H  H47  1  0.28800000  0.91590000  0.92510000  1
  H  H48  1  0.30150000  0.09170000  0.89420000  1
  H  H49  1  0.30150000  0.90830000  0.10580000  1
  H  H50  1  0.39420000  0.40830000  0.19850000  1
  H  H51  1  0.39420000  0.59170000  0.80150000  1
  H  H52  1  0.40830000  0.19850000  0.39420000  1
  H  H53  1  0.40830000  0.80150000  0.60580000  1
  H  H54  1  0.41590000  0.21200000  0.57490000  1
  H  H55  1  0.41590000  0.78800000  0.42510000  1
  H  H56  1  0.42510000  0.41590000  0.78800000  1
  H  H57  1  0.42510000  0.58410000  0.21200000  1
  H  H58  1  0.49160000  0.25600000  0.22080000  1
  H  H59  1  0.49160000  0.74400000  0.77920000  1
  H  H60  1  0.50840000  0.25600000  0.77920000  1
  H  H61  1  0.50840000  0.74400000  0.22080000  1
  H  H62  1  0.57490000  0.41590000  0.21200000  1
  H  H63  1  0.57490000  0.58410000  0.78800000  1
  H  H64  1  0.58410000  0.21200000  0.42510000  1
  H  H65  1  0.58410000  0.78800000  0.57490000  1
  H  H66  1  0.59170000  0.19850000  0.60580000  1
  H  H67  1  0.59170000  0.80150000  0.39420000  1
  H  H68  1  0.60580000  0.40830000  0.80150000  1
  H  H69  1  0.60580000  0.59170000  0.19850000  1
  H  H70  1  0.69850000  0.09170000  0.10580000  1
  H  H71  1  0.69850000  0.90830000  0.89420000  1
  H  H72  1  0.71200000  0.08410000  0.92510000  1
  H  H73  1  0.71200000  0.91590000  0.07490000  1
  H  H74  1  0.72080000  0.24400000  0.00840000  1
  H  H75  1  0.72080000  0.75600000  0.99160000  1
  H  H76  1  0.74400000  0.22080000  0.50840000  1
  H  H77  1  0.74400000  0.77920000  0.49160000  1
  H  H78  1  0.75600000  0.00840000  0.27920000  1
  H  H79  1  0.75600000  0.99160000  0.72080000  1
  H  H80  1  0.77920000  0.49160000  0.74400000  1
  H  H81  1  0.77920000  0.50840000  0.25600000  1
  H  H82  1  0.78800000  0.42510000  0.41590000  1
  H  H83  1  0.78800000  0.57490000  0.58410000  1
  H  H84  1  0.80150000  0.39420000  0.59170000  1
  H  H85  1  0.80150000  0.60580000  0.40830000  1
  H  H86  1  0.89420000  0.30150000  0.09170000  1
  H  H87  1  0.89420000  0.69850000  0.90830000  1
  H  H88  1  0.90830000  0.10580000  0.30150000  1
  H  H89  1  0.90830000  0.89420000  0.69850000  1
  H  H90  1  0.91590000  0.07490000  0.71200000  1
  H  H91  1  0.91590000  0.92510000  0.28800000  1
  H  H92  1  0.92510000  0.28800000  0.91590000  1
  H  H93  1  0.92510000  0.71200000  0.08410000  1
  H  H94  1  0.99160000  0.27920000  0.24400000  1
  H  H95  1  0.99160000  0.72080000  0.75600000  1
  C  C96  1  0.01022000  0.28470000  0.79765000  1
  C  C97  1  0.01022000  0.71530000  0.20235000  1
  C  C98  1  0.01580000  0.29730000  0.92146000  1
  C  C99  1  0.01580000  0.70270000  0.07854000  1
  C  C100  1  0.03966000  0.29000000  0.10691000  1
  C  C101  1  0.03966000  0.71000000  0.89309000  1
  C  C102  1  0.04236000  0.28590000  0.16878000  1
  C  C103  1  0.04236000  0.71410000  0.83122000  1
  C  C104  1  0.06619000  0.29180000  0.82590000  1
  C  C105  1  0.06619000  0.70820000  0.17410000  1
  C  C106  1  0.06877000  0.29760000  0.88880000  1
  C  C107  1  0.06877000  0.70240000  0.11120000  1
  C  C108  1  0.07854000  0.01580000  0.70270000  1
  C  C109  1  0.07854000  0.98420000  0.29730000  1
  C  C110  1  0.10478000  0.27860000  0.19741000  1
  C  C111  1  0.10478000  0.72140000  0.80259000  1
  C  C112  1  0.10691000  0.03966000  0.29000000  1
  C  C113  1  0.10691000  0.96034000  0.71000000  1
  C  C114  1  0.11120000  0.06877000  0.70240000  1
  C  C115  1  0.11120000  0.93123000  0.29760000  1
  C  C116  1  0.12593000  0.29260000  0.79170000  1
  C  C117  1  0.12593000  0.70740000  0.20830000  1
  C  C118  1  0.16878000  0.04236000  0.28590000  1
  C  C119  1  0.16878000  0.95764000  0.71410000  1
  C  C120  1  0.17410000  0.06619000  0.70820000  1
  C  C121  1  0.17410000  0.93381000  0.29180000  1
  C  C122  1  0.19741000  0.10478000  0.27860000  1
  C  C123  1  0.19741000  0.89522000  0.72140000  1
  C  C124  1  0.20235000  0.01022000  0.71530000  1
  C  C125  1  0.20235000  0.98978000  0.28470000  1
  C  C126  1  0.20240000  0.43123000  0.38880000  1
  C  C127  1  0.20240000  0.56877000  0.61120000  1
  C  C128  1  0.20270000  0.48420000  0.42146000  1
  C  C129  1  0.20270000  0.51580000  0.57854000  1
  C  C130  1  0.20740000  0.37407000  0.29170000  1
  C  C131  1  0.20740000  0.62593000  0.70830000  1
  C  C132  1  0.20820000  0.43381000  0.32590000  1
  C  C133  1  0.20820000  0.56619000  0.67410000  1
  C  C134  1  0.20830000  0.12593000  0.70740000  1
  C  C135  1  0.20830000  0.87407000  0.29260000  1
  C  C136  1  0.21000000  0.46034000  0.60691000  1
  C  C137  1  0.21000000  0.53966000  0.39309000  1
  C  C138  1  0.21410000  0.45764000  0.66878000  1
  C  C139  1  0.21410000  0.54236000  0.33122000  1
  C  C140  1  0.21530000  0.48978000  0.29765000  1
  C  C141  1  0.21530000  0.51022000  0.70235000  1
  C  C142  1  0.22140000  0.39522000  0.69741000  1
  C  C143  1  0.22140000  0.60478000  0.30259000  1
  C  C144  1  0.27860000  0.19741000  0.10478000  1
  C  C145  1  0.27860000  0.80259000  0.89522000  1
  C  C146  1  0.28470000  0.20235000  0.98978000  1
  C  C147  1  0.28470000  0.79765000  0.01022000  1
  C  C148  1  0.28590000  0.16878000  0.04236000  1
  C  C149  1  0.28590000  0.83122000  0.95764000  1
  C  C150  1  0.29000000  0.10691000  0.03966000  1
  C  C151  1  0.29000000  0.89309000  0.96034000  1
  C  C152  1  0.29170000  0.20740000  0.37407000  1
  C  C153  1  0.29170000  0.79260000  0.62593000  1
  C  C154  1  0.29180000  0.17410000  0.93381000  1
  C  C155  1  0.29180000  0.82590000  0.06619000  1
  C  C156  1  0.29260000  0.20830000  0.87407000  1
  C  C157  1  0.29260000  0.79170000  0.12593000  1
  C  C158  1  0.29730000  0.07854000  0.98420000  1
  C  C159  1  0.29730000  0.92146000  0.01580000  1
  C  C160  1  0.29760000  0.11120000  0.93123000  1
  C  C161  1  0.29760000  0.88880000  0.06877000  1
  C  C162  1  0.29765000  0.21530000  0.48978000  1
  C  C163  1  0.29765000  0.78470000  0.51022000  1
  C  C164  1  0.30259000  0.22140000  0.60478000  1
  C  C165  1  0.30259000  0.77860000  0.39522000  1
  C  C166  1  0.32590000  0.20820000  0.43381000  1
  C  C167  1  0.32590000  0.79180000  0.56619000  1
  C  C168  1  0.33122000  0.21410000  0.54236000  1
  C  C169  1  0.33122000  0.78590000  0.45764000  1
  C  C170  1  0.37407000  0.29170000  0.20740000  1
  C  C171  1  0.37407000  0.70830000  0.79260000  1
  C  C172  1  0.38880000  0.20240000  0.43123000  1
  C  C173  1  0.38880000  0.79760000  0.56877000  1
  C  C174  1  0.39309000  0.21000000  0.53966000  1
  C  C175  1  0.39309000  0.79000000  0.46034000  1
  C  C176  1  0.39522000  0.30259000  0.77860000  1
  C  C177  1  0.39522000  0.69741000  0.22140000  1
  C  C178  1  0.42146000  0.20270000  0.48420000  1
  C  C179  1  0.42146000  0.79730000  0.51580000  1
  C  C180  1  0.43123000  0.38880000  0.20240000  1
  C  C181  1  0.43123000  0.61120000  0.79760000  1
  C  C182  1  0.43381000  0.32590000  0.20820000  1
  C  C183  1  0.43381000  0.67410000  0.79180000  1
  C  C184  1  0.45764000  0.33122000  0.78590000  1
  C  C185  1  0.45764000  0.66878000  0.21410000  1
  C  C186  1  0.46034000  0.39309000  0.79000000  1
  C  C187  1  0.46034000  0.60691000  0.21000000  1
  C  C188  1  0.48420000  0.42146000  0.20270000  1
  C  C189  1  0.48420000  0.57854000  0.79730000  1
  C  C190  1  0.48978000  0.29765000  0.21530000  1
  C  C191  1  0.48978000  0.70235000  0.78470000  1
  C  C192  1  0.51022000  0.29765000  0.78470000  1
  C  C193  1  0.51022000  0.70235000  0.21530000  1
  C  C194  1  0.51580000  0.42146000  0.79730000  1
  C  C195  1  0.51580000  0.57854000  0.20270000  1
  C  C196  1  0.53966000  0.39309000  0.21000000  1
  C  C197  1  0.53966000  0.60691000  0.79000000  1
  C  C198  1  0.54236000  0.33122000  0.21410000  1
  C  C199  1  0.54236000  0.66878000  0.78590000  1
  C  C200  1  0.56619000  0.32590000  0.79180000  1
  C  C201  1  0.56619000  0.67410000  0.20820000  1
  C  C202  1  0.56877000  0.38880000  0.79760000  1
  C  C203  1  0.56877000  0.61120000  0.20240000  1
  C  C204  1  0.57854000  0.20270000  0.51580000  1
  C  C205  1  0.57854000  0.79730000  0.48420000  1
  C  C206  1  0.60478000  0.30259000  0.22140000  1
  C  C207  1  0.60478000  0.69741000  0.77860000  1
  C  C208  1  0.60691000  0.21000000  0.46034000  1
  C  C209  1  0.60691000  0.79000000  0.53966000  1
  C  C210  1  0.61120000  0.20240000  0.56877000  1
  C  C211  1  0.61120000  0.79760000  0.43123000  1
  C  C212  1  0.62593000  0.29170000  0.79260000  1
  C  C213  1  0.62593000  0.70830000  0.20740000  1
  C  C214  1  0.66878000  0.21410000  0.45764000  1
  C  C215  1  0.66878000  0.78590000  0.54236000  1
  C  C216  1  0.67410000  0.20820000  0.56619000  1
  C  C217  1  0.67410000  0.79180000  0.43381000  1
  C  C218  1  0.69741000  0.22140000  0.39522000  1
  C  C219  1  0.69741000  0.77860000  0.60478000  1
  C  C220  1  0.70235000  0.21530000  0.51022000  1
  C  C221  1  0.70235000  0.78470000  0.48978000  1
  C  C222  1  0.70240000  0.11120000  0.06877000  1
  C  C223  1  0.70240000  0.88880000  0.93123000  1
  C  C224  1  0.70270000  0.07854000  0.01580000  1
  C  C225  1  0.70270000  0.92146000  0.98420000  1
  C  C226  1  0.70740000  0.20830000  0.12593000  1
  C  C227  1  0.70740000  0.79170000  0.87407000  1
  C  C228  1  0.70820000  0.17410000  0.06619000  1
  C  C229  1  0.70820000  0.82590000  0.93381000  1
  C  C230  1  0.70830000  0.20740000  0.62593000  1
  C  C231  1  0.70830000  0.79260000  0.37407000  1
  C  C232  1  0.71000000  0.10691000  0.96034000  1
  C  C233  1  0.71000000  0.89309000  0.03966000  1
  C  C234  1  0.71410000  0.16878000  0.95764000  1
  C  C235  1  0.71410000  0.83122000  0.04236000  1
  C  C236  1  0.71530000  0.20235000  0.01022000  1
  C  C237  1  0.71530000  0.79765000  0.98978000  1
  C  C238  1  0.72140000  0.19741000  0.89522000  1
  C  C239  1  0.72140000  0.80259000  0.10478000  1
  C  C240  1  0.77860000  0.39522000  0.30259000  1
  C  C241  1  0.77860000  0.60478000  0.69741000  1
  C  C242  1  0.78470000  0.48978000  0.70235000  1
  C  C243  1  0.78470000  0.51022000  0.29765000  1
  C  C244  1  0.78590000  0.45764000  0.33122000  1
  C  C245  1  0.78590000  0.54236000  0.66878000  1
  C  C246  1  0.79000000  0.46034000  0.39309000  1
  C  C247  1  0.79000000  0.53966000  0.60691000  1
  C  C248  1  0.79170000  0.12593000  0.29260000  1
  C  C249  1  0.79170000  0.87407000  0.70740000  1
  C  C250  1  0.79180000  0.43381000  0.67410000  1
  C  C251  1  0.79180000  0.56619000  0.32590000  1
  C  C252  1  0.79260000  0.37407000  0.70830000  1
  C  C253  1  0.79260000  0.62593000  0.29170000  1
  C  C254  1  0.79730000  0.48420000  0.57854000  1
  C  C255  1  0.79730000  0.51580000  0.42146000  1
  C  C256  1  0.79760000  0.43123000  0.61120000  1
  C  C257  1  0.79760000  0.56877000  0.38880000  1
  C  C258  1  0.79765000  0.01022000  0.28470000  1
  C  C259  1  0.79765000  0.98978000  0.71530000  1
  C  C260  1  0.80259000  0.10478000  0.72140000  1
  C  C261  1  0.80259000  0.89522000  0.27860000  1
  C  C262  1  0.82590000  0.06619000  0.29180000  1
  C  C263  1  0.82590000  0.93381000  0.70820000  1
  C  C264  1  0.83122000  0.04236000  0.71410000  1
  C  C265  1  0.83122000  0.95764000  0.28590000  1
  C  C266  1  0.87407000  0.29260000  0.20830000  1
  C  C267  1  0.87407000  0.70740000  0.79170000  1
  C  C268  1  0.88880000  0.06877000  0.29760000  1
  C  C269  1  0.88880000  0.93123000  0.70240000  1
  C  C270  1  0.89309000  0.03966000  0.71000000  1
  C  C271  1  0.89309000  0.96034000  0.29000000  1
  C  C272  1  0.89522000  0.27860000  0.80259000  1
  C  C273  1  0.89522000  0.72140000  0.19741000  1
  C  C274  1  0.92146000  0.01580000  0.29730000  1
  C  C275  1  0.92146000  0.98420000  0.70270000  1
  C  C276  1  0.93123000  0.29760000  0.11120000  1
  C  C277  1  0.93123000  0.70240000  0.88880000  1
  C  C278  1  0.93381000  0.29180000  0.17410000  1
  C  C279  1  0.93381000  0.70820000  0.82590000  1
  C  C280  1  0.95764000  0.28590000  0.83122000  1
  C  C281  1  0.95764000  0.71410000  0.16878000  1
  C  C282  1  0.96034000  0.29000000  0.89309000  1
  C  C283  1  0.96034000  0.71000000  0.10691000  1
  C  C284  1  0.98420000  0.29730000  0.07854000  1
  C  C285  1  0.98420000  0.70270000  0.92146000  1
  C  C286  1  0.98978000  0.28470000  0.20235000  1
  C  C287  1  0.98978000  0.71530000  0.79765000  1
  N  N288  1  0.01322000  0.02272000  0.70120000  1
  N  N289  1  0.01322000  0.97728000  0.29880000  1
  N  N290  1  0.02272000  0.29880000  0.98678000  1
  N  N291  1  0.02272000  0.70120000  0.01322000  1
  N  N292  1  0.20120000  0.47728000  0.48678000  1
  N  N293  1  0.20120000  0.52272000  0.51322000  1
  N  N294  1  0.29880000  0.01322000  0.97728000  1
  N  N295  1  0.29880000  0.98678000  0.02272000  1
  N  N296  1  0.47728000  0.48678000  0.20120000  1
  N  N297  1  0.47728000  0.51322000  0.79880000  1
  N  N298  1  0.48678000  0.20120000  0.47728000  1
  N  N299  1  0.48678000  0.79880000  0.52272000  1
  N  N300  1  0.51322000  0.20120000  0.52272000  1
  N  N301  1  0.51322000  0.79880000  0.47728000  1
  N  N302  1  0.52272000  0.48678000  0.79880000  1
  N  N303  1  0.52272000  0.51322000  0.20120000  1
  N  N304  1  0.70120000  0.01322000  0.02272000  1
  N  N305  1  0.70120000  0.98678000  0.97728000  1
  N  N306  1  0.79880000  0.47728000  0.51322000  1
  N  N307  1  0.79880000  0.52272000  0.48678000  1
  N  N308  1  0.97728000  0.29880000  0.01322000  1
  N  N309  1  0.97728000  0.70120000  0.98678000  1
  N  N310  1  0.98678000  0.02272000  0.29880000  1
  N  N311  1  0.98678000  0.97728000  0.70120000  1
  O  O312  1  0.10592000  0.25791000  0.24993000  1
  O  O313  1  0.10592000  0.74209000  0.75007000  1
  O  O314  1  0.12355000  0.27724000  0.73812000  1
  O  O315  1  0.12355000  0.72276000  0.26188000  1
  O  O316  1  0.14817000  0.29422000  0.16457000  1
  O  O317  1  0.14817000  0.70578000  0.83543000  1
  O  O318  1  0.16457000  0.14817000  0.29422000  1
  O  O319  1  0.16457000  0.85183000  0.70578000  1
  O  O320  1  0.17012000  0.30997000  0.82130000  1
  O  O321  1  0.17012000  0.69003000  0.17870000  1
  O  O322  1  0.17870000  0.17012000  0.69003000  1
  O  O323  1  0.17870000  0.82988000  0.30997000  1
  O  O324  1  0.19003000  0.32988000  0.32130000  1
  O  O325  1  0.19003000  0.67012000  0.67870000  1
  O  O326  1  0.20578000  0.35183000  0.66457000  1
  O  O327  1  0.20578000  0.64817000  0.33543000  1
  O  O328  1  0.22276000  0.37645000  0.23812000  1
  O  O329  1  0.22276000  0.62355000  0.76188000  1
  O  O330  1  0.23812000  0.22276000  0.37645000  1
  O  O331  1  0.23812000  0.77724000  0.62355000  1
  O  O332  1  0.23843000  0.23843000  0.23843000  1
  O  O333  1  0.23843000  0.76157000  0.76157000  1
  O  O334  1  0.24209000  0.39408000  0.74993000  1
  O  O335  1  0.24209000  0.60592000  0.25007000  1
  O  O336  1  0.24993000  0.10592000  0.25791000  1
  O  O337  1  0.24993000  0.89408000  0.74209000  1
  O  O338  1  0.25007000  0.24209000  0.60592000  1
  O  O339  1  0.25007000  0.75791000  0.39408000  1
  O  O340  1  0.25791000  0.24993000  0.10592000  1
  O  O341  1  0.25791000  0.75007000  0.89408000  1
  O  O342  1  0.26157000  0.26157000  0.73843000  1
  O  O343  1  0.26157000  0.73843000  0.26157000  1
  O  O344  1  0.26188000  0.12355000  0.72276000  1
  O  O345  1  0.26188000  0.87645000  0.27724000  1
  O  O346  1  0.27724000  0.26188000  0.87645000  1
  O  O347  1  0.27724000  0.73812000  0.12355000  1
  O  O348  1  0.29422000  0.16457000  0.14817000  1
  O  O349  1  0.29422000  0.83543000  0.85183000  1
  O  O350  1  0.30997000  0.17870000  0.82988000  1
  O  O351  1  0.30997000  0.82130000  0.17012000  1
  O  O352  1  0.32130000  0.19003000  0.32988000  1
  O  O353  1  0.32130000  0.80997000  0.67012000  1
  O  O354  1  0.32988000  0.32130000  0.19003000  1
  O  O355  1  0.32988000  0.67870000  0.80997000  1
  O  O356  1  0.33543000  0.20578000  0.64817000  1
  O  O357  1  0.33543000  0.79422000  0.35183000  1
  O  O358  1  0.35183000  0.33543000  0.79422000  1
  O  O359  1  0.35183000  0.66457000  0.20578000  1
  O  O360  1  0.37645000  0.23812000  0.22276000  1
  O  O361  1  0.37645000  0.76188000  0.77724000  1
  O  O362  1  0.39408000  0.25007000  0.75791000  1
  O  O363  1  0.39408000  0.74993000  0.24209000  1
  O  O364  1  0.60592000  0.25007000  0.24209000  1
  O  O365  1  0.60592000  0.74993000  0.75791000  1
  O  O366  1  0.62355000  0.23812000  0.77724000  1
  O  O367  1  0.62355000  0.76188000  0.22276000  1
  O  O368  1  0.64817000  0.33543000  0.20578000  1
  O  O369  1  0.64817000  0.66457000  0.79422000  1
  O  O370  1  0.66457000  0.20578000  0.35183000  1
  O  O371  1  0.66457000  0.79422000  0.64817000  1
  O  O372  1  0.67012000  0.32130000  0.80997000  1
  O  O373  1  0.67012000  0.67870000  0.19003000  1
  O  O374  1  0.67870000  0.19003000  0.67012000  1
  O  O375  1  0.67870000  0.80997000  0.32988000  1
  O  O376  1  0.69003000  0.17870000  0.17012000  1
  O  O377  1  0.69003000  0.82130000  0.82988000  1
  O  O378  1  0.70578000  0.16457000  0.85183000  1
  O  O379  1  0.70578000  0.83543000  0.14817000  1
  O  O380  1  0.72276000  0.26188000  0.12355000  1
  O  O381  1  0.72276000  0.73812000  0.87645000  1
  O  O382  1  0.73812000  0.12355000  0.27724000  1
  O  O383  1  0.73812000  0.87645000  0.72276000  1
  O  O384  1  0.73843000  0.26157000  0.26157000  1
  O  O385  1  0.73843000  0.73843000  0.73843000  1
  O  O386  1  0.74209000  0.24993000  0.89408000  1
  O  O387  1  0.74209000  0.75007000  0.10592000  1
  O  O388  1  0.74993000  0.24209000  0.39408000  1
  O  O389  1  0.74993000  0.75791000  0.60592000  1
  O  O390  1  0.75007000  0.10592000  0.74209000  1
  O  O391  1  0.75007000  0.89408000  0.25791000  1
  O  O392  1  0.75791000  0.39408000  0.25007000  1
  O  O393  1  0.75791000  0.60592000  0.74993000  1
  O  O394  1  0.76157000  0.23843000  0.76157000  1
  O  O395  1  0.76157000  0.76157000  0.23843000  1
  O  O396  1  0.76188000  0.22276000  0.62355000  1
  O  O397  1  0.76188000  0.77724000  0.37645000  1
  O  O398  1  0.77724000  0.37645000  0.76188000  1
  O  O399  1  0.77724000  0.62355000  0.23812000  1
  O  O400  1  0.79422000  0.35183000  0.33543000  1
  O  O401  1  0.79422000  0.64817000  0.66457000  1
  O  O402  1  0.80997000  0.32988000  0.67870000  1
  O  O403  1  0.80997000  0.67012000  0.32130000  1
  O  O404  1  0.82130000  0.17012000  0.30997000  1
  O  O405  1  0.82130000  0.82988000  0.69003000  1
  O  O406  1  0.82988000  0.30997000  0.17870000  1
  O  O407  1  0.82988000  0.69003000  0.82130000  1
  O  O408  1  0.83543000  0.14817000  0.70578000  1
  O  O409  1  0.83543000  0.85183000  0.29422000  1
  O  O410  1  0.85183000  0.29422000  0.83543000  1
  O  O411  1  0.85183000  0.70578000  0.16457000  1
  O  O412  1  0.87645000  0.27724000  0.26188000  1
  O  O413  1  0.87645000  0.72276000  0.73812000  1
  O  O414  1  0.89408000  0.25791000  0.75007000  1
  O  O415  1  0.89408000  0.74209000  0.24993000  1
