# generated using pymatgen
data_MnH16C24(NO2)2
_symmetry_space_group_name_H-M   'P 1'
_cell_length_a   14.28750000
_cell_length_b   17.55150000
_cell_length_c   18.74560000
_cell_angle_alpha   97.43600000
_cell_angle_beta   90.00000000
_cell_angle_gamma   90.00000000
_symmetry_Int_Tables_number   1
_chemical_formula_structural   MnH16C24(NO2)2
_chemical_formula_sum   'Mn8 H128 C192 N16 O32'
_cell_volume   4661.24557618
_cell_formula_units_Z   8
loop_
 _symmetry_equiv_pos_site_id
 _symmetry_equiv_pos_as_xyz
  1  'x, y, z'
loop_
 _atom_site_type_symbol
 _atom_site_label
 _atom_site_symmetry_multiplicity
 _atom_site_fract_x
 _atom_site_fract_y
 _atom_site_fract_z
 _atom_site_occupancy
  Mn  Mn0  1  0.92335000  0.86809000  0.49526000  1
  Mn  Mn1  1  0.57665000  0.86809000  0.99526000  1
  Mn  Mn2  1  0.42877000  0.61625000  0.99503000  1
  Mn  Mn3  1  0.07123000  0.61625000  0.49503000  1
  Mn  Mn4  1  0.92877000  0.38375000  0.50497000  1
  Mn  Mn5  1  0.57123000  0.38375000  0.00497000  1
  Mn  Mn6  1  0.42335000  0.13191000  0.00474000  1
  Mn  Mn7  1  0.07665000  0.13191000  0.50474000  1
  H  H8  1  0.84530000  0.97350000  0.70420000  1
  H  H9  1  0.65470000  0.97350000  0.20420000  1
  H  H10  1  0.36760000  0.96790000  0.03740000  1
  H  H11  1  0.13240000  0.96790000  0.53740000  1
  H  H12  1  0.45870000  0.96420000  0.28930000  1
  H  H13  1  0.04130000  0.96420000  0.78930000  1
  H  H14  1  0.48900000  0.91090000  0.17110000  1
  H  H15  1  0.01100000  0.91090000  0.67110000  1
  H  H16  1  0.84150000  0.90080000  0.80660000  1
  H  H17  1  0.65850000  0.90080000  0.30660000  1
  H  H18  1  0.75090000  0.90070000  0.60950000  1
  H  H19  1  0.74910000  0.90070000  0.10950000  1
  H  H20  1  0.27430000  0.89950000  0.10560000  1
  H  H21  1  0.22570000  0.89950000  0.60560000  1
  H  H22  1  0.36980000  0.89830000  0.36390000  1
  H  H23  1  0.13020000  0.89830000  0.86390000  1
  H  H24  1  0.37720000  0.85570000  0.63210000  1
  H  H25  1  0.12280000  0.85570000  0.13210000  1
  H  H26  1  0.28130000  0.84900000  0.89250000  1
  H  H27  1  0.21870000  0.84900000  0.39250000  1
  H  H28  1  0.84370000  0.84040000  0.18370000  1
  H  H29  1  0.65630000  0.84040000  0.68370000  1
  H  H30  1  0.75130000  0.83830000  0.38040000  1
  H  H31  1  0.74870000  0.83830000  0.88040000  1
  H  H32  1  0.49490000  0.83830000  0.82500000  1
  H  H33  1  0.00510000  0.83830000  0.32500000  1
  H  H34  1  0.46840000  0.78920000  0.70500000  1
  H  H35  1  0.03160000  0.78920000  0.20500000  1
  H  H36  1  0.36950000  0.77910000  0.96260000  1
  H  H37  1  0.13050000  0.77910000  0.46260000  1
  H  H38  1  0.84920000  0.76350000  0.28130000  1
  H  H39  1  0.65080000  0.76350000  0.78130000  1
  H  H40  1  0.91780000  0.74750000  0.78370000  1
  H  H41  1  0.58220000  0.74750000  0.28370000  1
  H  H42  1  0.34170000  0.72280000  0.20400000  1
  H  H43  1  0.15830000  0.72280000  0.70400000  1
  H  H44  1  0.84110000  0.70380000  0.51240000  1
  H  H45  1  0.65890000  0.70380000  0.01240000  1
  H  H46  1  0.95550000  0.68850000  0.66870000  1
  H  H47  1  0.54450000  0.68850000  0.16870000  1
  H  H48  1  0.83500000  0.68070000  0.86210000  1
  H  H49  1  0.66500000  0.68070000  0.36210000  1
  H  H50  1  0.34950000  0.65340000  0.31170000  1
  H  H51  1  0.15050000  0.65340000  0.81170000  1
  H  H52  1  0.75520000  0.63800000  0.08100000  1
  H  H53  1  0.74480000  0.63800000  0.58100000  1
  H  H54  1  0.90590000  0.59940000  0.11520000  1
  H  H55  1  0.59410000  0.59940000  0.61520000  1
  H  H56  1  0.39330000  0.59330000  0.15640000  1
  H  H57  1  0.10670000  0.59330000  0.65640000  1
  H  H58  1  0.25990000  0.58950000  0.38720000  1
  H  H59  1  0.24010000  0.58950000  0.88720000  1
  H  H60  1  0.81780000  0.58820000  0.93880000  1
  H  H61  1  0.68220000  0.58820000  0.43880000  1
  H  H62  1  0.49000000  0.58190000  0.81260000  1
  H  H63  1  0.01000000  0.58190000  0.31260000  1
  H  H64  1  0.99660000  0.53530000  0.19060000  1
  H  H65  1  0.50340000  0.53530000  0.69060000  1
  H  H66  1  0.31110000  0.52640000  0.23300000  1
  H  H67  1  0.18890000  0.52640000  0.73300000  1
  H  H68  1  0.76890000  0.51800000  0.51020000  1
  H  H69  1  0.73110000  0.51800000  0.01020000  1
  H  H70  1  0.32980000  0.50620000  0.78820000  1
  H  H71  1  0.17020000  0.50620000  0.28820000  1
  H  H72  1  0.82980000  0.49380000  0.71180000  1
  H  H73  1  0.67020000  0.49380000  0.21180000  1
  H  H74  1  0.26890000  0.48200000  0.98980000  1
  H  H75  1  0.23110000  0.48200000  0.48980000  1
  H  H76  1  0.81110000  0.47360000  0.26700000  1
  H  H77  1  0.68890000  0.47360000  0.76700000  1
  H  H78  1  0.49660000  0.46470000  0.30940000  1
  H  H79  1  0.00340000  0.46470000  0.80940000  1
  H  H80  1  0.99000000  0.41810000  0.68740000  1
  H  H81  1  0.51000000  0.41810000  0.18740000  1
  H  H82  1  0.31780000  0.41180000  0.56120000  1
  H  H83  1  0.18220000  0.41180000  0.06120000  1
  H  H84  1  0.75990000  0.41050000  0.11280000  1
  H  H85  1  0.74010000  0.41050000  0.61280000  1
  H  H86  1  0.89330000  0.40670000  0.34360000  1
  H  H87  1  0.60670000  0.40670000  0.84360000  1
  H  H88  1  0.40590000  0.40060000  0.38480000  1
  H  H89  1  0.09410000  0.40060000  0.88480000  1
  H  H90  1  0.25520000  0.36200000  0.41900000  1
  H  H91  1  0.24480000  0.36200000  0.91900000  1
  H  H92  1  0.84950000  0.34660000  0.18830000  1
  H  H93  1  0.65050000  0.34660000  0.68830000  1
  H  H94  1  0.33500000  0.31930000  0.63790000  1
  H  H95  1  0.16500000  0.31930000  0.13790000  1
  H  H96  1  0.45550000  0.31150000  0.83130000  1
  H  H97  1  0.04450000  0.31150000  0.33130000  1
  H  H98  1  0.34110000  0.29620000  0.98760000  1
  H  H99  1  0.15890000  0.29620000  0.48760000  1
  H  H100  1  0.84170000  0.27720000  0.29600000  1
  H  H101  1  0.65830000  0.27720000  0.79600000  1
  H  H102  1  0.41780000  0.25250000  0.71630000  1
  H  H103  1  0.08220000  0.25250000  0.21630000  1
  H  H104  1  0.34920000  0.23650000  0.21870000  1
  H  H105  1  0.15080000  0.23650000  0.71870000  1
  H  H106  1  0.86950000  0.22090000  0.53740000  1
  H  H107  1  0.63050000  0.22090000  0.03740000  1
  H  H108  1  0.96840000  0.21080000  0.79500000  1
  H  H109  1  0.53160000  0.21080000  0.29500000  1
  H  H110  1  0.99490000  0.16170000  0.67500000  1
  H  H111  1  0.50510000  0.16170000  0.17500000  1
  H  H112  1  0.25130000  0.16170000  0.11960000  1
  H  H113  1  0.24870000  0.16170000  0.61960000  1
  H  H114  1  0.34370000  0.15960000  0.31630000  1
  H  H115  1  0.15630000  0.15960000  0.81630000  1
  H  H116  1  0.78130000  0.15100000  0.60750000  1
  H  H117  1  0.71870000  0.15100000  0.10750000  1
  H  H118  1  0.87720000  0.14430000  0.86790000  1
  H  H119  1  0.62280000  0.14430000  0.36790000  1
  H  H120  1  0.86980000  0.10170000  0.13610000  1
  H  H121  1  0.63020000  0.10170000  0.63610000  1
  H  H122  1  0.77430000  0.10050000  0.39440000  1
  H  H123  1  0.72570000  0.10050000  0.89440000  1
  H  H124  1  0.25090000  0.09930000  0.89050000  1
  H  H125  1  0.24910000  0.09930000  0.39050000  1
  H  H126  1  0.34150000  0.09920000  0.69340000  1
  H  H127  1  0.15850000  0.09920000  0.19340000  1
  H  H128  1  0.98900000  0.08910000  0.32890000  1
  H  H129  1  0.51100000  0.08910000  0.82890000  1
  H  H130  1  0.95870000  0.03580000  0.21070000  1
  H  H131  1  0.54130000  0.03580000  0.71070000  1
  H  H132  1  0.86760000  0.03210000  0.46260000  1
  H  H133  1  0.63240000  0.03210000  0.96260000  1
  H  H134  1  0.34530000  0.02650000  0.79580000  1
  H  H135  1  0.15470000  0.02650000  0.29580000  1
  C  C136  1  0.32400000  0.99460000  0.06874000  1
  C  C137  1  0.17600000  0.99460000  0.56874000  1
  C  C138  1  0.29370000  0.99137000  0.65937000  1
  C  C139  1  0.20630000  0.99137000  0.15937000  1
  C  C140  1  0.36910000  0.97793000  0.77756000  1
  C  C141  1  0.13090000  0.97793000  0.27756000  1
  C  C142  1  0.43400000  0.96777000  0.90108000  1
  C  C143  1  0.06600000  0.96777000  0.40108000  1
  C  C144  1  0.26930000  0.95330000  0.11027000  1
  C  C145  1  0.23070000  0.95330000  0.61027000  1
  C  C146  1  0.35140000  0.94854000  0.70607000  1
  C  C147  1  0.14860000  0.94854000  0.20607000  1
  C  C148  1  0.42100000  0.93696000  0.82231000  1
  C  C149  1  0.07900000  0.93696000  0.32231000  1
  C  C150  1  0.79950000  0.92904000  0.83836000  1
  C  C151  1  0.70050000  0.92904000  0.33836000  1
  C  C152  1  0.43480000  0.91540000  0.27190000  1
  C  C153  1  0.06520000  0.91540000  0.77190000  1
  C  C154  1  0.75650000  0.89193000  0.38277000  1
  C  C155  1  0.74350000  0.89193000  0.88277000  1
  C  C156  1  0.45270000  0.88390000  0.20132000  1
  C  C157  1  0.04730000  0.88390000  0.70132000  1
  C  C158  1  0.38880000  0.87690000  0.67996000  1
  C  C159  1  0.11120000  0.87690000  0.17996000  1
  C  C160  1  0.38230000  0.87580000  0.31660000  1
  C  C161  1  0.11770000  0.87580000  0.81660000  1
  C  C162  1  0.45880000  0.86610000  0.79533000  1
  C  C163  1  0.04120000  0.86610000  0.29533000  1
  C  C164  1  0.75100000  0.84671000  0.60451000  1
  C  C165  1  0.74900000  0.84671000  0.10451000  1
  C  C166  1  0.44250000  0.83690000  0.72380000  1
  C  C167  1  0.05750000  0.83690000  0.22380000  1
  C  C168  1  0.41620000  0.81200000  0.17590000  1
  C  C169  1  0.08380000  0.81200000  0.67590000  1
  C  C170  1  0.80690000  0.81090000  0.14897000  1
  C  C171  1  0.69310000  0.81090000  0.64897000  1
  C  C172  1  0.34750000  0.80280000  0.29267000  1
  C  C173  1  0.15250000  0.80280000  0.79267000  1
  C  C174  1  0.27260000  0.79560000  0.88914000  1
  C  C175  1  0.22740000  0.79560000  0.38914000  1
  C  C176  1  0.43330000  0.77789000  0.09802000  1
  C  C177  1  0.06670000  0.77789000  0.59802000  1
  C  C178  1  0.36510000  0.77181000  0.22134000  1
  C  C179  1  0.13490000  0.77181000  0.72134000  1
  C  C180  1  0.29280000  0.75941000  0.34102000  1
  C  C181  1  0.20720000  0.75941000  0.84102000  1
  C  C182  1  0.32460000  0.75332000  0.93178000  1
  C  C183  1  0.17540000  0.75332000  0.43178000  1
  C  C184  1  0.80310000  0.73190000  0.54733000  1
  C  C185  1  0.69690000  0.73190000  0.04733000  1
  C  C186  1  0.81050000  0.73092000  0.14220000  1
  C  C187  1  0.68950000  0.73092000  0.64220000  1
  C  C188  1  0.87810000  0.71694000  0.26310000  1
  C  C189  1  0.62190000  0.71694000  0.76310000  1
  C  C190  1  0.93830000  0.70787000  0.38826000  1
  C  C191  1  0.56170000  0.70787000  0.88826000  1
  C  C192  1  0.89950000  0.69640000  0.76910000  1
  C  C193  1  0.60050000  0.69640000  0.26910000  1
  C  C194  1  0.75420000  0.69202000  0.08887000  1
  C  C195  1  0.74580000  0.69202000  0.58887000  1
  C  C196  1  0.86790000  0.68854000  0.18998000  1
  C  C197  1  0.63210000  0.68854000  0.68998000  1
  C  C198  1  0.30480000  0.68060000  0.34187000  1
  C  C199  1  0.19520000  0.68060000  0.84187000  1
  C  C200  1  0.93010000  0.67728000  0.30889000  1
  C  C201  1  0.56990000  0.67728000  0.80889000  1
  C  C202  1  0.92250000  0.66097000  0.70046000  1
  C  C203  1  0.57750000  0.66097000  0.20046000  1
  C  C204  1  0.85000000  0.65660000  0.81576000  1
  C  C205  1  0.65000000  0.65660000  0.31576000  1
  C  C206  1  0.25050000  0.64260000  0.38742000  1
  C  C207  1  0.24950000  0.64260000  0.88742000  1
  C  C208  1  0.91240000  0.61960000  0.16384000  1
  C  C209  1  0.58760000  0.61960000  0.66384000  1
  C  C210  1  0.97450000  0.60894000  0.28194000  1
  C  C211  1  0.52550000  0.60894000  0.78194000  1
  C  C212  1  0.89670000  0.58495000  0.67873000  1
  C  C213  1  0.60330000  0.58495000  0.17873000  1
  C  C214  1  0.96580000  0.58100000  0.20910000  1
  C  C215  1  0.53420000  0.58100000  0.70910000  1
  C  C216  1  0.82200000  0.58073000  0.79461000  1
  C  C217  1  0.67800000  0.58073000  0.29461000  1
  C  C218  1  0.34890000  0.55690000  0.13686000  1
  C  C219  1  0.15110000  0.55690000  0.63686000  1
  C  C220  1  0.77610000  0.55050000  0.91746000  1
  C  C221  1  0.72390000  0.55050000  0.41746000  1
  C  C222  1  0.92200000  0.54608000  0.60399000  1
  C  C223  1  0.57800000  0.54608000  0.10399000  1
  C  C224  1  0.84690000  0.54525000  0.72609000  1
  C  C225  1  0.65310000  0.54525000  0.22609000  1
  C  C226  1  0.76710000  0.53779000  0.84355000  1
  C  C227  1  0.73290000  0.53779000  0.34355000  1
  C  C228  1  0.29970000  0.51690000  0.18327000  1
  C  C229  1  0.20030000  0.51690000  0.68327000  1
  C  C230  1  0.77640000  0.50780000  0.46011000  1
  C  C231  1  0.72360000  0.50780000  0.96011000  1
  C  C232  1  0.27640000  0.49220000  0.03989000  1
  C  C233  1  0.22360000  0.49220000  0.53989000  1
  C  C234  1  0.79970000  0.48310000  0.31673000  1
  C  C235  1  0.70030000  0.48310000  0.81673000  1
  C  C236  1  0.26710000  0.46221000  0.65645000  1
  C  C237  1  0.23290000  0.46221000  0.15645000  1
  C  C238  1  0.34690000  0.45475000  0.77391000  1
  C  C239  1  0.15310000  0.45475000  0.27391000  1
  C  C240  1  0.42200000  0.45392000  0.89601000  1
  C  C241  1  0.07800000  0.45392000  0.39601000  1
  C  C242  1  0.27610000  0.44950000  0.58254000  1
  C  C243  1  0.22390000  0.44950000  0.08254000  1
  C  C244  1  0.84890000  0.44310000  0.36314000  1
  C  C245  1  0.65110000  0.44310000  0.86314000  1
  C  C246  1  0.32200000  0.41927000  0.70539000  1
  C  C247  1  0.17800000  0.41927000  0.20539000  1
  C  C248  1  0.46580000  0.41900000  0.29090000  1
  C  C249  1  0.03420000  0.41900000  0.79090000  1
  C  C250  1  0.39670000  0.41505000  0.82127000  1
  C  C251  1  0.10330000  0.41505000  0.32127000  1
  C  C252  1  0.47450000  0.39106000  0.21806000  1
  C  C253  1  0.02550000  0.39106000  0.71806000  1
  C  C254  1  0.41240000  0.38040000  0.33616000  1
  C  C255  1  0.08760000  0.38040000  0.83616000  1
  C  C256  1  0.75050000  0.35740000  0.11258000  1
  C  C257  1  0.74950000  0.35740000  0.61258000  1
  C  C258  1  0.35000000  0.34340000  0.68424000  1
  C  C259  1  0.15000000  0.34340000  0.18424000  1
  C  C260  1  0.42250000  0.33903000  0.79954000  1
  C  C261  1  0.07750000  0.33903000  0.29954000  1
  C  C262  1  0.43010000  0.32272000  0.19111000  1
  C  C263  1  0.06990000  0.32272000  0.69111000  1
  C  C264  1  0.80480000  0.31940000  0.15813000  1
  C  C265  1  0.69520000  0.31940000  0.65813000  1
  C  C266  1  0.36790000  0.31146000  0.31002000  1
  C  C267  1  0.13210000  0.31146000  0.81002000  1
  C  C268  1  0.25420000  0.30798000  0.41113000  1
  C  C269  1  0.24580000  0.30798000  0.91113000  1
  C  C270  1  0.39950000  0.30360000  0.73090000  1
  C  C271  1  0.10050000  0.30360000  0.23090000  1
  C  C272  1  0.43830000  0.29213000  0.11174000  1
  C  C273  1  0.06170000  0.29213000  0.61174000  1
  C  C274  1  0.37810000  0.28306000  0.23690000  1
  C  C275  1  0.12190000  0.28306000  0.73690000  1
  C  C276  1  0.31050000  0.26908000  0.35780000  1
  C  C277  1  0.18950000  0.26908000  0.85780000  1
  C  C278  1  0.30310000  0.26810000  0.95267000  1
  C  C279  1  0.19690000  0.26810000  0.45267000  1
  C  C280  1  0.82460000  0.24668000  0.56822000  1
  C  C281  1  0.67540000  0.24668000  0.06822000  1
  C  C282  1  0.79280000  0.24059000  0.15898000  1
  C  C283  1  0.70720000  0.24059000  0.65898000  1
  C  C284  1  0.86510000  0.22819000  0.27866000  1
  C  C285  1  0.63490000  0.22819000  0.77866000  1
  C  C286  1  0.93330000  0.22211000  0.40198000  1
  C  C287  1  0.56670000  0.22211000  0.90198000  1
  C  C288  1  0.77260000  0.20440000  0.61086000  1
  C  C289  1  0.72740000  0.20440000  0.11086000  1
  C  C290  1  0.84750000  0.19720000  0.20733000  1
  C  C291  1  0.65250000  0.19720000  0.70733000  1
  C  C292  1  0.30690000  0.18910000  0.35103000  1
  C  C293  1  0.19310000  0.18910000  0.85103000  1
  C  C294  1  0.91620000  0.18800000  0.32410000  1
  C  C295  1  0.58380000  0.18800000  0.82410000  1
  C  C296  1  0.94250000  0.16310000  0.77620000  1
  C  C297  1  0.55750000  0.16310000  0.27620000  1
  C  C298  1  0.25100000  0.15329000  0.89549000  1
  C  C299  1  0.24900000  0.15329000  0.39549000  1
  C  C300  1  0.95880000  0.13390000  0.70467000  1
  C  C301  1  0.54120000  0.13390000  0.20467000  1
  C  C302  1  0.88230000  0.12420000  0.18340000  1
  C  C303  1  0.61770000  0.12420000  0.68340000  1
  C  C304  1  0.88880000  0.12310000  0.82004000  1
  C  C305  1  0.61120000  0.12310000  0.32004000  1
  C  C306  1  0.95270000  0.11610000  0.29868000  1
  C  C307  1  0.54730000  0.11610000  0.79868000  1
  C  C308  1  0.25650000  0.10807000  0.11723000  1
  C  C309  1  0.24350000  0.10807000  0.61723000  1
  C  C310  1  0.93480000  0.08460000  0.22810000  1
  C  C311  1  0.56520000  0.08460000  0.72810000  1
  C  C312  1  0.29950000  0.07096000  0.66164000  1
  C  C313  1  0.20050000  0.07096000  0.16164000  1
  C  C314  1  0.92100000  0.06304000  0.67769000  1
  C  C315  1  0.57900000  0.06304000  0.17769000  1
  C  C316  1  0.85140000  0.05146000  0.79393000  1
  C  C317  1  0.64860000  0.05146000  0.29393000  1
  C  C318  1  0.76930000  0.04670000  0.38973000  1
  C  C319  1  0.73070000  0.04670000  0.88973000  1
  C  C320  1  0.93400000  0.03223000  0.59892000  1
  C  C321  1  0.56600000  0.03223000  0.09892000  1
  C  C322  1  0.86910000  0.02207000  0.72244000  1
  C  C323  1  0.63090000  0.02207000  0.22244000  1
  C  C324  1  0.79370000  0.00863000  0.84063000  1
  C  C325  1  0.70630000  0.00863000  0.34063000  1
  C  C326  1  0.82400000  0.00540000  0.43126000  1
  C  C327  1  0.67600000  0.00540000  0.93126000  1
  N  N328  1  0.81814000  0.92844000  0.42931000  1
  N  N329  1  0.68186000  0.92844000  0.92931000  1
  N  N330  1  0.80721000  0.80893000  0.55458000  1
  N  N331  1  0.69279000  0.80893000  0.05458000  1
  N  N332  1  0.31450000  0.67734000  0.93175000  1
  N  N333  1  0.18550000  0.67734000  0.43175000  1
  N  N334  1  0.33690000  0.54667000  0.06534000  1
  N  N335  1  0.16310000  0.54667000  0.56534000  1
  N  N336  1  0.83690000  0.45333000  0.43466000  1
  N  N337  1  0.66310000  0.45333000  0.93466000  1
  N  N338  1  0.81450000  0.32266000  0.56825000  1
  N  N339  1  0.68550000  0.32266000  0.06825000  1
  N  N340  1  0.30721000  0.19107000  0.94542000  1
  N  N341  1  0.19279000  0.19107000  0.44542000  1
  N  N342  1  0.31814000  0.07156000  0.07069000  1
  N  N343  1  0.18186000  0.07156000  0.57069000  1
  O  O344  1  0.90654000  0.96471000  0.57997000  1
  O  O345  1  0.59346000  0.96471000  0.07997000  1
  O  O346  1  0.46787000  0.92360000  0.94136000  1
  O  O347  1  0.03213000  0.92360000  0.44136000  1
  O  O348  1  0.47474000  0.81902000  0.05842000  1
  O  O349  1  0.02526000  0.81902000  0.55842000  1
  O  O350  1  0.90964000  0.77515000  0.40710000  1
  O  O351  1  0.59036000  0.77515000  0.90710000  1
  O  O352  1  0.40255000  0.71168000  0.07963000  1
  O  O353  1  0.09745000  0.71168000  0.57963000  1
  O  O354  1  0.97161000  0.66441000  0.42957000  1
  O  O355  1  0.52839000  0.66441000  0.92957000  1
  O  O356  1  0.95687000  0.58679000  0.56071000  1
  O  O357  1  0.54313000  0.58679000  0.06071000  1
  O  O358  1  0.40372000  0.52415000  0.90899000  1
  O  O359  1  0.09628000  0.52415000  0.40899000  1
  O  O360  1  0.90372000  0.47585000  0.59101000  1
  O  O361  1  0.59628000  0.47585000  0.09101000  1
  O  O362  1  0.45687000  0.41321000  0.93929000  1
  O  O363  1  0.04313000  0.41321000  0.43929000  1
  O  O364  1  0.47161000  0.33559000  0.07043000  1
  O  O365  1  0.02839000  0.33559000  0.57043000  1
  O  O366  1  0.90255000  0.28832000  0.42037000  1
  O  O367  1  0.59745000  0.28832000  0.92037000  1
  O  O368  1  0.40964000  0.22485000  0.09290000  1
  O  O369  1  0.09036000  0.22485000  0.59290000  1
  O  O370  1  0.97474000  0.18098000  0.44158000  1
  O  O371  1  0.52526000  0.18098000  0.94158000  1
  O  O372  1  0.96787000  0.07640000  0.55864000  1
  O  O373  1  0.53213000  0.07640000  0.05864000  1
  O  O374  1  0.40654000  0.03529000  0.92003000  1
  O  O375  1  0.09346000  0.03529000  0.42003000  1
