# generated using pymatgen
data_MnH6(C8O3)2
_symmetry_space_group_name_H-M   'P 1'
_cell_length_a   14.61500000
_cell_length_b   16.58500000
_cell_length_c   20.55900000
_cell_angle_alpha   99.33000000
_cell_angle_beta   107.46000000
_cell_angle_gamma   100.74000000
_symmetry_Int_Tables_number   1
_chemical_formula_structural   MnH6(C8O3)2
_chemical_formula_sum   'Mn7 H42 C112 O42'
_cell_volume   4542.28133145
_cell_formula_units_Z   7
loop_
 _symmetry_equiv_pos_site_id
 _symmetry_equiv_pos_as_xyz
  1  'x, y, z'
loop_
 _atom_site_type_symbol
 _atom_site_label
 _atom_site_symmetry_multiplicity
 _atom_site_fract_x
 _atom_site_fract_y
 _atom_site_fract_z
 _atom_site_occupancy
  Mn  Mn0  1  0.00000000  0.00000000  0.00000000  1
  Mn  Mn1  1  0.00992000  0.39337000  0.34370000  1
  Mn  Mn2  1  0.06038000  0.22073000  0.23775000  1
  Mn  Mn3  1  0.14861000  0.06266000  0.18266000  1
  Mn  Mn4  1  0.85139000  0.93734000  0.81734000  1
  Mn  Mn5  1  0.93962000  0.77927000  0.76225000  1
  Mn  Mn6  1  0.99008000  0.60663000  0.65630000  1
  H  H7  1  0.01510000  0.47660000  0.83850000  1
  H  H8  1  0.02170000  0.20670000  0.49700000  1
  H  H9  1  0.06340000  0.25620000  0.97840000  1
  H  H10  1  0.07260000  0.91180000  0.70940000  1
  H  H11  1  0.07870000  0.04220000  0.67750000  1
  H  H12  1  0.10620000  0.72270000  0.94260000  1
  H  H13  1  0.14840000  0.11380000  0.95000000  1
  H  H14  1  0.15970000  0.18910000  0.40520000  1
  H  H15  1  0.18320000  0.68530000  0.04340000  1
  H  H16  1  0.20580000  0.84730000  0.98240000  1
  H  H17  1  0.21320000  0.32910000  0.18510000  1
  H  H18  1  0.22010000  0.28000000  0.51870000  1
  H  H19  1  0.23380000  0.92850000  0.84750000  1
  H  H20  1  0.24330000  0.47000000  0.18090000  1
  H  H21  1  0.30740000  0.52050000  0.44640000  1
  H  H22  1  0.31430000  0.19240000  0.99750000  1
  H  H23  1  0.33120000  0.78550000  0.96130000  1
  H  H24  1  0.35630000  0.38880000  0.28200000  1
  H  H25  1  0.41020000  0.04520000  0.12190000  1
  H  H26  1  0.42210000  0.24780000  0.38070000  1
  H  H27  1  0.48890000  0.52030000  0.68740000  1
  H  H28  1  0.51110000  0.47970000  0.31260000  1
  H  H29  1  0.57790000  0.75220000  0.61930000  1
  H  H30  1  0.58980000  0.95480000  0.87810000  1
  H  H31  1  0.64370000  0.61120000  0.71800000  1
  H  H32  1  0.66880000  0.21450000  0.03870000  1
  H  H33  1  0.68570000  0.80760000  0.00250000  1
  H  H34  1  0.69260000  0.47950000  0.55360000  1
  H  H35  1  0.75670000  0.53000000  0.81910000  1
  H  H36  1  0.76620000  0.07150000  0.15250000  1
  H  H37  1  0.77990000  0.72000000  0.48130000  1
  H  H38  1  0.78680000  0.67090000  0.81490000  1
  H  H39  1  0.79420000  0.15270000  0.01760000  1
  H  H40  1  0.81680000  0.31470000  0.95660000  1
  H  H41  1  0.84030000  0.81090000  0.59480000  1
  H  H42  1  0.85160000  0.88620000  0.05000000  1
  H  H43  1  0.89380000  0.27730000  0.05740000  1
  H  H44  1  0.92130000  0.95780000  0.32250000  1
  H  H45  1  0.92740000  0.08820000  0.29060000  1
  H  H46  1  0.93660000  0.74380000  0.02160000  1
  H  H47  1  0.97830000  0.79330000  0.50300000  1
  H  H48  1  0.98490000  0.52340000  0.16150000  1
  C  C49  1  0.00070000  0.15590000  0.46170000  1
  C  C50  1  0.00250000  0.92020000  0.51990000  1
  C  C51  1  0.01620000  0.63130000  0.81310000  1
  C  C52  1  0.01630000  0.75750000  0.62730000  1
  C  C53  1  0.02710000  0.84120000  0.60910000  1
  C  C54  1  0.03180000  0.99510000  0.57290000  1
  C  C55  1  0.03310000  0.07720000  0.55370000  1
  C  C56  1  0.04880000  0.51920000  0.88040000  1
  C  C57  1  0.05550000  0.91420000  0.66150000  1
  C  C58  1  0.05700000  0.60230000  0.87920000  1
  C  C59  1  0.05820000  0.99150000  0.64220000  1
  C  C60  1  0.07020000  0.95990000  0.86460000  1
  C  C61  1  0.08360000  0.40620000  0.94760000  1
  C  C62  1  0.09140000  0.49700000  0.94500000  1
  C  C63  1  0.09980000  0.29930000  0.01950000  1
  C  C64  1  0.10450000  0.66510000  0.94230000  1
  C  C65  1  0.11180000  0.19140000  0.09150000  1
  C  C66  1  0.11970000  0.38630000  0.01620000  1
  C  C67  1  0.13450000  0.27940000  0.08340000  1
  C  C68  1  0.14170000  0.56020000  0.00540000  1
  C  C69  1  0.14750000  0.64240000  0.00200000  1
  C  C70  1  0.17090000  0.44900000  0.07450000  1
  C  C71  1  0.17530000  0.01420000  0.89610000  1
  C  C72  1  0.18310000  0.53890000  0.07290000  1
  C  C73  1  0.18790000  0.34330000  0.14140000  1
  C  C74  1  0.19860000  0.09120000  0.93920000  1
  C  C75  1  0.20680000  0.42750000  0.13940000  1
  C  C76  1  0.21720000  0.98500000  0.06910000  1
  C  C77  1  0.21770000  0.38580000  0.34010000  1
  C  C78  1  0.22690000  0.22070000  0.42310000  1
  C  C79  1  0.24070000  0.15620000  0.31280000  1
  C  C80  1  0.25080000  0.98200000  0.87890000  1
  C  C81  1  0.26090000  0.27630000  0.49060000  1
  C  C82  1  0.27350000  0.87560000  0.00640000  1
  C  C83  1  0.28220000  0.21020000  0.38370000  1
  C  C84  1  0.29780000  0.95140000  0.05310000  1
  C  C85  1  0.29850000  0.13770000  0.96800000  1
  C  C86  1  0.31830000  0.44270000  0.36100000  1
  C  C87  1  0.34760000  0.83870000  0.99310000  1
  C  C88  1  0.34860000  0.02770000  0.90710000  1
  C  C89  1  0.34990000  0.51090000  0.42040000  1
  C  C90  1  0.36030000  0.32600000  0.51330000  1
  C  C91  1  0.37330000  0.10690000  0.95510000  1
  C  C92  1  0.37840000  0.43390000  0.32250000  1
  C  C93  1  0.38110000  0.25620000  0.40800000  1
  C  C94  1  0.39430000  0.99350000  0.08830000  1
  C  C95  1  0.39700000  0.39030000  0.57990000  1
  C  C96  1  0.41940000  0.31440000  0.47270000  1
  C  C97  1  0.42570000  0.99120000  0.89070000  1
  C  C98  1  0.44400000  0.88250000  0.02780000  1
  C  C99  1  0.44500000  0.56370000  0.44020000  1
  C  C100  1  0.47030000  0.48800000  0.34010000  1
  C  C101  1  0.47100000  0.96010000  0.07460000  1
  C  C102  1  0.47510000  0.15470000  0.98570000  1
  C  C103  1  0.47680000  0.63180000  0.50190000  1
  C  C104  1  0.49750000  0.44500000  0.60130000  1
  C  C105  1  0.50250000  0.55500000  0.39870000  1
  C  C106  1  0.52320000  0.36820000  0.49810000  1
  C  C107  1  0.52490000  0.84530000  0.01430000  1
  C  C108  1  0.52900000  0.03990000  0.92540000  1
  C  C109  1  0.52970000  0.51200000  0.65990000  1
  C  C110  1  0.55500000  0.43630000  0.55980000  1
  C  C111  1  0.55600000  0.11750000  0.97220000  1
  C  C112  1  0.57430000  0.00880000  0.10930000  1
  C  C113  1  0.58060000  0.68560000  0.52730000  1
  C  C114  1  0.60300000  0.60970000  0.42010000  1
  C  C115  1  0.60570000  0.00650000  0.91170000  1
  C  C116  1  0.61890000  0.74380000  0.59200000  1
  C  C117  1  0.62160000  0.56610000  0.67750000  1
  C  C118  1  0.62670000  0.89310000  0.04490000  1
  C  C119  1  0.63970000  0.67400000  0.48670000  1
  C  C120  1  0.65010000  0.48910000  0.57960000  1
  C  C121  1  0.65140000  0.97230000  0.09290000  1
  C  C122  1  0.65240000  0.16130000  0.00690000  1
  C  C123  1  0.68170000  0.55730000  0.63900000  1
  C  C124  1  0.70150000  0.86230000  0.03200000  1
  C  C125  1  0.70220000  0.04860000  0.94690000  1
  C  C126  1  0.71780000  0.78980000  0.61630000  1
  C  C127  1  0.72650000  0.12440000  0.99360000  1
  C  C128  1  0.73910000  0.72370000  0.50940000  1
  C  C129  1  0.74920000  0.01800000  0.12110000  1
  C  C130  1  0.75930000  0.84380000  0.68720000  1
  C  C131  1  0.77310000  0.77930000  0.57690000  1
  C  C132  1  0.78230000  0.61420000  0.65990000  1
  C  C133  1  0.78280000  0.01500000  0.93090000  1
  C  C134  1  0.79320000  0.57250000  0.86060000  1
  C  C135  1  0.80140000  0.90880000  0.06080000  1
  C  C136  1  0.81210000  0.65670000  0.85860000  1
  C  C137  1  0.81690000  0.46110000  0.92710000  1
  C  C138  1  0.82470000  0.98580000  0.10390000  1
  C  C139  1  0.82910000  0.55100000  0.92550000  1
  C  C140  1  0.85250000  0.35760000  0.99800000  1
  C  C141  1  0.85830000  0.43980000  0.99460000  1
  C  C142  1  0.86550000  0.72060000  0.91660000  1
  C  C143  1  0.88030000  0.61370000  0.98380000  1
  C  C144  1  0.88820000  0.80860000  0.90850000  1
  C  C145  1  0.89550000  0.33490000  0.05770000  1
  C  C146  1  0.90020000  0.70070000  0.98050000  1
  C  C147  1  0.90860000  0.50300000  0.05500000  1
  C  C148  1  0.91640000  0.59380000  0.05240000  1
  C  C149  1  0.92980000  0.04010000  0.13540000  1
  C  C150  1  0.94180000  0.00850000  0.35780000  1
  C  C151  1  0.94300000  0.39770000  0.12080000  1
  C  C152  1  0.94450000  0.08580000  0.33850000  1
  C  C153  1  0.95120000  0.48080000  0.11960000  1
  C  C154  1  0.96690000  0.92280000  0.44630000  1
  C  C155  1  0.96820000  0.00490000  0.42710000  1
  C  C156  1  0.97290000  0.15880000  0.39090000  1
  C  C157  1  0.98370000  0.24250000  0.37270000  1
  C  C158  1  0.98380000  0.36870000  0.18690000  1
  C  C159  1  0.99750000  0.07980000  0.48010000  1
  C  C160  1  0.99930000  0.84410000  0.53830000  1
  O  O161  1  0.00490000  0.69130000  0.58370000  1
  O  O162  1  0.00610000  0.98850000  0.88763000  1
  O  O163  1  0.00730000  0.42150000  0.24430000  1
  O  O164  1  0.01590000  0.70790000  0.82300000  1
  O  O165  1  0.01590000  0.75360000  0.68940000  1
  O  O166  1  0.04410000  0.35140000  0.89240000  1
  O  O167  1  0.05150000  0.89630000  0.82130000  1
  O  O168  1  0.05840000  0.14310000  0.60100000  1
  O  O169  1  0.07790000  0.13320000  0.03890000  1
  O  O170  1  0.12990000  0.95540000  0.02620000  1
  O  O171  1  0.13060000  0.18130000  0.15320000  1
  O  O172  1  0.14560000  0.13700000  0.28454000  1
  O  O173  1  0.16350000  0.40520000  0.37440000  1
  O  O174  1  0.19240000  0.32080000  0.29150000  1
  O  O175  1  0.23580000  0.59410000  0.12630000  1
  O  O176  1  0.23990000  0.03880000  0.12600000  1
  O  O177  1  0.29080000  0.12980000  0.27890000  1
  O  O178  1  0.34700000  0.39690000  0.61900000  1
  O  O179  1  0.40490000  0.92380000  0.84800000  1
  O  O180  1  0.42450000  0.64630000  0.53680000  1
  O  O181  1  0.49780000  0.22440000  0.02790000  1
  O  O182  1  0.50220000  0.77560000  0.97210000  1
  O  O183  1  0.57550000  0.35370000  0.46320000  1
  O  O184  1  0.59510000  0.07620000  0.15200000  1
  O  O185  1  0.65300000  0.60310000  0.38100000  1
  O  O186  1  0.70920000  0.87020000  0.72110000  1
  O  O187  1  0.76010000  0.96120000  0.87400000  1
  O  O188  1  0.76420000  0.40590000  0.87370000  1
  O  O189  1  0.80760000  0.67920000  0.70850000  1
  O  O190  1  0.83650000  0.59480000  0.62560000  1
  O  O191  1  0.85440000  0.86300000  0.71546000  1
  O  O192  1  0.86940000  0.81870000  0.84680000  1
  O  O193  1  0.87010000  0.04460000  0.97380000  1
  O  O194  1  0.92210000  0.86680000  0.96110000  1
  O  O195  1  0.94160000  0.85690000  0.39900000  1
  O  O196  1  0.94850000  0.10370000  0.17870000  1
  O  O197  1  0.95590000  0.64860000  0.10760000  1
  O  O198  1  0.98410000  0.24640000  0.31060000  1
  O  O199  1  0.98410000  0.29210000  0.17700000  1
  O  O200  1  0.99270000  0.57850000  0.75570000  1
  O  O201  1  0.99390000  0.01150000  0.11237000  1
  O  O202  1  0.99510000  0.30870000  0.41630000  1
