# generated using pymatgen
data_EuH66C48(N2O3)4
_symmetry_space_group_name_H-M   'P 1'
_cell_length_a   12.13900000
_cell_length_b   12.61100000
_cell_length_c   21.57100000
_cell_angle_alpha   90.00000000
_cell_angle_beta   90.00000000
_cell_angle_gamma   90.35100000
_symmetry_Int_Tables_number   1
_chemical_formula_structural   EuH66C48(N2O3)4
_chemical_formula_sum   'Eu2 H132 C96 N16 O24'
_cell_volume   3302.13303933
_cell_formula_units_Z   2
loop_
 _symmetry_equiv_pos_site_id
 _symmetry_equiv_pos_as_xyz
  1  'x, y, z'
loop_
 _atom_site_type_symbol
 _atom_site_label
 _atom_site_symmetry_multiplicity
 _atom_site_fract_x
 _atom_site_fract_y
 _atom_site_fract_z
 _atom_site_occupancy
  Eu  Eu0  1  0.74308000  0.99612000  0.95763000  1
  Eu  Eu1  1  0.25692000  0.00388000  0.45763000  1
  H  H2  1  0.99210000  0.53130000  0.31930000  1
  H  H3  1  0.98430000  0.66140000  0.50800000  1
  H  H4  1  0.97770000  0.87580000  0.47780000  1
  H  H5  1  0.95900000  0.67420000  0.40200000  1
  H  H6  1  0.95450000  0.33520000  0.33150000  1
  H  H7  1  0.94350000  0.67930000  0.07050000  1
  H  H8  1  0.94180000  0.24450000  0.66840000  1
  H  H9  1  0.94170000  0.68180000  0.26460000  1
  H  H10  1  0.94140000  0.26530000  0.27010000  1
  H  H11  1  0.94070000  0.47990000  0.43610000  1
  H  H12  1  0.93450000  0.20150000  0.94620000  1
  H  H13  1  0.92740000  0.89430000  0.09190000  1
  H  H14  1  0.92070000  0.74990000  0.69970000  1
  H  H15  1  0.91990000  0.76460000  0.87540000  1
  H  H16  1  0.91460000  0.64110000  0.60690000  1
  H  H17  1  0.90820000  0.18750000  0.60480000  1
  H  H18  1  0.90240000  0.34900000  0.17340000  1
  H  H19  1  0.89440000  0.84960000  0.82220000  1
  H  H20  1  0.89440000  0.41070000  0.62660000  1
  H  H21  1  0.87120000  0.81030000  0.56280000  1
  H  H22  1  0.86470000  0.35580000  0.56150000  1
  H  H23  1  0.86180000  0.63440000  0.80030000  1
  H  H24  1  0.85720000  0.50100000  0.11810000  1
  H  H25  1  0.85600000  0.74980000  0.41400000  1
  H  H26  1  0.85600000  0.76360000  0.17940000  1
  H  H27  1  0.83200000  0.57880000  0.69370000  1
  H  H28  1  0.82330000  0.82990000  0.06530000  1
  H  H29  1  0.82180000  0.33490000  0.43760000  1
  H  H30  1  0.82030000  0.58770000  0.56490000  1
  H  H31  1  0.81170000  0.79580000  0.73140000  1
  H  H32  1  0.81070000  0.36080000  0.71520000  1
  H  H33  1  0.78910000  0.69200000  0.13110000  1
  H  H34  1  0.78170000  0.75370000  0.51900000  1
  H  H35  1  0.72130000  0.63200000  0.71960000  1
  H  H36  1  0.71640000  0.25080000  0.51800000  1
  H  H37  1  0.71580000  0.19450000  0.72290000  1
  H  H38  1  0.70250000  0.34080000  0.80560000  1
  H  H39  1  0.69710000  0.41740000  0.69710000  1
  H  H40  1  0.69160000  0.33080000  0.15890000  1
  H  H41  1  0.68990000  0.41940000  0.56600000  1
  H  H42  1  0.68680000  0.21870000  0.08000000  1
  H  H43  1  0.67890000  0.67620000  0.42820000  1
  H  H44  1  0.64850000  0.20320000  0.87600000  1
  H  H45  1  0.64350000  0.52230000  0.15070000  1
  H  H46  1  0.64330000  0.63730000  0.56860000  1
  H  H47  1  0.64320000  0.12770000  0.81650000  1
  H  H48  1  0.63950000  0.26230000  0.41390000  1
  H  H49  1  0.62620000  0.19950000  0.56330000  1
  H  H50  1  0.62360000  0.58550000  0.63570000  1
  H  H51  1  0.61380000  0.25400000  0.19880000  1
  H  H52  1  0.60250000  0.25200000  0.70580000  1
  H  H53  1  0.60030000  0.36750000  0.61160000  1
  H  H54  1  0.59260000  0.80310000  0.60660000  1
  H  H55  1  0.59210000  0.13620000  0.09940000  1
  H  H56  1  0.58360000  0.66940000  0.20500000  1
  H  H57  1  0.57750000  0.75440000  0.67480000  1
  H  H58  1  0.57260000  0.52430000  0.82790000  1
  H  H59  1  0.56780000  0.78160000  0.95050000  1
  H  H60  1  0.55870000  0.53190000  0.43000000  1
  H  H61  1  0.54700000  0.35200000  0.08950000  1
  H  H62  1  0.53790000  0.34090000  0.40510000  1
  H  H63  1  0.53250000  0.33210000  0.85330000  1
  H  H64  1  0.52350000  0.13850000  0.47590000  1
  H  H65  1  0.51880000  0.35030000  0.51170000  1
  H  H66  1  0.51100000  0.74310000  0.29880000  1
  H  H67  1  0.50860000  0.67100000  0.77320000  1
  H  H68  1  0.49140000  0.32900000  0.27320000  1
  H  H69  1  0.48900000  0.25690000  0.79880000  1
  H  H70  1  0.48120000  0.64970000  0.01170000  1
  H  H71  1  0.47650000  0.86150000  0.97590000  1
  H  H72  1  0.46750000  0.66790000  0.35330000  1
  H  H73  1  0.46210000  0.65910000  0.90510000  1
  H  H74  1  0.45300000  0.64800000  0.58950000  1
  H  H75  1  0.44130000  0.46810000  0.93000000  1
  H  H76  1  0.43220000  0.21840000  0.45050000  1
  H  H77  1  0.42740000  0.47570000  0.32790000  1
  H  H78  1  0.42250000  0.24560000  0.17480000  1
  H  H79  1  0.41640000  0.33060000  0.70500000  1
  H  H80  1  0.40790000  0.86380000  0.59940000  1
  H  H81  1  0.40740000  0.19690000  0.10660000  1
  H  H82  1  0.39970000  0.63250000  0.11160000  1
  H  H83  1  0.39750000  0.74800000  0.20580000  1
  H  H84  1  0.38620000  0.74600000  0.69880000  1
  H  H85  1  0.37640000  0.41450000  0.13570000  1
  H  H86  1  0.37380000  0.80050000  0.06330000  1
  H  H87  1  0.36050000  0.73770000  0.91390000  1
  H  H88  1  0.35680000  0.87230000  0.31650000  1
  H  H89  1  0.35670000  0.36270000  0.06860000  1
  H  H90  1  0.35650000  0.47770000  0.65070000  1
  H  H91  1  0.35150000  0.79680000  0.37600000  1
  H  H92  1  0.32110000  0.32380000  0.92820000  1
  H  H93  1  0.31320000  0.78130000  0.58000000  1
  H  H94  1  0.31010000  0.58060000  0.06600000  1
  H  H95  1  0.30840000  0.66920000  0.65890000  1
  H  H96  1  0.30290000  0.58260000  0.19710000  1
  H  H97  1  0.29750000  0.65920000  0.30560000  1
  H  H98  1  0.28420000  0.80550000  0.22290000  1
  H  H99  1  0.28360000  0.74920000  0.01800000  1
  H  H100  1  0.27870000  0.36800000  0.21960000  1
  H  H101  1  0.21830000  0.24630000  0.01900000  1
  H  H102  1  0.21090000  0.30800000  0.63110000  1
  H  H103  1  0.18930000  0.63920000  0.21520000  1
  H  H104  1  0.18830000  0.20420000  0.23140000  1
  H  H105  1  0.17970000  0.41230000  0.06490000  1
  H  H106  1  0.17820000  0.66510000  0.93760000  1
  H  H107  1  0.17670000  0.17010000  0.56530000  1
  H  H108  1  0.16800000  0.42120000  0.19370000  1
  H  H109  1  0.14400000  0.25020000  0.91400000  1
  H  H110  1  0.14400000  0.23640000  0.67940000  1
  H  H111  1  0.14280000  0.49900000  0.61810000  1
  H  H112  1  0.13820000  0.36560000  0.30030000  1
  H  H113  1  0.13530000  0.64420000  0.06150000  1
  H  H114  1  0.12880000  0.18970000  0.06280000  1
  H  H115  1  0.10560000  0.15040000  0.32220000  1
  H  H116  1  0.10560000  0.58930000  0.12660000  1
  H  H117  1  0.09760000  0.65100000  0.67340000  1
  H  H118  1  0.09180000  0.81250000  0.10480000  1
  H  H119  1  0.08540000  0.35890000  0.10690000  1
  H  H120  1  0.08010000  0.23540000  0.37540000  1
  H  H121  1  0.07930000  0.25010000  0.19970000  1
  H  H122  1  0.07260000  0.10570000  0.59190000  1
  H  H123  1  0.06550000  0.79850000  0.44620000  1
  H  H124  1  0.05930000  0.52010000  0.93610000  1
  H  H125  1  0.05860000  0.73470000  0.77010000  1
  H  H126  1  0.05830000  0.31820000  0.76460000  1
  H  H127  1  0.05820000  0.75550000  0.16840000  1
  H  H128  1  0.05650000  0.32070000  0.57050000  1
  H  H129  1  0.04550000  0.66480000  0.83150000  1
  H  H130  1  0.04100000  0.32580000  0.90200000  1
  H  H131  1  0.02230000  0.12420000  0.97780000  1
  H  H132  1  0.01570000  0.33860000  0.00800000  1
  H  H133  1  0.00790000  0.46870000  0.81930000  1
  C  C134  1  0.98090000  0.32660000  0.28840000  1
  C  C135  1  0.97880000  0.18950000  0.98410000  1
  C  C136  1  0.96390000  0.52460000  0.27840000  1
  C  C137  1  0.95380000  0.83650000  0.00270000  1
  C  C138  1  0.95260000  0.42510000  0.25190000  1
  C  C139  1  0.94010000  0.25320000  0.62280000  1
  C  C140  1  0.93420000  0.61410000  0.24570000  1
  C  C141  1  0.91150000  0.41680000  0.19200000  1
  C  C142  1  0.90480000  0.83090000  0.06790000  1
  C  C143  1  0.90170000  0.17350000  0.03900000  1
  C  C144  1  0.89720000  0.68860000  0.43070000  1
  C  C145  1  0.89350000  0.60680000  0.18530000  1
  C  C146  1  0.88370000  0.50760000  0.15940000  1
  C  C147  1  0.87430000  0.77850000  0.83820000  1
  C  C148  1  0.86620000  0.34500000  0.60690000  1
  C  C149  1  0.86330000  0.49050000  0.43460000  1
  C  C150  1  0.86240000  0.70360000  0.15010000  1
  C  C151  1  0.85720000  0.73150000  0.72650000  1
  C  C152  1  0.85280000  0.74370000  0.54070000  1
  C  C153  1  0.84270000  0.65350000  0.58660000  1
  C  C154  1  0.82130000  0.59270000  0.43170000  1
  C  C155  1  0.80180000  0.16940000  0.84050000  1
  C  C156  1  0.79240000  0.40440000  0.43540000  1
  C  C157  1  0.78940000  0.64540000  0.69560000  1
  C  C158  1  0.75660000  0.77770000  0.85610000  1
  C  C159  1  0.73870000  0.35030000  0.69450000  1
  C  C160  1  0.70780000  0.60640000  0.43000000  1
  C  C161  1  0.67990000  0.19100000  0.83430000  1
  C  C162  1  0.67930000  0.41750000  0.43300000  1
  C  C163  1  0.67450000  0.26170000  0.72670000  1
  C  C164  1  0.66830000  0.35350000  0.58780000  1
  C  C165  1  0.64750000  0.26510000  0.54100000  1
  C  C166  1  0.64640000  0.65100000  0.61380000  1
  C  C167  1  0.63610000  0.52110000  0.43080000  1
  C  C168  1  0.61430000  0.31670000  0.17120000  1
  C  C169  1  0.60630000  0.20520000  0.07900000  1
  C  C170  1  0.60120000  0.32400000  0.43220000  1
  C  C171  1  0.59950000  0.51310000  0.18680000  1
  C  C172  1  0.59110000  0.82090000  0.04270000  1
  C  C173  1  0.57170000  0.41070000  0.20650000  1
  C  C174  1  0.57130000  0.73860000  0.62990000  1
  C  C175  1  0.56810000  0.19960000  0.01240000  1
  C  C176  1  0.56410000  0.60020000  0.21880000  1
  C  C177  1  0.53880000  0.31710000  0.80840000  1
  C  C178  1  0.52850000  0.51430000  0.79200000  1
  C  C179  1  0.51950000  0.79740000  0.98620000  1
  C  C180  1  0.50920000  0.39840000  0.25900000  1
  C  C181  1  0.50180000  0.41340000  0.77250000  1
  C  C182  1  0.49820000  0.58660000  0.27250000  1
  C  C183  1  0.49080000  0.60160000  0.75900000  1
  C  C184  1  0.48050000  0.20260000  0.48620000  1
  C  C185  1  0.47150000  0.48570000  0.29200000  1
  C  C186  1  0.46120000  0.68290000  0.30840000  1
  C  C187  1  0.43590000  0.39980000  0.71880000  1
  C  C188  1  0.43190000  0.80040000  0.51240000  1
  C  C189  1  0.42870000  0.26140000  0.12990000  1
  C  C190  1  0.42830000  0.58930000  0.70650000  1
  C  C191  1  0.40890000  0.17910000  0.54270000  1
  C  C192  1  0.40050000  0.48690000  0.68680000  1
  C  C193  1  0.39880000  0.67600000  0.93220000  1
  C  C194  1  0.39370000  0.79480000  0.57900000  1
  C  C195  1  0.38570000  0.68330000  0.67120000  1
  C  C196  1  0.36390000  0.47890000  0.93080000  1
  C  C197  1  0.35360000  0.34900000  0.11380000  1
  C  C198  1  0.35250000  0.73490000  0.04100000  1
  C  C199  1  0.33170000  0.64650000  0.08780000  1
  C  C200  1  0.32550000  0.73830000  0.22670000  1
  C  C201  1  0.32070000  0.58250000  0.93300000  1
  C  C202  1  0.32010000  0.80900000  0.33430000  1
  C  C203  1  0.29220000  0.39360000  0.93000000  1
  C  C204  1  0.26130000  0.64970000  0.19450000  1
  C  C205  1  0.24340000  0.22230000  0.35610000  1
  C  C206  1  0.21060000  0.35460000  0.19560000  1
  C  C207  1  0.20760000  0.59560000  0.93540000  1
  C  C208  1  0.19820000  0.83060000  0.34050000  1
  C  C209  1  0.17870000  0.40730000  0.93170000  1
  C  C210  1  0.15730000  0.34650000  0.08660000  1
  C  C211  1  0.14720000  0.25630000  0.04070000  1
  C  C212  1  0.14280000  0.26850000  0.22650000  1
  C  C213  1  0.13760000  0.29640000  0.65010000  1
  C  C214  1  0.13670000  0.50950000  0.93460000  1
  C  C215  1  0.13380000  0.65500000  0.10690000  1
  C  C216  1  0.12570000  0.22150000  0.33820000  1
  C  C217  1  0.11630000  0.49240000  0.65940000  1
  C  C218  1  0.10650000  0.39320000  0.68530000  1
  C  C219  1  0.10280000  0.31140000  0.93070000  1
  C  C220  1  0.09830000  0.82650000  0.53900000  1
  C  C221  1  0.09520000  0.16910000  0.56790000  1
  C  C222  1  0.08850000  0.58320000  0.69200000  1
  C  C223  1  0.06580000  0.38590000  0.74570000  1
  C  C224  1  0.05990000  0.74680000  0.12280000  1
  C  C225  1  0.04740000  0.57490000  0.75190000  1
  C  C226  1  0.04620000  0.16350000  0.50270000  1
  C  C227  1  0.03610000  0.47540000  0.77840000  1
  C  C228  1  0.02120000  0.81050000  0.48410000  1
  C  C229  1  0.01910000  0.67340000  0.78840000  1
  N  N230  1  0.94390000  0.71850000  0.49310000  1
  N  N231  1  0.94360000  0.73380000  0.09950000  1
  N  N232  1  0.89890000  0.69650000  0.78960000  1
  N  N233  1  0.76140000  0.68110000  0.63220000  1
  N  N234  1  0.75560000  0.32140000  0.62950000  1
  N  N235  1  0.65580000  0.28560000  0.79400000  1
  N  N236  1  0.55820000  0.29350000  0.49570000  1
  N  N237  1  0.54820000  0.29170000  0.11430000  1
  N  N238  1  0.45180000  0.70830000  0.61430000  1
  N  N239  1  0.44180000  0.70650000  0.99570000  1
  N  N240  1  0.34420000  0.71440000  0.29400000  1
  N  N241  1  0.24440000  0.67860000  0.12950000  1
  N  N242  1  0.23860000  0.31890000  0.13220000  1
  N  N243  1  0.10110000  0.30350000  0.28960000  1
  N  N244  1  0.05640000  0.26620000  0.59950000  1
  N  N245  1  0.05610000  0.28150000  0.99310000  1
  O  O246  1  0.97420000  0.22180000  0.48550000  1
  O  O247  1  0.91370000  0.91290000  0.96980000  1
  O  O248  1  0.91110000  0.23010000  0.08560000  1
  O  O249  1  0.86990000  0.22320000  0.81300000  1
  O  O250  1  0.83620000  0.09560000  0.03250000  1
  O  O251  1  0.82230000  0.09460000  0.87778000  1
  O  O252  1  0.73200000  0.84520000  0.89790000  1
  O  O253  1  0.69060000  0.71790000  0.83020000  1
  O  O254  1  0.65710000  0.89940000  0.03560000  1
  O  O255  1  0.62270000  0.13350000  0.97920000  1
  O  O256  1  0.58330000  0.76550000  0.08980000  1
  O  O257  1  0.50700000  0.74490000  0.49410000  1
  O  O258  1  0.49300000  0.25510000  0.99410000  1
  O  O259  1  0.41670000  0.23450000  0.58980000  1
  O  O260  1  0.37730000  0.86650000  0.47920000  1
  O  O261  1  0.34290000  0.10060000  0.53560000  1
  O  O262  1  0.30940000  0.28210000  0.33020000  1
  O  O263  1  0.26800000  0.15480000  0.39790000  1
  O  O264  1  0.17770000  0.90540000  0.37778000  1
  O  O265  1  0.16380000  0.90440000  0.53250000  1
  O  O266  1  0.13010000  0.77680000  0.31300000  1
  O  O267  1  0.08890000  0.76990000  0.58560000  1
  O  O268  1  0.08630000  0.08710000  0.46980000  1
  O  O269  1  0.02580000  0.77820000  0.98550000  1
