# generated using pymatgen
data_Mn4H21C15(N2O)6
_symmetry_space_group_name_H-M   'P 1'
_cell_length_a   8.05330000
_cell_length_b   13.51600000
_cell_length_c   13.51600000
_cell_angle_alpha   120.00000000
_cell_angle_beta   90.00000000
_cell_angle_gamma   90.00000000
_symmetry_Int_Tables_number   1
_chemical_formula_structural   Mn4H21C15(N2O)6
_chemical_formula_sum   'Mn8 H42 C30 N24 O12'
_cell_volume   1274.09225452
_cell_formula_units_Z   2
loop_
 _symmetry_equiv_pos_site_id
 _symmetry_equiv_pos_as_xyz
  1  'x, y, z'
loop_
 _atom_site_type_symbol
 _atom_site_label
 _atom_site_symmetry_multiplicity
 _atom_site_fract_x
 _atom_site_fract_y
 _atom_site_fract_z
 _atom_site_occupancy
  Mn  Mn0  1  0.45482000  0.96322000  0.66159000  1
  Mn  Mn1  1  0.45482000  0.69837000  0.03678000  1
  Mn  Mn2  1  0.07737000  0.66666667  0.33333333  1
  Mn  Mn3  1  0.95482000  0.66159000  0.69837000  1
  Mn  Mn4  1  0.45482000  0.33841000  0.30163000  1
  Mn  Mn5  1  0.57737000  0.33333333  0.66666667  1
  Mn  Mn6  1  0.95482000  0.30163000  0.96322000  1
  Mn  Mn7  1  0.95482000  0.03678000  0.33841000  1
  H  H8  1  0.69860000  0.98160000  0.53870000  1
  H  H9  1  0.94410000  0.95590000  0.60220000  1
  H  H10  1  0.84980000  0.91580000  0.67770000  1
  H  H11  1  0.56100000  0.91200000  0.19900000  1
  H  H12  1  0.70520000  0.86470000  0.51610000  1
  H  H13  1  0.29150000  0.86400000  0.28720000  1
  H  H14  1  0.55520000  0.84520000  0.25700000  1
  H  H15  1  0.56100000  0.80100000  0.71300000  1
  H  H16  1  0.84980000  0.76190000  0.08420000  1
  H  H17  1  0.55520000  0.74300000  0.58820000  1
  H  H18  1  0.06100000  0.71300000  0.91200000  1
  H  H19  1  0.29150000  0.71280000  0.57680000  1
  H  H20  1  0.34980000  0.67770000  0.76190000  1
  H  H21  1  0.70520000  0.65140000  0.13530000  1
  H  H22  1  0.94410000  0.64630000  0.04410000  1
  H  H23  1  0.44410000  0.60220000  0.64630000  1
  H  H24  1  0.05520000  0.58820000  0.84520000  1
  H  H25  1  0.79150000  0.57680000  0.86400000  1
  H  H26  1  0.69860000  0.55710000  0.01840000  1
  H  H27  1  0.19860000  0.53870000  0.55710000  1
  H  H28  1  0.20520000  0.51610000  0.65140000  1
  H  H29  1  0.70520000  0.48390000  0.34860000  1
  H  H30  1  0.69860000  0.46130000  0.44290000  1
  H  H31  1  0.19860000  0.44290000  0.98160000  1
  H  H32  1  0.29150000  0.42320000  0.13600000  1
  H  H33  1  0.55520000  0.41180000  0.15480000  1
  H  H34  1  0.94410000  0.39780000  0.35370000  1
  H  H35  1  0.44410000  0.35370000  0.95590000  1
  H  H36  1  0.20520000  0.34860000  0.86470000  1
  H  H37  1  0.84980000  0.32230000  0.23810000  1
  H  H38  1  0.79150000  0.28720000  0.42320000  1
  H  H39  1  0.56100000  0.28700000  0.08800000  1
  H  H40  1  0.05520000  0.25700000  0.41180000  1
  H  H41  1  0.34980000  0.23810000  0.91580000  1
  H  H42  1  0.06100000  0.19900000  0.28700000  1
  H  H43  1  0.05520000  0.15480000  0.74300000  1
  H  H44  1  0.79150000  0.13600000  0.71280000  1
  H  H45  1  0.20520000  0.13530000  0.48390000  1
  H  H46  1  0.06100000  0.08800000  0.80100000  1
  H  H47  1  0.34980000  0.08420000  0.32230000  1
  H  H48  1  0.44410000  0.04410000  0.39780000  1
  H  H49  1  0.19860000  0.01840000  0.46130000  1
  C  C50  1  0.84440000  0.96680000  0.64670000  1
  C  C51  1  0.33670000  0.90920000  0.25500000  1
  C  C52  1  0.22070000  0.89090000  0.15800000  1
  C  C53  1  0.22070000  0.84200000  0.73290000  1
  C  C54  1  0.22290000  0.79370000  0.44000000  1
  C  C55  1  0.95140000  0.78821000  0.32271000  1
  C  C56  1  0.33670000  0.74500000  0.65420000  1
  C  C57  1  0.72070000  0.73290000  0.89090000  1
  C  C58  1  0.84440000  0.67990000  0.03320000  1
  C  C59  1  0.95140000  0.67729000  0.46550000  1
  C  C60  1  0.83670000  0.65420000  0.90920000  1
  C  C61  1  0.34440000  0.64670000  0.67990000  1
  C  C62  1  0.22290000  0.64630000  0.20630000  1
  C  C63  1  0.22290000  0.56000000  0.35370000  1
  C  C64  1  0.95140000  0.53450000  0.21179000  1
  C  C65  1  0.45140000  0.46550000  0.78821000  1
  C  C66  1  0.72290000  0.44000000  0.64630000  1
  C  C67  1  0.72290000  0.35370000  0.79370000  1
  C  C68  1  0.84440000  0.35330000  0.32010000  1
  C  C69  1  0.33670000  0.34580000  0.09080000  1
  C  C70  1  0.45140000  0.32271000  0.53450000  1
  C  C71  1  0.34440000  0.32010000  0.96680000  1
  C  C72  1  0.22070000  0.26710000  0.10910000  1
  C  C73  1  0.83670000  0.25500000  0.34580000  1
  C  C74  1  0.45140000  0.21179000  0.67729000  1
  C  C75  1  0.72290000  0.20630000  0.56000000  1
  C  C76  1  0.72070000  0.15800000  0.26710000  1
  C  C77  1  0.72070000  0.10910000  0.84200000  1
  C  C78  1  0.83670000  0.09080000  0.74500000  1
  C  C79  1  0.34440000  0.03320000  0.35330000  1
  N  N80  1  0.69740000  0.93821000  0.57191000  1
  N  N81  1  0.30870000  0.86780000  0.50000000  1
  N  N82  1  0.89630000  0.86590000  0.32130000  1
  N  N83  1  0.50040000  0.86170000  0.20900000  1
  N  N84  1  0.50040000  0.79100000  0.65270000  1
  N  N85  1  0.89630000  0.67870000  0.54460000  1
  N  N86  1  0.00040000  0.65270000  0.86170000  1
  N  N87  1  0.69740000  0.63370000  0.06179000  1
  N  N88  1  0.30870000  0.63220000  0.13220000  1
  N  N89  1  0.19740000  0.57191000  0.63370000  1
  N  N90  1  0.39630000  0.54460000  0.86590000  1
  N  N91  1  0.80870000  0.50000000  0.63220000  1
  N  N92  1  0.30870000  0.50000000  0.36780000  1
  N  N93  1  0.89630000  0.45540000  0.13410000  1
  N  N94  1  0.69740000  0.42809000  0.36630000  1
  N  N95  1  0.80870000  0.36780000  0.86780000  1
  N  N96  1  0.19740000  0.36630000  0.93821000  1
  N  N97  1  0.50040000  0.34730000  0.13830000  1
  N  N98  1  0.39630000  0.32130000  0.45540000  1
  N  N99  1  0.00040000  0.20900000  0.34730000  1
  N  N100  1  0.00040000  0.13830000  0.79100000  1
  N  N101  1  0.39630000  0.13410000  0.67870000  1
  N  N102  1  0.80870000  0.13220000  0.50000000  1
  N  N103  1  0.19740000  0.06179000  0.42809000  1
  O  O104  1  0.09450000  0.95236000  0.18140000  1
  O  O105  1  0.25410000  0.94187000  0.75517000  1
  O  O106  1  0.09450000  0.81860000  0.77096000  1
  O  O107  1  0.25410000  0.81330000  0.05813000  1
  O  O108  1  0.59450000  0.77096000  0.95236000  1
  O  O109  1  0.75410000  0.75517000  0.81330000  1
  O  O110  1  0.25410000  0.24483000  0.18670000  1
  O  O111  1  0.09450000  0.22904000  0.04764000  1
  O  O112  1  0.75410000  0.18670000  0.94187000  1
  O  O113  1  0.59450000  0.18140000  0.22904000  1
  O  O114  1  0.75410000  0.05813000  0.24483000  1
  O  O115  1  0.59450000  0.04764000  0.81860000  1
