# generated using pymatgen
data_LaH25C28(NO4)2
_symmetry_space_group_name_H-M   'P 1'
_cell_length_a   8.99010000
_cell_length_b   17.09409345
_cell_length_c   31.41965449
_cell_angle_alpha   84.98827133
_cell_angle_beta   81.77476165
_cell_angle_gamma   74.75427368
_symmetry_Int_Tables_number   1
_chemical_formula_structural   LaH25C28(NO4)2
_chemical_formula_sum   'La4 H100 C112 N8 O32'
_cell_volume   4604.38720418
_cell_formula_units_Z   4
loop_
 _symmetry_equiv_pos_site_id
 _symmetry_equiv_pos_as_xyz
  1  'x, y, z'
loop_
 _atom_site_type_symbol
 _atom_site_label
 _atom_site_symmetry_multiplicity
 _atom_site_fract_x
 _atom_site_fract_y
 _atom_site_fract_z
 _atom_site_occupancy
  C  C0  1  0.79773000  0.60067000  0.29387000  1
  C  C1  1  0.30773000  0.10067000  0.79387000  1
  C  C2  1  0.58518000  0.46723000  0.40461000  1
  C  C3  1  0.54298000  0.96723000  0.90461000  1
  C  C4  1  0.82673000  0.63082000  0.21372000  1
  C  C5  1  0.32873000  0.13082000  0.71372000  1
  C  C6  1  0.88633000  0.58620000  0.24954000  1
  C  C7  1  0.27793000  0.08620000  0.74954000  1
  C  C8  1  0.65380000  0.86964000  0.96256000  1
  C  C9  1  0.51400000  0.36964000  0.46256000  1
  C  C10  1  0.66189000  0.89534000  0.91928000  1
  C  C11  1  0.52349000  0.39534000  0.41928000  1
  C  C12  1  0.85500000  0.66512000  0.13488000  1
  C  C13  1  0.34500000  0.16512000  0.63488000  1
  C  C14  1  0.76160000  0.77221000  0.02199000  1
  C  C15  1  0.44420000  0.27221000  0.52199000  1
  C  C16  1  0.91150000  0.61447000  0.17353000  1
  C  C17  1  0.30050000  0.11447000  0.67353000  1
  C  C18  1  0.76990000  0.80235000  0.97565000  1
  C  C19  1  0.45210000  0.30235000  0.47565000  1
  C  C20  1  0.02730000  0.52853000  0.24507000  1
  C  C21  1  0.19910000  0.02853000  0.74507000  1
  C  C22  1  0.78420000  0.85786000  0.88974000  1
  C  C23  1  0.46820000  0.35786000  0.38974000  1
  C  C24  1  0.05020000  0.55622000  0.16938000  1
  C  C25  1  0.22420000  0.05622000  0.66938000  1
  C  C26  1  0.11220000  0.51304000  0.20516000  1
  C  C27  1  0.16960000  0.01304000  0.70516000  1
  C  C28  1  0.88920000  0.76476000  0.94624000  1
  C  C29  1  0.39980000  0.26476000  0.44624000  1
  C  C30  1  0.71110000  0.96030000  0.74210000  1
  C  C31  1  0.58650000  0.46030000  0.24210000  1
  C  C32  1  0.90060000  0.79207000  0.90293000  1
  C  C33  1  0.40440000  0.29207000  0.40293000  1
  C  C34  1  0.97980000  0.34290000  0.34190000  1
  C  C35  1  0.33540000  0.84290000  0.84190000  1
  C  C36  1  0.04620000  0.90195000  0.73325000  1
  C  C37  1  0.31860000  0.40195000  0.23325000  1
  C  C38  1  0.06380000  0.78465000  0.83175000  1
  C  C39  1  0.31980000  0.28465000  0.33175000  1
  C  C40  1  0.78960000  0.88094000  0.72146000  1
  C  C41  1  0.60800000  0.38094000  0.22146000  1
  C  C42  1  0.06170000  0.26510000  0.31950000  1
  C  C43  1  0.35370000  0.76510000  0.81950000  1
  C  C44  1  0.89660000  0.36780000  0.20900000  1
  C  C45  1  0.52660000  0.86780000  0.70900000  1
  C  C46  1  0.95240000  0.85208000  0.71672000  1
  C  C47  1  0.47880000  0.35208000  0.21672000  1
  C  C48  1  0.79780000  0.24740000  0.31060000  1
  C  C49  1  0.64420000  0.74740000  0.81060000  1
  C  C50  1  0.22380000  0.23678000  0.31402000  1
  C  C51  1  0.22540000  0.73678000  0.81402000  1
  C  C52  1  0.75710000  0.33564000  0.20576000  1
  C  C53  1  0.70150000  0.83564000  0.70576000  1
  C  C54  1  0.97220000  0.22014000  0.30426000  1
  C  C55  1  0.50340000  0.72014000  0.80426000  1
  C  C56  1  0.02780000  0.77986000  0.69574000  1
  C  C57  1  0.49660000  0.27986000  0.19574000  1
  C  C58  1  0.24290000  0.66436000  0.79424000  1
  C  C59  1  0.29850000  0.16436000  0.29424000  1
  C  C60  1  0.77620000  0.76322000  0.68598000  1
  C  C61  1  0.77460000  0.26322000  0.18598000  1
  C  C62  1  0.20220000  0.75260000  0.68940000  1
  C  C63  1  0.35580000  0.25260000  0.18940000  1
  C  C64  1  0.04760000  0.14792000  0.28328000  1
  C  C65  1  0.52120000  0.64792000  0.78328000  1
  C  C66  1  0.10340000  0.63220000  0.79100000  1
  C  C67  1  0.47340000  0.13220000  0.29100000  1
  C  C68  1  0.93830000  0.73490000  0.68050000  1
  C  C69  1  0.64630000  0.23490000  0.18050000  1
  C  C70  1  0.21040000  0.11906000  0.27854000  1
  C  C71  1  0.39200000  0.61906000  0.77854000  1
  C  C72  1  0.93620000  0.21535000  0.16825000  1
  C  C73  1  0.68020000  0.71535000  0.66825000  1
  C  C74  1  0.95380000  0.09805000  0.26675000  1
  C  C75  1  0.68140000  0.59805000  0.76675000  1
  C  C76  1  0.02020000  0.65710000  0.65810000  1
  C  C77  1  0.66460000  0.15710000  0.15810000  1
  C  C78  1  0.09940000  0.20793000  0.09707000  1
  C  C79  1  0.59560000  0.70793000  0.59707000  1
  C  C80  1  0.28890000  0.03970000  0.25790000  1
  C  C81  1  0.41350000  0.53970000  0.75790000  1
  C  C82  1  0.11080000  0.23524000  0.05376000  1
  C  C83  1  0.60020000  0.73524000  0.55376000  1
  C  C84  1  0.88780000  0.48696000  0.79484000  1
  C  C85  1  0.83040000  0.98696000  0.29484000  1
  C  C86  1  0.94980000  0.44378000  0.83062000  1
  C  C87  1  0.77580000  0.94378000  0.33062000  1
  C  C88  1  0.21580000  0.14214000  0.11026000  1
  C  C89  1  0.53180000  0.64214000  0.61026000  1
  C  C90  1  0.97270000  0.47147000  0.75493000  1
  C  C91  1  0.80090000  0.97147000  0.25493000  1
  C  C92  1  0.23010000  0.19765000  0.02435000  1
  C  C93  1  0.54790000  0.69765000  0.52435000  1
  C  C94  1  0.08850000  0.38553000  0.82647000  1
  C  C95  1  0.69950000  0.88553000  0.32647000  1
  C  C96  1  0.23840000  0.22779000  0.97801000  1
  C  C97  1  0.55580000  0.72779000  0.47801000  1
  C  C98  1  0.14500000  0.33488000  0.86512000  1
  C  C99  1  0.65500000  0.83488000  0.36512000  1
  C  C100  1  0.33811000  0.10466000  0.08072000  1
  C  C101  1  0.47651000  0.60466000  0.58072000  1
  C  C102  1  0.34620000  0.13036000  0.03744000  1
  C  C103  1  0.48600000  0.63036000  0.53744000  1
  C  C104  1  0.11367000  0.41380000  0.75046000  1
  C  C105  1  0.72207000  0.91380000  0.25046000  1
  C  C106  1  0.17327000  0.36918000  0.78628000  1
  C  C107  1  0.67127000  0.86918000  0.28628000  1
  C  C108  1  0.41482000  0.53277000  0.59539000  1
  C  C109  1  0.45702000  0.03277000  0.09539000  1
  C  C110  1  0.20227000  0.39933000  0.70613000  1
  C  C111  1  0.69227000  0.89933000  0.20613000  1
  H  H112  1  0.73290000  0.67030000  0.21670000  1
  H  H113  1  0.38010000  0.17030000  0.71670000  1
  H  H114  1  0.57360000  0.89610000  0.98250000  1
  H  H115  1  0.54780000  0.39610000  0.48250000  1
  H  H116  1  0.06550000  0.49980000  0.26940000  1
  H  H117  1  0.16530000  0.99980000  0.76940000  1
  H  H118  1  0.87740000  0.70170000  0.05470000  1
  H  H119  1  0.36620000  0.20170000  0.55470000  1
  H  H120  1  0.78880000  0.87660000  0.86100000  1
  H  H121  1  0.47360000  0.37660000  0.36100000  1
  H  H122  1  0.77480000  0.99790000  0.73450000  1
  H  H123  1  0.49280000  0.49790000  0.23450000  1
  H  H124  1  0.69680000  0.95120000  0.77280000  1
  H  H125  1  0.57920000  0.45120000  0.27280000  1
  H  H126  1  0.67360000  0.48240000  0.23200000  1
  H  H127  1  0.61200000  0.98240000  0.73200000  1
  H  H128  1  0.02990000  0.34590000  0.36650000  1
  H  H129  1  0.25770000  0.84590000  0.86650000  1
  H  H130  1  0.98450000  0.38890000  0.32230000  1
  H  H131  1  0.30430000  0.88890000  0.82230000  1
  H  H132  1  0.87310000  0.34310000  0.35110000  1
  H  H133  1  0.43270000  0.84310000  0.85110000  1
  H  H134  1  0.98540000  0.93230000  0.75730000  1
  H  H135  1  0.32500000  0.43230000  0.25730000  1
  H  H136  1  0.10370000  0.54530000  0.14210000  1
  H  H137  1  0.20890000  0.04530000  0.64210000  1
  H  H138  1  0.96430000  0.72010000  0.95530000  1
  H  H139  1  0.36030000  0.22010000  0.45530000  1
  H  H140  1  0.06050000  0.84190000  0.83090000  1
  H  H141  1  0.26670000  0.34190000  0.33090000  1
  H  H142  1  0.06290000  0.95550000  0.67410000  1
  H  H143  1  0.88180000  0.39380000  0.23580000  1
  H  H144  1  0.48860000  0.89380000  0.73580000  1
  H  H145  1  0.30750000  0.45550000  0.17410000  1
  H  H146  1  0.13920000  0.86620000  0.74320000  1
  H  H147  1  0.25140000  0.36620000  0.24320000  1
  H  H148  1  0.76500000  0.30360000  0.30160000  1
  H  H149  1  0.62980000  0.80360000  0.80160000  1
  H  H150  1  0.08860000  0.71280000  0.88480000  1
  H  H151  1  0.31380000  0.21280000  0.38480000  1
  H  H152  1  0.98820000  0.77780000  0.81420000  1
  H  H153  1  0.41980000  0.27780000  0.31420000  1
  H  H154  1  0.90790000  0.40630000  0.18550000  1
  H  H155  1  0.50030000  0.90630000  0.68550000  1
  H  H156  1  0.76060000  0.23990000  0.34050000  1
  H  H157  1  0.65900000  0.73990000  0.84050000  1
  H  H158  1  0.98840000  0.32360000  0.20800000  1
  H  H159  1  0.48000000  0.82360000  0.70800000  1
  H  H160  1  0.75630000  0.21580000  0.29380000  1
  H  H161  1  0.73410000  0.71580000  0.79380000  1
  H  H162  1  0.24370000  0.78420000  0.70620000  1
  H  H163  1  0.26590000  0.28420000  0.20620000  1
  H  H164  1  0.01160000  0.67640000  0.79200000  1
  H  H165  1  0.52000000  0.17640000  0.29200000  1
  H  H166  1  0.23940000  0.76010000  0.65950000  1
  H  H167  1  0.34100000  0.26010000  0.15950000  1
  H  H168  1  0.09210000  0.59370000  0.81450000  1
  H  H169  1  0.49970000  0.09370000  0.31450000  1
  H  H170  1  0.01180000  0.22220000  0.18580000  1
  H  H171  1  0.58020000  0.72220000  0.68580000  1
  H  H172  1  0.91140000  0.28720000  0.11520000  1
  H  H173  1  0.68620000  0.78720000  0.61520000  1
  H  H174  1  0.23500000  0.69640000  0.69840000  1
  H  H175  1  0.37020000  0.19640000  0.19840000  1
  H  H176  1  0.86080000  0.13380000  0.25680000  1
  H  H177  1  0.74860000  0.63380000  0.75680000  1
  H  H178  1  0.11820000  0.60620000  0.76420000  1
  H  H179  1  0.93710000  0.04450000  0.32590000  1
  H  H180  1  0.69250000  0.54450000  0.82590000  1
  H  H181  1  0.51140000  0.10620000  0.26420000  1
  H  H182  1  0.93950000  0.15810000  0.16910000  1
  H  H183  1  0.73330000  0.65810000  0.66910000  1
  H  H184  1  0.03570000  0.27990000  0.04470000  1
  H  H185  1  0.63970000  0.77990000  0.54470000  1
  H  H186  1  0.89630000  0.45470000  0.85790000  1
  H  H187  1  0.79110000  0.95470000  0.35790000  1
  H  H188  1  0.01460000  0.06770000  0.24270000  1
  H  H189  1  0.67500000  0.56770000  0.74270000  1
  H  H190  1  0.12690000  0.65690000  0.64890000  1
  H  H191  1  0.56730000  0.15690000  0.14890000  1
  H  H192  1  0.01550000  0.61110000  0.67770000  1
  H  H193  1  0.69570000  0.11110000  0.17770000  1
  H  H194  1  0.97010000  0.65410000  0.63350000  1
  H  H195  1  0.74230000  0.15410000  0.13350000  1
  H  H196  1  0.32640000  0.51760000  0.76800000  1
  H  H197  1  0.38800000  0.01760000  0.26800000  1
  H  H198  1  0.30320000  0.04880000  0.22720000  1
  H  H199  1  0.42080000  0.54880000  0.72720000  1
  H  H200  1  0.22520000  0.00210000  0.26550000  1
  H  H201  1  0.50720000  0.50210000  0.76550000  1
  H  H202  1  0.21120000  0.12340000  0.13900000  1
  H  H203  1  0.52640000  0.62340000  0.63900000  1
  H  H204  1  0.12260000  0.29830000  0.94530000  1
  H  H205  1  0.63380000  0.79830000  0.44530000  1
  H  H206  1  0.93450000  0.50020000  0.73060000  1
  H  H207  1  0.83470000  0.00020000  0.23060000  1
  H  H208  1  0.42640000  0.10390000  0.01750000  1
  H  H209  1  0.45220000  0.60390000  0.51750000  1
  H  H210  1  0.26710000  0.32970000  0.78330000  1
  H  H211  1  0.61990000  0.82970000  0.28330000  1
  La  La212  1  0.64610000  0.87377000  0.11903000  1
  La  La213  1  0.36110000  0.37377000  0.61903000  1
  La  La214  1  0.35390000  0.12623000  0.88097000  1
  La  La215  1  0.63890000  0.62623000  0.38097000  1
  N  N216  1  0.08890000  0.95740000  0.69920000  1
  N  N217  1  0.25450000  0.45740000  0.19920000  1
  N  N218  1  0.02650000  0.75600000  0.87540000  1
  N  N219  1  0.34210000  0.25600000  0.37540000  1
  N  N220  1  0.97350000  0.24400000  0.12460000  1
  N  N221  1  0.65790000  0.74400000  0.62460000  1
  N  N222  1  0.91110000  0.04260000  0.30080000  1
  N  N223  1  0.74550000  0.54260000  0.80080000  1
  O  O224  1  0.65414000  0.63745000  0.29787000  1
  O  O225  1  0.62974000  0.50383000  0.43149000  1
  O  O226  1  0.43494000  0.00383000  0.93149000  1
  O  O227  1  0.41054000  0.13745000  0.79787000  1
  O  O228  1  0.86828000  0.57538000  0.32606000  1
  O  O229  1  0.23028000  0.07538000  0.82606000  1
  O  O230  1  0.76615000  0.73124000  0.13846000  1
  O  O231  1  0.36415000  0.23124000  0.63846000  1
  O  O232  1  0.66386000  0.80920000  0.04928000  1
  O  O233  1  0.47766000  0.30920000  0.54928000  1
  O  O234  1  0.58917000  0.49160000  0.36586000  1
  O  O235  1  0.55337000  0.99160000  0.86586000  1
  O  O236  1  0.86357000  0.70574000  0.02932000  1
  O  O237  1  0.40137000  0.20574000  0.52932000  1
  O  O238  1  0.90850000  0.63484000  0.09856000  1
  O  O239  1  0.35810000  0.13484000  0.59856000  1
  O  O240  1  0.09150000  0.36516000  0.90144000  1
  O  O241  1  0.64190000  0.86516000  0.40144000  1
  O  O242  1  0.13643000  0.29426000  0.97068000  1
  O  O243  1  0.59863000  0.79426000  0.47068000  1
  O  O244  1  0.41083000  0.50840000  0.63414000  1
  O  O245  1  0.44663000  0.00840000  0.13414000  1
  O  O246  1  0.33614000  0.19080000  0.95072000  1
  O  O247  1  0.52234000  0.69080000  0.45072000  1
  O  O248  1  0.23385000  0.26876000  0.86154000  1
  O  O249  1  0.63585000  0.76876000  0.36154000  1
  O  O250  1  0.13172000  0.42462000  0.67394000  1
  O  O251  1  0.76972000  0.92462000  0.17394000  1
  O  O252  1  0.37026000  0.49617000  0.56851000  1
  O  O253  1  0.34586000  0.36255000  0.70213000  1
  O  O254  1  0.58946000  0.86255000  0.20213000  1
  O  O255  1  0.56506000  0.99617000  0.06851000  1
