# generated using pymatgen
data_AgH20C15N4
_symmetry_space_group_name_H-M   'P 1'
_cell_length_a   8.60680000
_cell_length_b   13.05629291
_cell_length_c   18.38105817
_cell_angle_alpha   85.57424228
_cell_angle_beta   76.46015905
_cell_angle_gamma   70.75528792
_symmetry_Int_Tables_number   1
_chemical_formula_structural   AgH20C15N4
_chemical_formula_sum   'Ag4 H80 C60 N16'
_cell_volume   1895.91101937
_cell_formula_units_Z   4
loop_
 _symmetry_equiv_pos_site_id
 _symmetry_equiv_pos_as_xyz
  1  'x, y, z'
loop_
 _atom_site_type_symbol
 _atom_site_label
 _atom_site_symmetry_multiplicity
 _atom_site_fract_x
 _atom_site_fract_y
 _atom_site_fract_z
 _atom_site_occupancy
  Ag  Ag0  1  0.45845000  0.25000000  0.08310000  1
  Ag  Ag1  1  0.29155000  0.25000000  0.41690000  1
  Ag  Ag2  1  0.70845000  0.75000000  0.58310000  1
  Ag  Ag3  1  0.54155000  0.75000000  0.91690000  1
  C  C4  1  0.16400000  0.60880000  0.07980000  1
  C  C5  1  0.35260000  0.89120000  0.42020000  1
  C  C6  1  0.25170000  0.00800000  0.52280000  1
  C  C7  1  0.28250000  0.49200000  0.97720000  1
  C  C8  1  0.75860000  0.01480000  0.54680000  1
  C  C9  1  0.82020000  0.48520000  0.95320000  1
  C  C10  1  0.82270000  0.75000000  0.75000000  1
  C  C11  1  0.39110000  0.69020000  0.69060000  1
  C  C12  1  0.27190000  0.80980000  0.80940000  1
  C  C13  1  0.52700000  0.56080000  0.58820000  1
  C  C14  1  0.17600000  0.93920000  0.91180000  1
  C  C15  1  0.25130000  0.67540000  0.04360000  1
  C  C16  1  0.47030000  0.82460000  0.45640000  1
  C  C17  1  0.36940000  0.56240000  0.94380000  1
  C  C18  1  0.37560000  0.93760000  0.55620000  1
  C  C19  1  0.06820000  0.56240000  0.55620000  1
  C  C20  1  0.68680000  0.93760000  0.94380000  1
  C  C21  1  0.07330000  0.67540000  0.45640000  1
  C  C22  1  0.70510000  0.82460000  0.04360000  1
  C  C23  1  0.91220000  0.56080000  0.91180000  1
  C  C24  1  0.88480000  0.93920000  0.58820000  1
  C  C25  1  0.91870000  0.69020000  0.80940000  1
  C  C26  1  0.91830000  0.80980000  0.69060000  1
  C  C27  1  0.42730000  0.75000000  0.75000000  1
  C  C28  1  0.22660000  0.01480000  0.95320000  1
  C  C29  1  0.69460000  0.48520000  0.54680000  1
  C  C30  1  0.74030000  0.00800000  0.97720000  1
  C  C31  1  0.22550000  0.49200000  0.52280000  1
  C  C32  1  0.22720000  0.60880000  0.42020000  1
  C  C33  1  0.75620000  0.89120000  0.07980000  1
  C  C34  1  0.24380000  0.10880000  0.92020000  1
  C  C35  1  0.77280000  0.39120000  0.57980000  1
  C  C36  1  0.77450000  0.50800000  0.47720000  1
  C  C37  1  0.25970000  0.99200000  0.02280000  1
  C  C38  1  0.30540000  0.51480000  0.45320000  1
  C  C39  1  0.77340000  0.98520000  0.04680000  1
  C  C40  1  0.57270000  0.25000000  0.25000000  1
  C  C41  1  0.08170000  0.19020000  0.30940000  1
  C  C42  1  0.08130000  0.30980000  0.19060000  1
  C  C43  1  0.11520000  0.06080000  0.41180000  1
  C  C44  1  0.08780000  0.43920000  0.08820000  1
  C  C45  1  0.29490000  0.17540000  0.95640000  1
  C  C46  1  0.92670000  0.32460000  0.54360000  1
  C  C47  1  0.31320000  0.06240000  0.05620000  1
  C  C48  1  0.93180000  0.43760000  0.44380000  1
  C  C49  1  0.62440000  0.06240000  0.44380000  1
  C  C50  1  0.63060000  0.43760000  0.05620000  1
  C  C51  1  0.52970000  0.17540000  0.54360000  1
  C  C52  1  0.74870000  0.32460000  0.95640000  1
  C  C53  1  0.82400000  0.06080000  0.08820000  1
  C  C54  1  0.47300000  0.43920000  0.41180000  1
  C  C55  1  0.72810000  0.19020000  0.19060000  1
  C  C56  1  0.60890000  0.30980000  0.30940000  1
  C  C57  1  0.17730000  0.25000000  0.25000000  1
  C  C58  1  0.17980000  0.51480000  0.04680000  1
  C  C59  1  0.24140000  0.98520000  0.45320000  1
  C  C60  1  0.71750000  0.50800000  0.02280000  1
  C  C61  1  0.74830000  0.99200000  0.47720000  1
  C  C62  1  0.64740000  0.10880000  0.57980000  1
  C  C63  1  0.83600000  0.39120000  0.92020000  1
  H  H64  1  0.79470000  0.69780000  0.72500000  1
  H  H65  1  0.71750000  0.80220000  0.77500000  1
  H  H66  1  0.79960000  0.58480000  0.82860000  1
  H  H67  1  0.71300000  0.91520000  0.67140000  1
  H  H68  1  0.33120000  0.64100000  0.71440000  1
  H  H69  1  0.18660000  0.85900000  0.78560000  1
  H  H70  1  0.70570000  0.57040000  0.04780000  1
  H  H71  1  0.82390000  0.92960000  0.45220000  1
  H  H72  1  0.32150000  0.74180000  0.66100000  1
  H  H73  1  0.22430000  0.75820000  0.83900000  1
  H  H74  1  0.45720000  0.51880000  0.61480000  1
  H  H75  1  0.09080000  0.98120000  0.88520000  1
  H  H76  1  0.65160000  0.12760000  0.62700000  1
  H  H77  1  0.90620000  0.37240000  0.87300000  1
  H  H78  1  0.46840000  0.60720000  0.55260000  1
  H  H79  1  0.12820000  0.89280000  0.94740000  1
  H  H80  1  0.01530000  0.54520000  0.60340000  1
  H  H81  1  0.66390000  0.95480000  0.89660000  1
  H  H82  1  0.02470000  0.73940000  0.43260000  1
  H  H83  1  0.69670000  0.76060000  0.06740000  1
  H  H84  1  0.23590000  0.73940000  0.06740000  1
  H  H85  1  0.54270000  0.76060000  0.43260000  1
  H  H86  1  0.43950000  0.54520000  0.89660000  1
  H  H87  1  0.38130000  0.95480000  0.60340000  1
  H  H88  1  0.92440000  0.60720000  0.94740000  1
  H  H89  1  0.97900000  0.89280000  0.55260000  1
  H  H90  1  0.22080000  0.12760000  0.87300000  1
  H  H91  1  0.72140000  0.37240000  0.62700000  1
  H  H92  1  0.02400000  0.51880000  0.88520000  1
  H  H93  1  0.92800000  0.98120000  0.61480000  1
  H  H94  1  0.93670000  0.74180000  0.83900000  1
  H  H95  1  0.01750000  0.75820000  0.66100000  1
  H  H96  1  0.72390000  0.57040000  0.45220000  1
  H  H97  1  0.24650000  0.92960000  0.04780000  1
  H  H98  1  0.02780000  0.64100000  0.78560000  1
  H  H99  1  0.95440000  0.85900000  0.71440000  1
  H  H100  1  0.61560000  0.58480000  0.67140000  1
  H  H101  1  0.37180000  0.91520000  0.82860000  1
  H  H102  1  0.50750000  0.69780000  0.77500000  1
  H  H103  1  0.48030000  0.80220000  0.72500000  1
  H  H104  1  0.51970000  0.19780000  0.27500000  1
  H  H105  1  0.49250000  0.30220000  0.22500000  1
  H  H106  1  0.62820000  0.08480000  0.17140000  1
  H  H107  1  0.38440000  0.41520000  0.32860000  1
  H  H108  1  0.04560000  0.14100000  0.28560000  1
  H  H109  1  0.97220000  0.35900000  0.21440000  1
  H  H110  1  0.75350000  0.07040000  0.95220000  1
  H  H111  1  0.27610000  0.42960000  0.54780000  1
  H  H112  1  0.98250000  0.24180000  0.33900000  1
  H  H113  1  0.06330000  0.25820000  0.16100000  1
  H  H114  1  0.07200000  0.01880000  0.38520000  1
  H  H115  1  0.97600000  0.48120000  0.11480000  1
  H  H116  1  0.27860000  0.62760000  0.37300000  1
  H  H117  1  0.77920000  0.87240000  0.12700000  1
  H  H118  1  0.02100000  0.10720000  0.44740000  1
  H  H119  1  0.07560000  0.39280000  0.05260000  1
  H  H120  1  0.61870000  0.04520000  0.39660000  1
  H  H121  1  0.56050000  0.45480000  0.10340000  1
  H  H122  1  0.45730000  0.23940000  0.56740000  1
  H  H123  1  0.76410000  0.26060000  0.93260000  1
  H  H124  1  0.30330000  0.23940000  0.93260000  1
  H  H125  1  0.97530000  0.26060000  0.56740000  1
  H  H126  1  0.33610000  0.04520000  0.10340000  1
  H  H127  1  0.98470000  0.45480000  0.39660000  1
  H  H128  1  0.87180000  0.10720000  0.05260000  1
  H  H129  1  0.53160000  0.39280000  0.44740000  1
  H  H130  1  0.09380000  0.62760000  0.12700000  1
  H  H131  1  0.34840000  0.87240000  0.37300000  1
  H  H132  1  0.90920000  0.01880000  0.11480000  1
  H  H133  1  0.54280000  0.48120000  0.38520000  1
  H  H134  1  0.77570000  0.24180000  0.16100000  1
  H  H135  1  0.67850000  0.25820000  0.33900000  1
  H  H136  1  0.17610000  0.07040000  0.54780000  1
  H  H137  1  0.29430000  0.42960000  0.95220000  1
  H  H138  1  0.81340000  0.14100000  0.21440000  1
  H  H139  1  0.66880000  0.35900000  0.28560000  1
  H  H140  1  0.28700000  0.08480000  0.32860000  1
  H  H141  1  0.20040000  0.41520000  0.17140000  1
  H  H142  1  0.28250000  0.19780000  0.22500000  1
  H  H143  1  0.20530000  0.30220000  0.27500000  1
  N  N144  1  0.81597000  0.62900000  0.85766000  1
  N  N145  1  0.80263000  0.87100000  0.64234000  1
  N  N146  1  0.98840000  0.65500000  0.52300000  1
  N  N147  1  0.66640000  0.84500000  0.97700000  1
  N  N148  1  0.35660000  0.65500000  0.97700000  1
  N  N149  1  0.48860000  0.84500000  0.52300000  1
  N  N150  1  0.55503000  0.62900000  0.64234000  1
  N  N151  1  0.32637000  0.87100000  0.85766000  1
  N  N152  1  0.67363000  0.12900000  0.14234000  1
  N  N153  1  0.44497000  0.37100000  0.35766000  1
  N  N154  1  0.51140000  0.15500000  0.47700000  1
  N  N155  1  0.64340000  0.34500000  0.02300000  1
  N  N156  1  0.33360000  0.15500000  0.02300000  1
  N  N157  1  0.01160000  0.34500000  0.47700000  1
  N  N158  1  0.19737000  0.12900000  0.35766000  1
  N  N159  1  0.18403000  0.37100000  0.14234000  1
