# generated using pymatgen
data_Ni2H76C57(NO)12
_symmetry_space_group_name_H-M   'P 1'
_cell_length_a   8.93810000
_cell_length_b   19.10651094
_cell_length_c   23.62154132
_cell_angle_alpha   86.32528623
_cell_angle_beta   79.09425890
_cell_angle_gamma   76.47309518
_symmetry_Int_Tables_number   1
_chemical_formula_structural   Ni2H76C57(NO)12
_chemical_formula_sum   'Ni4 H152 C114 N24 O24'
_cell_volume   3850.42252151
_cell_formula_units_Z   2
loop_
 _symmetry_equiv_pos_site_id
 _symmetry_equiv_pos_as_xyz
  1  'x, y, z'
loop_
 _atom_site_type_symbol
 _atom_site_label
 _atom_site_symmetry_multiplicity
 _atom_site_fract_x
 _atom_site_fract_y
 _atom_site_fract_z
 _atom_site_occupancy
  C  C0  1  0.87820000  0.25000000  0.75000000  1
  C  C1  1  0.12180000  0.75000000  0.25000000  1
  C  C2  1  0.63445000  0.86810000  0.10880000  1
  C  C3  1  0.38865000  0.36810000  0.60880000  1
  C  C4  1  0.58417000  0.15312000  0.82254000  1
  C  C5  1  0.44017000  0.65312000  0.32254000  1
  C  C6  1  0.92197000  0.38396000  0.57950000  1
  C  C7  1  0.11457000  0.88396000  0.07950000  1
  C  C8  1  0.72040000  0.43130000  0.53130000  1
  C  C9  1  0.31700000  0.93130000  0.03130000  1
  C  C10  1  0.53866000  0.82288000  0.13240000  1
  C  C11  1  0.50606000  0.32288000  0.63240000  1
  C  C12  1  0.80829000  0.18349000  0.75913000  1
  C  C13  1  0.24909000  0.68349000  0.25913000  1
  C  C14  1  0.00684000  0.24165000  0.69667000  1
  C  C15  1  0.05484000  0.74165000  0.19667000  1
  C  C16  1  0.67932000  0.56302000  0.37034000  1
  C  C17  1  0.38732000  0.06302000  0.87034000  1
  C  C18  1  0.79961000  0.51344000  0.39974000  1
  C  C19  1  0.28721000  0.01344000  0.89974000  1
  C  C20  1  0.88300000  0.99080000  0.89760000  1
  C  C21  1  0.22860000  0.49080000  0.39760000  1
  C  C22  1  0.60652000  0.08620000  0.79976000  1
  C  C23  1  0.50752000  0.58620000  0.29976000  1
  C  C24  1  0.62887000  0.54175000  0.32391000  1
  C  C25  1  0.50547000  0.04175000  0.82391000  1
  C  C26  1  0.80836000  0.35608000  0.50720000  1
  C  C27  1  0.32836000  0.85608000  0.00720000  1
  C  C28  1  0.91236000  0.91558000  0.92450000  1
  C  C29  1  0.24756000  0.41558000  0.42450000  1
  C  C30  1  0.90654000  0.66830000  0.16342000  1
  C  C31  1  0.26174000  0.16830000  0.66342000  1
  C  C32  1  0.07584000  0.83852000  0.99020000  1
  C  C33  1  0.09544000  0.33852000  0.49020000  1
  C  C34  1  0.90514000  0.70709000  0.11183000  1
  C  C35  1  0.27594000  0.20709000  0.61183000  1
  C  C36  1  0.82978000  0.61246000  0.17498000  1
  C  C37  1  0.38278000  0.11246000  0.67498000  1
  C  C38  1  0.82422000  0.68959000  0.07237000  1
  C  C39  1  0.41382000  0.18959000  0.57237000  1
  C  C40  1  0.75332000  0.59509000  0.13487000  1
  C  C41  1  0.51672000  0.09509000  0.63487000  1
  C  C42  1  0.74724000  0.63338000  0.08274000  1
  C  C43  1  0.53664000  0.13338000  0.58274000  1
  C  C44  1  0.02376000  0.06524000  0.60624000  1
  C  C45  1  0.30476000  0.56524000  0.10624000  1
  C  C46  1  0.68319000  0.11431000  0.53791000  1
  C  C47  1  0.66459000  0.61431000  0.03791000  1
  C  C48  1  0.09886000  0.12878000  0.51310000  1
  C  C49  1  0.25926000  0.62878000  0.01310000  1
  C  C50  1  0.15444000  0.52262000  0.05590000  1
  C  C51  1  0.26704000  0.02262000  0.55590000  1
  C  C52  1  0.18370000  0.47100000  0.10600000  1
  C  C53  1  0.23930000  0.97100000  0.60600000  1
  C  C54  1  0.12434000  0.11592000  0.44920000  1
  C  C55  1  0.31054000  0.61592000  0.94920000  1
  C  C56  1  0.97645000  0.94221000  0.62209000  1
  C  C57  1  0.45925000  0.44221000  0.12209000  1
  C  C58  1  0.02355000  0.05779000  0.37791000  1
  C  C59  1  0.54075000  0.55779000  0.87791000  1
  C  C60  1  0.87566000  0.88408000  0.55080000  1
  C  C61  1  0.68946000  0.38408000  0.05080000  1
  C  C62  1  0.81630000  0.52900000  0.89400000  1
  C  C63  1  0.76070000  0.02900000  0.39400000  1
  C  C64  1  0.84556000  0.47738000  0.94410000  1
  C  C65  1  0.73296000  0.97738000  0.44410000  1
  C  C66  1  0.90114000  0.87122000  0.48690000  1
  C  C67  1  0.74074000  0.37122000  0.98690000  1
  C  C68  1  0.31681000  0.88569000  0.46209000  1
  C  C69  1  0.33541000  0.38569000  0.96209000  1
  C  C70  1  0.97624000  0.93476000  0.39376000  1
  C  C71  1  0.69524000  0.43476000  0.89376000  1
  C  C72  1  0.25276000  0.36662000  0.91726000  1
  C  C73  1  0.46336000  0.86662000  0.41726000  1
  C  C74  1  0.24668000  0.40491000  0.86513000  1
  C  C75  1  0.48328000  0.90491000  0.36513000  1
  C  C76  1  0.17578000  0.31041000  0.92763000  1
  C  C77  1  0.58618000  0.81041000  0.42763000  1
  C  C78  1  0.17022000  0.38754000  0.82502000  1
  C  C79  1  0.61722000  0.88754000  0.32502000  1
  C  C80  1  0.09486000  0.29291000  0.88817000  1
  C  C81  1  0.72406000  0.79291000  0.38817000  1
  C  C82  1  0.92416000  0.16148000  0.00980000  1
  C  C83  1  0.90456000  0.66148000  0.50980000  1
  C  C84  1  0.09346000  0.33170000  0.83658000  1
  C  C85  1  0.73826000  0.83170000  0.33658000  1
  C  C86  1  0.08764000  0.08442000  0.07550000  1
  C  C87  1  0.75244000  0.58442000  0.57550000  1
  C  C88  1  0.19164000  0.64392000  0.49280000  1
  C  C89  1  0.67164000  0.14392000  0.99280000  1
  C  C90  1  0.37113000  0.45825000  0.67609000  1
  C  C91  1  0.49453000  0.95825000  0.17609000  1
  C  C92  1  0.39348000  0.91380000  0.20024000  1
  C  C93  1  0.49248000  0.41380000  0.70024000  1
  C  C94  1  0.11700000  0.00920000  0.10240000  1
  C  C95  1  0.77140000  0.50920000  0.60240000  1
  C  C96  1  0.20039000  0.48656000  0.60026000  1
  C  C97  1  0.71279000  0.98656000  0.10026000  1
  C  C98  1  0.32068000  0.43698000  0.62966000  1
  C  C99  1  0.61268000  0.93698000  0.12966000  1
  C  C100  1  0.99316000  0.75835000  0.30333000  1
  C  C101  1  0.94516000  0.25835000  0.80333000  1
  C  C102  1  0.19171000  0.81651000  0.24087000  1
  C  C103  1  0.75091000  0.31651000  0.74087000  1
  C  C104  1  0.46134000  0.17712000  0.86760000  1
  C  C105  1  0.49394000  0.67712000  0.36760000  1
  C  C106  1  0.27960000  0.56870000  0.46870000  1
  C  C107  1  0.68300000  0.06870000  0.96870000  1
  C  C108  1  0.07803000  0.61604000  0.42050000  1
  C  C109  1  0.88543000  0.11604000  0.92050000  1
  C  C110  1  0.41583000  0.84688000  0.17746000  1
  C  C111  1  0.55983000  0.34688000  0.67746000  1
  C  C112  1  0.36555000  0.13190000  0.89120000  1
  C  C113  1  0.61135000  0.63190000  0.39120000  1
  H  H114  1  0.62870000  0.42800000  0.55980000  1
  H  H115  1  0.38350000  0.92800000  0.05980000  1
  H  H116  1  0.00270000  0.88840000  0.09080000  1
  H  H117  1  0.01810000  0.38840000  0.59080000  1
  H  H118  1  0.85660000  0.36660000  0.61240000  1
  H  H119  1  0.16440000  0.86660000  0.11240000  1
  H  H120  1  0.97700000  0.78470000  0.19030000  1
  H  H121  1  0.04800000  0.28470000  0.69030000  1
  H  H122  1  0.68890000  0.46460000  0.50060000  1
  H  H123  1  0.34590000  0.96460000  0.00060000  1
  H  H124  1  0.71540000  0.85240000  0.07820000  1
  H  H125  1  0.35400000  0.35240000  0.57820000  1
  H  H126  1  0.88450000  0.14170000  0.76930000  1
  H  H127  1  0.20450000  0.64170000  0.26930000  1
  H  H128  1  0.96470000  0.23480000  0.66300000  1
  H  H129  1  0.77470000  0.17340000  0.72440000  1
  H  H130  1  0.32750000  0.67340000  0.22440000  1
  H  H131  1  0.13750000  0.73480000  0.16300000  1
  H  H132  1  0.55600000  0.77680000  0.11840000  1
  H  H133  1  0.54880000  0.27680000  0.61840000  1
  H  H134  1  0.79450000  0.99790000  0.87790000  1
  H  H135  1  0.32970000  0.49790000  0.37790000  1
  H  H136  1  0.97390000  0.99610000  0.86930000  1
  H  H137  1  0.16070000  0.49610000  0.36930000  1
  H  H138  1  0.81930000  0.90880000  0.95080000  1
  H  H139  1  0.32110000  0.40880000  0.45080000  1
  H  H140  1  0.95770000  0.74430000  0.10390000  1
  H  H141  1  0.19410000  0.24430000  0.60390000  1
  H  H142  1  0.97660000  0.83020000  0.01080000  1
  H  H143  1  0.18240000  0.33020000  0.51080000  1
  H  H144  1  0.74480000  0.32100000  0.51900000  1
  H  H145  1  0.41520000  0.82100000  0.01900000  1
  H  H146  1  0.68700000  0.07090000  0.76890000  1
  H  H147  1  0.47320000  0.57090000  0.26890000  1
  H  H148  1  0.02690000  0.40730000  0.42690000  1
  H  H149  1  0.13890000  0.90730000  0.92690000  1
  H  H150  1  0.83230000  0.35820000  0.46540000  1
  H  H151  1  0.34410000  0.85820000  0.96540000  1
  H  H152  1  0.67650000  0.49680000  0.30820000  1
  H  H153  1  0.51850000  0.99680000  0.80820000  1
  H  H154  1  0.83030000  0.58700000  0.20980000  1
  H  H155  1  0.37290000  0.08700000  0.70980000  1
  H  H156  1  0.93800000  0.87990000  0.89470000  1
  H  H157  1  0.28740000  0.37990000  0.39470000  1
  H  H158  1  0.11560000  0.29940000  0.46360000  1
  H  H159  1  0.12140000  0.79940000  0.96360000  1
  H  H160  1  0.82130000  0.71600000  0.03800000  1
  H  H161  1  0.42470000  0.21600000  0.53800000  1
  H  H162  1  0.05510000  0.10050000  0.62650000  1
  H  H163  1  0.21790000  0.60050000  0.12650000  1
  H  H164  1  0.70420000  0.55670000  0.14250000  1
  H  H165  1  0.59660000  0.05670000  0.64250000  1
  H  H166  1  0.91150000  0.07890000  0.60790000  1
  H  H167  1  0.40170000  0.57890000  0.10790000  1
  H  H168  1  0.99710000  0.16030000  0.52530000  1
  H  H169  1  0.31730000  0.66030000  0.02530000  1
  H  H170  1  0.14890000  0.65200000  0.02120000  1
  H  H171  1  0.17790000  0.15200000  0.52120000  1
  H  H172  1  0.05560000  0.55730000  0.06550000  1
  H  H173  1  0.32160000  0.05730000  0.56550000  1
  H  H174  1  0.08880000  0.47450000  0.13450000  1
  H  H175  1  0.30220000  0.97450000  0.63450000  1
  H  H176  1  0.86700000  0.96390000  0.63570000  1
  H  H177  1  0.53340000  0.46390000  0.13570000  1
  H  H178  1  0.11590000  0.16140000  0.42800000  1
  H  H179  1  0.29470000  0.66140000  0.92800000  1
  H  H180  1  0.90350000  0.11390000  0.44710000  1
  H  H181  1  0.53550000  0.61390000  0.94710000  1
  H  H182  1  0.00440000  0.89920000  0.64560000  1
  H  H183  1  0.45080000  0.39920000  0.14560000  1
  H  H184  1  0.22800000  0.08610000  0.43650000  1
  H  H185  1  0.24940000  0.58610000  0.93650000  1
  H  H186  1  0.15290000  0.49680000  0.02200000  1
  H  H187  1  0.32830000  0.99680000  0.52200000  1
  H  H188  1  0.21960000  0.42180000  0.09280000  1
  H  H189  1  0.26580000  0.92180000  0.59280000  1
  H  H190  1  0.78040000  0.57820000  0.90720000  1
  H  H191  1  0.73420000  0.07820000  0.40720000  1
  H  H192  1  0.84710000  0.50320000  0.97800000  1
  H  H193  1  0.67170000  0.00320000  0.47800000  1
  H  H194  1  0.77200000  0.91390000  0.56350000  1
  H  H195  1  0.75060000  0.41390000  0.06350000  1
  H  H196  1  0.99560000  0.10080000  0.35440000  1
  H  H197  1  0.54920000  0.60080000  0.85440000  1
  H  H198  1  0.09650000  0.88610000  0.55290000  1
  H  H199  1  0.46450000  0.38610000  0.05290000  1
  H  H200  1  0.88410000  0.83860000  0.57200000  1
  H  H201  1  0.70530000  0.33860000  0.07200000  1
  H  H202  1  0.13300000  0.03610000  0.36430000  1
  H  H203  1  0.46660000  0.53610000  0.86430000  1
  H  H204  1  0.91120000  0.52550000  0.86550000  1
  H  H205  1  0.69780000  0.02550000  0.36550000  1
  H  H206  1  0.94440000  0.44270000  0.93450000  1
  H  H207  1  0.67840000  0.94270000  0.43450000  1
  H  H208  1  0.85110000  0.34800000  0.97880000  1
  H  H209  1  0.82210000  0.84800000  0.47880000  1
  H  H210  1  0.00290000  0.83970000  0.47470000  1
  H  H211  1  0.68270000  0.33970000  0.97470000  1
  H  H212  1  0.08850000  0.92110000  0.39210000  1
  H  H213  1  0.59830000  0.42110000  0.89210000  1
  H  H214  1  0.29580000  0.44330000  0.85750000  1
  H  H215  1  0.40340000  0.94330000  0.35750000  1
  H  H216  1  0.94490000  0.89950000  0.37350000  1
  H  H217  1  0.78210000  0.39950000  0.87350000  1
  H  H218  1  0.17870000  0.28400000  0.96200000  1
  H  H219  1  0.57530000  0.78400000  0.46200000  1
  H  H220  1  0.88440000  0.70060000  0.53640000  1
  H  H221  1  0.87860000  0.20060000  0.03640000  1
  H  H222  1  0.06200000  0.12010000  0.10530000  1
  H  H223  1  0.71260000  0.62010000  0.60530000  1
  H  H224  1  0.16970000  0.41300000  0.79020000  1
  H  H225  1  0.62710000  0.91300000  0.29020000  1
  H  H226  1  0.32350000  0.50320000  0.69180000  1
  H  H227  1  0.48150000  0.00320000  0.19180000  1
  H  H228  1  0.16770000  0.64180000  0.53460000  1
  H  H229  1  0.65590000  0.14180000  0.03460000  1
  H  H230  1  0.97310000  0.59270000  0.57310000  1
  H  H231  1  0.86110000  0.09270000  0.07310000  1
  H  H232  1  0.31300000  0.92910000  0.23110000  1
  H  H233  1  0.52680000  0.42910000  0.73110000  1
  H  H234  1  0.25520000  0.67900000  0.48100000  1
  H  H235  1  0.58480000  0.17900000  0.98100000  1
  H  H236  1  0.02340000  0.16980000  0.98920000  1
  H  H237  1  0.81760000  0.66980000  0.48920000  1
  H  H238  1  0.04230000  0.25570000  0.89610000  1
  H  H239  1  0.80590000  0.75570000  0.39610000  1
  H  H240  1  0.18070000  0.09120000  0.04920000  1
  H  H241  1  0.67890000  0.59120000  0.54920000  1
  H  H242  1  0.02610000  0.00390000  0.13070000  1
  H  H243  1  0.83930000  0.50390000  0.63070000  1
  H  H244  1  0.20550000  0.00210000  0.12210000  1
  H  H245  1  0.67030000  0.50210000  0.62210000  1
  H  H246  1  0.44400000  0.22320000  0.88160000  1
  H  H247  1  0.45120000  0.72320000  0.38160000  1
  H  H248  1  0.22530000  0.82660000  0.27560000  1
  H  H249  1  0.03530000  0.76520000  0.33700000  1
  H  H250  1  0.86250000  0.26520000  0.83700000  1
  H  H251  1  0.67250000  0.32660000  0.77560000  1
  H  H252  1  0.11550000  0.85830000  0.23070000  1
  H  H253  1  0.79550000  0.35830000  0.73070000  1
  H  H254  1  0.28460000  0.14760000  0.92180000  1
  H  H255  1  0.64600000  0.64760000  0.42180000  1
  H  H256  1  0.31110000  0.53540000  0.49940000  1
  H  H257  1  0.65410000  0.03540000  0.99940000  1
  H  H258  1  0.02300000  0.21530000  0.80970000  1
  H  H259  1  0.95200000  0.71530000  0.30970000  1
  H  H260  1  0.14340000  0.63340000  0.38760000  1
  H  H261  1  0.83560000  0.13340000  0.88760000  1
  H  H262  1  0.99730000  0.11160000  0.90920000  1
  H  H263  1  0.98190000  0.61160000  0.40920000  1
  H  H264  1  0.37130000  0.57200000  0.44020000  1
  H  H265  1  0.61650000  0.07200000  0.94020000  1
  N  N266  1  0.85072000  0.04603000  0.94233000  1
  N  N267  1  0.16092000  0.54603000  0.44233000  1
  N  N268  1  0.95472000  0.33580000  0.53136000  1
  N  N269  1  0.17812000  0.83580000  0.03136000  1
  N  N270  1  0.04479000  0.90753000  0.95609000  1
  N  N271  1  0.09159000  0.40753000  0.45609000  1
  N  N272  1  0.07059000  0.99295000  0.63067000  1
  N  N273  1  0.30579000  0.49295000  0.13067000  1
  N  N274  1  0.10806000  0.05890000  0.54578000  1
  N  N275  1  0.28726000  0.55890000  0.04578000  1
  N  N276  1  0.00425000  0.07935000  0.43855000  1
  N  N277  1  0.47785000  0.57935000  0.93855000  1
  N  N278  1  0.99575000  0.92065000  0.56145000  1
  N  N279  1  0.52215000  0.42065000  0.06145000  1
  N  N280  1  0.89194000  0.94110000  0.45422000  1
  N  N281  1  0.71274000  0.44110000  0.95422000  1
  N  N282  1  0.92941000  0.00705000  0.36933000  1
  N  N283  1  0.69421000  0.50705000  0.86933000  1
  N  N284  1  0.95521000  0.09247000  0.04391000  1
  N  N285  1  0.90841000  0.59247000  0.54391000  1
  N  N286  1  0.04528000  0.66420000  0.46864000  1
  N  N287  1  0.82188000  0.16420000  0.96864000  1
  N  N288  1  0.14928000  0.95397000  0.05767000  1
  N  N289  1  0.83908000  0.45397000  0.55767000  1
  Ni  Ni290  1  0.00000000  0.00000000  0.00000000  1
  Ni  Ni291  1  0.00000000  0.50000000  0.50000000  1
  Ni  Ni292  1  1.00000000  1.00000000  0.50000000  1
  Ni  Ni293  1  0.50000000  0.50000000  1.00000000  1
  O  O294  1  0.68349000  0.29922000  0.69460000  1
  O  O295  1  0.32269000  0.79922000  0.19460000  1
  O  O296  1  0.83366000  0.53670000  0.44318000  1
  O  O297  1  0.18646000  0.03670000  0.94318000  1
  O  O298  1  0.98533000  0.68104000  0.20530000  1
  O  O299  1  0.12833000  0.18104000  0.70530000  1
  O  O300  1  0.85672000  0.45158000  0.38038000  1
  O  O301  1  0.31132000  0.95158000  0.88038000  1
  O  O302  1  0.70438000  0.15720000  0.49664000  1
  O  O303  1  0.64178000  0.65720000  0.99664000  1
  O  O304  1  0.77669000  0.05530000  0.54592000  1
  O  O305  1  0.62209000  0.55530000  0.04592000  1
  O  O306  1  0.22331000  0.94470000  0.45408000  1
  O  O307  1  0.37791000  0.44470000  0.95408000  1
  O  O308  1  0.29562000  0.84280000  0.50336000  1
  O  O309  1  0.35822000  0.34280000  0.00336000  1
  O  O310  1  0.14328000  0.54842000  0.61962000  1
  O  O311  1  0.68868000  0.04842000  0.11962000  1
  O  O312  1  0.01467000  0.31896000  0.79470000  1
  O  O313  1  0.87167000  0.81896000  0.29470000  1
  O  O314  1  0.16634000  0.46330000  0.55682000  1
  O  O315  1  0.81354000  0.96330000  0.05682000  1
  O  O316  1  0.31651000  0.70078000  0.30540000  1
  O  O317  1  0.67731000  0.20078000  0.80540000  1
