# generated using pymatgen
data_U3Si2H34(C9O2)6
_symmetry_space_group_name_H-M   'P 1'
_cell_length_a   7.26300000
_cell_length_b   17.71800000
_cell_length_c   24.54000000
_cell_angle_alpha   90.00000000
_cell_angle_beta   90.00000000
_cell_angle_gamma   90.72600000
_symmetry_Int_Tables_number   1
_chemical_formula_structural   U3Si2H34(C9O2)6
_chemical_formula_sum   'U6 Si4 H68 C108 O24'
_cell_volume   3157.69685497
_cell_formula_units_Z   2
loop_
 _symmetry_equiv_pos_site_id
 _symmetry_equiv_pos_as_xyz
  1  'x, y, z'
loop_
 _atom_site_type_symbol
 _atom_site_label
 _atom_site_symmetry_multiplicity
 _atom_site_fract_x
 _atom_site_fract_y
 _atom_site_fract_z
 _atom_site_occupancy
  U  U0  1  0.00000000  0.00000000  0.00000000  1
  U  U1  1  1.00000000  0.50000000  0.50000000  1
  U  U2  1  0.58685000  0.86407000  0.45543000  1
  U  U3  1  0.58685000  0.36407000  0.04457000  1
  U  U4  1  0.41315000  0.63593000  0.95543000  1
  U  U5  1  0.41315000  0.13593000  0.54457000  1
  Si  Si6  1  0.66630000  0.33482000  0.80003000  1
  Si  Si7  1  0.66630000  0.83482000  0.69997000  1
  Si  Si8  1  0.33370000  0.16518000  0.30003000  1
  Si  Si9  1  0.33370000  0.66518000  0.19997000  1
  H  H10  1  0.99770000  0.28080000  0.84810000  1
  H  H11  1  0.99770000  0.78080000  0.65190000  1
  H  H12  1  0.97410000  0.88460000  0.76470000  1
  H  H13  1  0.97410000  0.38460000  0.73530000  1
  H  H14  1  0.95620000  0.52120000  0.92600000  1
  H  H15  1  0.95620000  0.02120000  0.57400000  1
  H  H16  1  0.86300000  0.64380000  0.83400000  1
  H  H17  1  0.86300000  0.14380000  0.66600000  1
  H  H18  1  0.84710000  0.34720000  0.33280000  1
  H  H19  1  0.84710000  0.84720000  0.16720000  1
  H  H20  1  0.84140000  0.44920000  0.27260000  1
  H  H21  1  0.84140000  0.94920000  0.22740000  1
  H  H22  1  0.83430000  0.66140000  0.33200000  1
  H  H23  1  0.83430000  0.16140000  0.16800000  1
  H  H24  1  0.80380000  0.97240000  0.31920000  1
  H  H25  1  0.80380000  0.47240000  0.18080000  1
  H  H26  1  0.78650000  0.18030000  0.41250000  1
  H  H27  1  0.78650000  0.68030000  0.08750000  1
  H  H28  1  0.72880000  0.47960000  0.86590000  1
  H  H29  1  0.72880000  0.97960000  0.63410000  1
  H  H30  1  0.71590000  0.24480000  0.89980000  1
  H  H31  1  0.71590000  0.74480000  0.60020000  1
  H  H32  1  0.68270000  0.25500000  0.28430000  1
  H  H33  1  0.68270000  0.75500000  0.21570000  1
  H  H34  1  0.67340000  0.69270000  0.76670000  1
  H  H35  1  0.67340000  0.19270000  0.73330000  1
  H  H36  1  0.67170000  0.51600000  0.33620000  1
  H  H37  1  0.67170000  0.01600000  0.16380000  1
  H  H38  1  0.59120000  0.05960000  0.34940000  1
  H  H39  1  0.59120000  0.55960000  0.15060000  1
  H  H40  1  0.55060000  0.15510000  0.94920000  1
  H  H41  1  0.55060000  0.65510000  0.55080000  1
  H  H42  1  0.55030000  0.89650000  0.80780000  1
  H  H43  1  0.55030000  0.39650000  0.69220000  1
  H  H44  1  0.44970000  0.60350000  0.30780000  1
  H  H45  1  0.44970000  0.10350000  0.19220000  1
  H  H46  1  0.44940000  0.34490000  0.44920000  1
  H  H47  1  0.44940000  0.84490000  0.05080000  1
  H  H48  1  0.40880000  0.44040000  0.84940000  1
  H  H49  1  0.40880000  0.94040000  0.65060000  1
  H  H50  1  0.32830000  0.98400000  0.83620000  1
  H  H51  1  0.32830000  0.48400000  0.66380000  1
  H  H52  1  0.32660000  0.80730000  0.26670000  1
  H  H53  1  0.32660000  0.30730000  0.23330000  1
  H  H54  1  0.31730000  0.24500000  0.78430000  1
  H  H55  1  0.31730000  0.74500000  0.71570000  1
  H  H56  1  0.28410000  0.25520000  0.39980000  1
  H  H57  1  0.28410000  0.75520000  0.10020000  1
  H  H58  1  0.27120000  0.02040000  0.36590000  1
  H  H59  1  0.27120000  0.52040000  0.13410000  1
  H  H60  1  0.21350000  0.31970000  0.91250000  1
  H  H61  1  0.21350000  0.81970000  0.58750000  1
  H  H62  1  0.19620000  0.52760000  0.81920000  1
  H  H63  1  0.19620000  0.02760000  0.68080000  1
  H  H64  1  0.16570000  0.83860000  0.83200000  1
  H  H65  1  0.16570000  0.33860000  0.66800000  1
  H  H66  1  0.15860000  0.05080000  0.77260000  1
  H  H67  1  0.15860000  0.55080000  0.72740000  1
  H  H68  1  0.15290000  0.15280000  0.83280000  1
  H  H69  1  0.15290000  0.65280000  0.66720000  1
  H  H70  1  0.13700000  0.85620000  0.33400000  1
  H  H71  1  0.13700000  0.35620000  0.16600000  1
  H  H72  1  0.04380000  0.97880000  0.42600000  1
  H  H73  1  0.04380000  0.47880000  0.07400000  1
  H  H74  1  0.02590000  0.61540000  0.26470000  1
  H  H75  1  0.02590000  0.11540000  0.23530000  1
  H  H76  1  0.00230000  0.21920000  0.34810000  1
  H  H77  1  0.00230000  0.71920000  0.15190000  1
  C  C78  1  0.98660000  0.32900000  0.86470000  1
  C  C79  1  0.98660000  0.82900000  0.63530000  1
  C  C80  1  0.96270000  0.47190000  0.91100000  1
  C  C81  1  0.96270000  0.97190000  0.58900000  1
  C  C82  1  0.96250000  0.76440000  0.33940000  1
  C  C83  1  0.96250000  0.26440000  0.16060000  1
  C  C84  1  0.95210000  0.83530000  0.77860000  1
  C  C85  1  0.95210000  0.33530000  0.72140000  1
  C  C86  1  0.93300000  0.69180000  0.31860000  1
  C  C87  1  0.93300000  0.19180000  0.18140000  1
  C  C88  1  0.89250000  0.07520000  0.42570000  1
  C  C89  1  0.89250000  0.57520000  0.07430000  1
  C  C90  1  0.88730000  0.69280000  0.81980000  1
  C  C91  1  0.88730000  0.19280000  0.68020000  1
  C  C92  1  0.88290000  0.14750000  0.40240000  1
  C  C93  1  0.88290000  0.64750000  0.09760000  1
  C  C94  1  0.83710000  0.37540000  0.85030000  1
  C  C95  1  0.83710000  0.87540000  0.64970000  1
  C  C96  1  0.83370000  0.79570000  0.37980000  1
  C  C97  1  0.83370000  0.29570000  0.12020000  1
  C  C98  1  0.82830000  0.44740000  0.87460000  1
  C  C99  1  0.82830000  0.94740000  0.62540000  1
  C  C100  1  0.80390000  0.79270000  0.75770000  1
  C  C101  1  0.80390000  0.29270000  0.74230000  1
  C  C102  1  0.78040000  0.40610000  0.43110000  1
  C  C103  1  0.78040000  0.90610000  0.06890000  1
  C  C104  1  0.77440000  0.72230000  0.77960000  1
  C  C105  1  0.77440000  0.22230000  0.72040000  1
  C  C106  1  0.75520000  0.48560000  0.26080000  1
  C  C107  1  0.75520000  0.98560000  0.23920000  1
  C  C108  1  0.74260000  0.04990000  0.46240000  1
  C  C109  1  0.74260000  0.54990000  0.03760000  1
  C  C110  1  0.73470000  0.32750000  0.34700000  1
  C  C111  1  0.73470000  0.82750000  0.15300000  1
  C  C112  1  0.73220000  0.99910000  0.29340000  1
  C  C113  1  0.73220000  0.49910000  0.20660000  1
  C  C114  1  0.66930000  0.35270000  0.39660000  1
  C  C115  1  0.66930000  0.85270000  0.10340000  1
  C  C116  1  0.65330000  0.52480000  0.29840000  1
  C  C117  1  0.65330000  0.02480000  0.20160000  1
  C  C118  1  0.63480000  0.27300000  0.31790000  1
  C  C119  1  0.63480000  0.77300000  0.18210000  1
  C  C120  1  0.60530000  0.05160000  0.31140000  1
  C  C121  1  0.60530000  0.55160000  0.18860000  1
  C  C122  1  0.60060000  0.22720000  0.88620000  1
  C  C123  1  0.60060000  0.72720000  0.61380000  1
  C  C124  1  0.53510000  0.25610000  0.83690000  1
  C  C125  1  0.53510000  0.75610000  0.66310000  1
  C  C126  1  0.52180000  0.57790000  0.28160000  1
  C  C127  1  0.52180000  0.07790000  0.21840000  1
  C  C128  1  0.50230000  0.17380000  0.91590000  1
  C  C129  1  0.50230000  0.67380000  0.58410000  1
  C  C130  1  0.50220000  0.40720000  0.77510000  1
  C  C131  1  0.50220000  0.90720000  0.72490000  1
  C  C132  1  0.49780000  0.09280000  0.27510000  1
  C  C133  1  0.49780000  0.59280000  0.22490000  1
  C  C134  1  0.49770000  0.32620000  0.41590000  1
  C  C135  1  0.49770000  0.82620000  0.08410000  1
  C  C136  1  0.47820000  0.92210000  0.78160000  1
  C  C137  1  0.47820000  0.42210000  0.71840000  1
  C  C138  1  0.46490000  0.24390000  0.33690000  1
  C  C139  1  0.46490000  0.74390000  0.16310000  1
  C  C140  1  0.39940000  0.27280000  0.38620000  1
  C  C141  1  0.39940000  0.77280000  0.11380000  1
  C  C142  1  0.39470000  0.44840000  0.81140000  1
  C  C143  1  0.39470000  0.94840000  0.68860000  1
  C  C144  1  0.36520000  0.22700000  0.81790000  1
  C  C145  1  0.36520000  0.72700000  0.68210000  1
  C  C146  1  0.34670000  0.97520000  0.79840000  1
  C  C147  1  0.34670000  0.47520000  0.70160000  1
  C  C148  1  0.33070000  0.14730000  0.89660000  1
  C  C149  1  0.33070000  0.64730000  0.60340000  1
  C  C150  1  0.26780000  0.50090000  0.79340000  1
  C  C151  1  0.26780000  0.00090000  0.70660000  1
  C  C152  1  0.26530000  0.17250000  0.84700000  1
  C  C153  1  0.26530000  0.67250000  0.65300000  1
  C  C154  1  0.25740000  0.45010000  0.96240000  1
  C  C155  1  0.25740000  0.95010000  0.53760000  1
  C  C156  1  0.24480000  0.01440000  0.76080000  1
  C  C157  1  0.24480000  0.51440000  0.73920000  1
  C  C158  1  0.22560000  0.77770000  0.27960000  1
  C  C159  1  0.22560000  0.27770000  0.22040000  1
  C  C160  1  0.21960000  0.09390000  0.93110000  1
  C  C161  1  0.21960000  0.59390000  0.56890000  1
  C  C162  1  0.19610000  0.70730000  0.25770000  1
  C  C163  1  0.19610000  0.20730000  0.24230000  1
  C  C164  1  0.17170000  0.05260000  0.37460000  1
  C  C165  1  0.17170000  0.55260000  0.12540000  1
  C  C166  1  0.16630000  0.70430000  0.87980000  1
  C  C167  1  0.16630000  0.20430000  0.62020000  1
  C  C168  1  0.16290000  0.12460000  0.35030000  1
  C  C169  1  0.16290000  0.62460000  0.14970000  1
  C  C170  1  0.11710000  0.35250000  0.90240000  1
  C  C171  1  0.11710000  0.85250000  0.59760000  1
  C  C172  1  0.11270000  0.80720000  0.31980000  1
  C  C173  1  0.11270000  0.30720000  0.18020000  1
  C  C174  1  0.10750000  0.42480000  0.92570000  1
  C  C175  1  0.10750000  0.92480000  0.57430000  1
  C  C176  1  0.06700000  0.80820000  0.81860000  1
  C  C177  1  0.06700000  0.30820000  0.68140000  1
  C  C178  1  0.04790000  0.66470000  0.27860000  1
  C  C179  1  0.04790000  0.16470000  0.22140000  1
  C  C180  1  0.03750000  0.73560000  0.83940000  1
  C  C181  1  0.03750000  0.23560000  0.66060000  1
  C  C182  1  0.03730000  0.02810000  0.41100000  1
  C  C183  1  0.03730000  0.52810000  0.08900000  1
  C  C184  1  0.01340000  0.17100000  0.36470000  1
  C  C185  1  0.01340000  0.67100000  0.13530000  1
  O  O186  1  0.92950000  0.43650000  0.41330000  1
  O  O187  1  0.92950000  0.93650000  0.08670000  1
  O  O188  1  0.86070000  0.86390000  0.39790000  1
  O  O189  1  0.86070000  0.36390000  0.10210000  1
  O  O190  1  0.72870000  0.42240000  0.47940000  1
  O  O191  1  0.72870000  0.92240000  0.02060000  1
  O  O192  1  0.72260000  0.97960000  0.47370000  1
  O  O193  1  0.72260000  0.47960000  0.02630000  1
  O  O194  1  0.69430000  0.75890000  0.39700000  1
  O  O195  1  0.69430000  0.25890000  0.10300000  1
  O  O196  1  0.63530000  0.09930000  0.48190000  1
  O  O197  1  0.63530000  0.59930000  0.01810000  1
  O  O198  1  0.36470000  0.40070000  0.98190000  1
  O  O199  1  0.36470000  0.90070000  0.51810000  1
  O  O200  1  0.30570000  0.74110000  0.89700000  1
  O  O201  1  0.30570000  0.24110000  0.60300000  1
  O  O202  1  0.27740000  0.52040000  0.97370000  1
  O  O203  1  0.27740000  0.02040000  0.52630000  1
  O  O204  1  0.27130000  0.07760000  0.97940000  1
  O  O205  1  0.27130000  0.57760000  0.52060000  1
  O  O206  1  0.13930000  0.63610000  0.89790000  1
  O  O207  1  0.13930000  0.13610000  0.60210000  1
  O  O208  1  0.07050000  0.06350000  0.91330000  1
  O  O209  1  0.07050000  0.56350000  0.58670000  1
