# generated using pymatgen
data_MgH3(CO2)3
_symmetry_space_group_name_H-M   'P 1'
_cell_length_a   8.22160000
_cell_length_b   12.56930000
_cell_length_c   12.56930000
_cell_angle_alpha   120.00000000
_cell_angle_beta   90.00000000
_cell_angle_gamma   90.00000000
_symmetry_Int_Tables_number   1
_chemical_formula_structural   MgH3(CO2)3
_chemical_formula_sum   'Mg6 H18 C18 O36'
_cell_volume   1124.88767692
_cell_formula_units_Z   6
loop_
 _symmetry_equiv_pos_site_id
 _symmetry_equiv_pos_as_xyz
  1  'x, y, z'
loop_
 _atom_site_type_symbol
 _atom_site_label
 _atom_site_symmetry_multiplicity
 _atom_site_fract_x
 _atom_site_fract_y
 _atom_site_fract_z
 _atom_site_occupancy
  Mg  Mg0  1  0.91253000  0.99799000  0.33230000  1
  Mg  Mg1  1  0.91253000  0.66770000  0.66569000  1
  Mg  Mg2  1  0.41253000  0.66569000  0.99799000  1
  Mg  Mg3  1  0.91253000  0.33431000  0.00201000  1
  Mg  Mg4  1  0.41253000  0.33230000  0.33431000  1
  Mg  Mg5  1  0.41253000  0.00201000  0.66770000  1
  H  H6  1  0.17850000  0.95370000  0.46810000  1
  H  H7  1  0.17020000  0.85970000  0.14650000  1
  H  H8  1  0.17020000  0.85350000  0.71320000  1
  H  H9  1  0.64040000  0.82180000  0.20040000  1
  H  H10  1  0.64040000  0.79960000  0.62140000  1
  H  H11  1  0.67020000  0.71320000  0.85970000  1
  H  H12  1  0.14040000  0.62140000  0.82180000  1
  H  H13  1  0.17850000  0.53190000  0.48560000  1
  H  H14  1  0.17850000  0.51440000  0.04630000  1
  H  H15  1  0.67850000  0.48560000  0.95370000  1
  H  H16  1  0.67850000  0.46810000  0.51440000  1
  H  H17  1  0.64040000  0.37860000  0.17820000  1
  H  H18  1  0.17020000  0.28680000  0.14030000  1
  H  H19  1  0.14040000  0.20040000  0.37860000  1
  H  H20  1  0.14040000  0.17820000  0.79960000  1
  H  H21  1  0.67020000  0.14650000  0.28680000  1
  H  H22  1  0.67020000  0.14030000  0.85350000  1
  H  H23  1  0.67850000  0.04630000  0.53190000  1
  C  C24  1  0.67010000  0.96041000  0.48396000  1
  C  C25  1  0.65340000  0.85662000  0.14994000  1
  C  C26  1  0.65340000  0.85006000  0.70668000  1
  C  C27  1  0.16610000  0.81358000  0.18661000  1
  C  C28  1  0.16610000  0.81339000  0.62697000  1
  C  C29  1  0.15340000  0.70668000  0.85662000  1
  C  C30  1  0.66610000  0.62697000  0.81358000  1
  C  C31  1  0.67010000  0.52355000  0.03959000  1
  C  C32  1  0.67010000  0.51604000  0.47645000  1
  C  C33  1  0.17010000  0.48396000  0.52355000  1
  C  C34  1  0.17010000  0.47645000  0.96041000  1
  C  C35  1  0.16610000  0.37303000  0.18642000  1
  C  C36  1  0.65340000  0.29332000  0.14338000  1
  C  C37  1  0.66610000  0.18661000  0.37303000  1
  C  C38  1  0.66610000  0.18642000  0.81339000  1
  C  C39  1  0.15340000  0.14994000  0.29332000  1
  C  C40  1  0.15340000  0.14338000  0.85006000  1
  C  C41  1  0.17010000  0.03959000  0.51604000  1
  O  O42  1  0.55537000  0.93547000  0.75941000  1
  O  O43  1  0.76759000  0.93077000  0.17612000  1
  O  O44  1  0.55905000  0.91125000  0.51097000  1
  O  O45  1  0.77112000  0.90799000  0.40033000  1
  O  O46  1  0.27002000  0.84433000  0.57580000  1
  O  O47  1  0.05793000  0.84121000  0.26452000  1
  O  O48  1  0.55537000  0.82394000  0.06453000  1
  O  O49  1  0.76759000  0.82388000  0.75465000  1
  O  O50  1  0.05537000  0.75941000  0.82394000  1
  O  O51  1  0.26759000  0.75465000  0.93077000  1
  O  O52  1  0.05793000  0.73548000  0.57669000  1
  O  O53  1  0.27002000  0.73147000  0.15567000  1
  O  O54  1  0.55905000  0.59972000  0.08875000  1
  O  O55  1  0.77112000  0.59967000  0.50766000  1
  O  O56  1  0.55793000  0.57669000  0.84121000  1
  O  O57  1  0.77002000  0.57580000  0.73147000  1
  O  O58  1  0.05905000  0.51097000  0.59972000  1
  O  O59  1  0.27112000  0.50766000  0.90799000  1
  O  O60  1  0.77112000  0.49234000  0.09201000  1
  O  O61  1  0.55905000  0.48903000  0.40028000  1
  O  O62  1  0.27002000  0.42420000  0.26853000  1
  O  O63  1  0.05793000  0.42331000  0.15879000  1
  O  O64  1  0.27112000  0.40033000  0.49234000  1
  O  O65  1  0.05905000  0.40028000  0.91125000  1
  O  O66  1  0.77002000  0.26853000  0.84433000  1
  O  O67  1  0.55793000  0.26452000  0.42331000  1
  O  O68  1  0.76759000  0.24535000  0.06923000  1
  O  O69  1  0.55537000  0.24059000  0.17606000  1
  O  O70  1  0.26759000  0.17612000  0.24535000  1
  O  O71  1  0.05537000  0.17606000  0.93547000  1
  O  O72  1  0.55793000  0.15879000  0.73548000  1
  O  O73  1  0.77002000  0.15567000  0.42420000  1
  O  O74  1  0.27112000  0.09201000  0.59967000  1
  O  O75  1  0.05905000  0.08875000  0.48903000  1
  O  O76  1  0.26759000  0.06923000  0.82388000  1
  O  O77  1  0.05537000  0.06453000  0.24059000  1
