# generated using pymatgen
data_AlPO4
_symmetry_space_group_name_H-M   'P 1'
_cell_length_a   8.34870000
_cell_length_b   14.80220000
_cell_length_c   16.09171432
_cell_angle_alpha   117.38274233
_cell_angle_beta   105.03505058
_cell_angle_gamma   90.00000000
_symmetry_Int_Tables_number   1
_chemical_formula_structural   AlPO4
_chemical_formula_sum   'Al16 P16 O64'
_cell_volume   1688.75202506
_cell_formula_units_Z   16
loop_
 _symmetry_equiv_pos_site_id
 _symmetry_equiv_pos_as_xyz
  1  'x, y, z'
loop_
 _atom_site_type_symbol
 _atom_site_label
 _atom_site_symmetry_multiplicity
 _atom_site_fract_x
 _atom_site_fract_y
 _atom_site_fract_z
 _atom_site_occupancy
  Al  Al0  1  0.82027000  0.14866000  0.11094000  1
  Al  Al1  1  0.20933000  0.03772000  0.88906000  1
  Al  Al2  1  0.98954000  0.31494000  0.44268000  1
  Al  Al3  1  0.04686000  0.87226000  0.55732000  1
  Al  Al4  1  0.58645000  0.42519000  0.65090000  1
  Al  Al5  1  0.43555000  0.77429000  0.34910000  1
  Al  Al6  1  0.39842000  0.36141000  0.27044000  1
  Al  Al7  1  0.62798000  0.09097000  0.72956000  1
  Al  Al8  1  0.12798000  0.63859000  0.72956000  1
  Al  Al9  1  0.89842000  0.90903000  0.27044000  1
  Al  Al10  1  0.93555000  0.57481000  0.34910000  1
  Al  Al11  1  0.08645000  0.22571000  0.65090000  1
  Al  Al12  1  0.54686000  0.68506000  0.55732000  1
  Al  Al13  1  0.48954000  0.12774000  0.44268000  1
  Al  Al14  1  0.70933000  0.85134000  0.88906000  1
  Al  Al15  1  0.32027000  0.96228000  0.11094000  1
  O  O16  1  0.03044000  0.34624000  0.69148000  1
  O  O17  1  0.83896000  0.65476000  0.30852000  1
  O  O18  1  0.40175000  0.20605000  0.39610000  1
  O  O19  1  0.50565000  0.80995000  0.60390000  1
  O  O20  1  0.28262000  0.08802000  0.15004000  1
  O  O21  1  0.63258000  0.93798000  0.84996000  1
  O  O22  1  0.19573000  0.31913000  0.45566000  1
  O  O23  1  0.24007000  0.86347000  0.54434000  1
  O  O24  1  0.02042000  0.15582000  0.10944000  1
  O  O25  1  0.41098000  0.04638000  0.89056000  1
  O  O26  1  0.79272000  0.43352000  0.66204000  1
  O  O27  1  0.63068000  0.77148000  0.33796000  1
  O  O28  1  0.96862000  0.38992000  0.55604000  1
  O  O29  1  0.91258000  0.83388000  0.44396000  1
  O  O30  1  0.19316000  0.11466000  0.00172000  1
  O  O31  1  0.69144000  0.11294000  0.99828000  1
  O  O32  1  0.48700000  0.38640000  0.53180000  1
  O  O33  1  0.45520000  0.85460000  0.46820000  1
  O  O34  1  0.07536000  0.52721000  0.73072000  1
  O  O35  1  0.84464000  0.79649000  0.26928000  1
  O  O36  1  0.34820000  0.35310000  0.36240000  1
  O  O37  1  0.48580000  0.99070000  0.63760000  1
  O  O38  1  0.78697000  0.26847000  0.18734000  1
  O  O39  1  0.09963000  0.08113000  0.81266000  1
  O  O40  1  0.89554000  0.36404000  0.36908000  1
  O  O41  1  0.02646000  0.99496000  0.63092000  1
  O  O42  1  0.55173000  0.54522000  0.72766000  1
  O  O43  1  0.32407000  0.81756000  0.27234000  1
  O  O44  1  0.28921000  0.26211000  0.16122000  1
  O  O45  1  0.62799000  0.10089000  0.83878000  1
  O  O46  1  0.60549000  0.35959000  0.28938000  1
  O  O47  1  0.81611000  0.07021000  0.71062000  1
  O  O48  1  0.31611000  0.64041000  0.71062000  1
  O  O49  1  0.10549000  0.92979000  0.28938000  1
  O  O50  1  0.12799000  0.73789000  0.83878000  1
  O  O51  1  0.78921000  0.89911000  0.16122000  1
  O  O52  1  0.82407000  0.45478000  0.27234000  1
  O  O53  1  0.05173000  0.18244000  0.72766000  1
  O  O54  1  0.52646000  0.63596000  0.63092000  1
  O  O55  1  0.39554000  0.00504000  0.36908000  1
  O  O56  1  0.59963000  0.73153000  0.81266000  1
  O  O57  1  0.28697000  0.91887000  0.18734000  1
  O  O58  1  0.98580000  0.64690000  0.63760000  1
  O  O59  1  0.84820000  0.00930000  0.36240000  1
  O  O60  1  0.34464000  0.47279000  0.26928000  1
  O  O61  1  0.57536000  0.20351000  0.73072000  1
  O  O62  1  0.95520000  0.61360000  0.46820000  1
  O  O63  1  0.98700000  0.14540000  0.53180000  1
  O  O64  1  0.19144000  0.88534000  0.99828000  1
  O  O65  1  0.69316000  0.88706000  0.00172000  1
  O  O66  1  0.41258000  0.61008000  0.44396000  1
  O  O67  1  0.46862000  0.16612000  0.55604000  1
  O  O68  1  0.13068000  0.56648000  0.33796000  1
  O  O69  1  0.29272000  0.22852000  0.66204000  1
  O  O70  1  0.91098000  0.84418000  0.89056000  1
  O  O71  1  0.52042000  0.95362000  0.10944000  1
  O  O72  1  0.74007000  0.68087000  0.54434000  1
  O  O73  1  0.69573000  0.13653000  0.45566000  1
  O  O74  1  0.13258000  0.91198000  0.84996000  1
  O  O75  1  0.78262000  0.06202000  0.15004000  1
  O  O76  1  0.00565000  0.79395000  0.60390000  1
  O  O77  1  0.90175000  0.19005000  0.39610000  1
  O  O78  1  0.33896000  0.65376000  0.30852000  1
  O  O79  1  0.53044000  0.34524000  0.69148000  1
  P  P80  1  0.96805000  0.42432000  0.65870000  1
  P  P81  1  0.80935000  0.76562000  0.34130000  1
  P  P82  1  0.36036000  0.31591000  0.43592000  1
  P  P83  1  0.42444000  0.87999000  0.56408000  1
  P  P84  1  0.19565000  0.15396000  0.10570000  1
  P  P85  1  0.58995000  0.04826000  0.89430000  1
  P  P86  1  0.77722000  0.35947000  0.27904000  1
  P  P87  1  0.99818000  0.08043000  0.72096000  1
  P  P88  1  0.49818000  0.64053000  0.72096000  1
  P  P89  1  0.27722000  0.91957000  0.27904000  1
  P  P90  1  0.08995000  0.84604000  0.89430000  1
  P  P91  1  0.69565000  0.95174000  0.10570000  1
  P  P92  1  0.92444000  0.68409000  0.56408000  1
  P  P93  1  0.86036000  0.12001000  0.43592000  1
  P  P94  1  0.30935000  0.57568000  0.34130000  1
  P  P95  1  0.46805000  0.23438000  0.65870000  1
