# generated using pymatgen
data_Cu3H6C10I2(NO)4
_symmetry_space_group_name_H-M   'P 1'
_cell_length_a   7.66810000
_cell_length_b   15.42680000
_cell_length_c   31.90900000
_cell_angle_alpha   90.00000000
_cell_angle_beta   90.00000000
_cell_angle_gamma   90.00000000
_symmetry_Int_Tables_number   1
_chemical_formula_structural   Cu3H6C10I2(NO)4
_chemical_formula_sum   'Cu24 H48 C80 I16 N32 O32'
_cell_volume   3774.65106626
_cell_formula_units_Z   8
loop_
 _symmetry_equiv_pos_site_id
 _symmetry_equiv_pos_as_xyz
  1  'x, y, z'
loop_
 _atom_site_type_symbol
 _atom_site_label
 _atom_site_symmetry_multiplicity
 _atom_site_fract_x
 _atom_site_fract_y
 _atom_site_fract_z
 _atom_site_occupancy
  Cu  Cu0  1  0.92170000  0.97005000  0.96578000  1
  Cu  Cu1  1  0.92170000  0.47005000  0.03422000  1
  Cu  Cu2  1  0.91429000  0.67389000  0.93808000  1
  Cu  Cu3  1  0.91429000  0.17389000  0.06192000  1
  Cu  Cu4  1  0.75089000  0.12667000  0.77089000  1
  Cu  Cu5  1  0.75089000  0.62667000  0.22911000  1
  Cu  Cu6  1  0.74911000  0.62667000  0.72911000  1
  Cu  Cu7  1  0.74911000  0.12667000  0.27089000  1
  Cu  Cu8  1  0.58571000  0.17389000  0.56192000  1
  Cu  Cu9  1  0.58571000  0.67389000  0.43808000  1
  Cu  Cu10  1  0.57830000  0.47005000  0.53422000  1
  Cu  Cu11  1  0.57830000  0.97005000  0.46578000  1
  Cu  Cu12  1  0.42170000  0.02995000  0.53422000  1
  Cu  Cu13  1  0.42170000  0.52995000  0.46578000  1
  Cu  Cu14  1  0.41429000  0.32611000  0.56192000  1
  Cu  Cu15  1  0.41429000  0.82611000  0.43808000  1
  Cu  Cu16  1  0.25089000  0.87333000  0.72911000  1
  Cu  Cu17  1  0.25089000  0.37333000  0.27089000  1
  Cu  Cu18  1  0.24911000  0.37333000  0.77089000  1
  Cu  Cu19  1  0.24911000  0.87333000  0.22911000  1
  Cu  Cu20  1  0.08571000  0.82611000  0.93808000  1
  Cu  Cu21  1  0.08571000  0.32611000  0.06192000  1
  Cu  Cu22  1  0.07830000  0.52995000  0.96578000  1
  Cu  Cu23  1  0.07830000  0.02995000  0.03422000  1
  H  H24  1  0.91730000  0.87440000  0.78760000  1
  H  H25  1  0.91730000  0.37440000  0.21240000  1
  H  H26  1  0.91700000  0.39160000  0.82940000  1
  H  H27  1  0.91700000  0.89160000  0.17060000  1
  H  H28  1  0.88250000  0.15460000  0.62440000  1
  H  H29  1  0.88250000  0.65460000  0.37560000  1
  H  H30  1  0.87810000  0.85840000  0.85840000  1
  H  H31  1  0.87810000  0.35840000  0.14160000  1
  H  H32  1  0.87630000  0.43880000  0.89720000  1
  H  H33  1  0.87630000  0.93880000  0.10280000  1
  H  H34  1  0.87580000  0.51700000  0.59240000  1
  H  H35  1  0.87580000  0.01700000  0.40760000  1
  H  H36  1  0.62420000  0.01700000  0.90760000  1
  H  H37  1  0.62420000  0.51700000  0.09240000  1
  H  H38  1  0.62370000  0.93880000  0.60280000  1
  H  H39  1  0.62370000  0.43880000  0.39720000  1
  H  H40  1  0.62190000  0.35840000  0.64160000  1
  H  H41  1  0.62190000  0.85840000  0.35840000  1
  H  H42  1  0.61750000  0.65460000  0.87560000  1
  H  H43  1  0.61750000  0.15460000  0.12440000  1
  H  H44  1  0.58300000  0.89160000  0.67060000  1
  H  H45  1  0.58300000  0.39160000  0.32940000  1
  H  H46  1  0.58270000  0.37440000  0.71240000  1
  H  H47  1  0.58270000  0.87440000  0.28760000  1
  H  H48  1  0.41730000  0.12560000  0.71240000  1
  H  H49  1  0.41730000  0.62560000  0.28760000  1
  H  H50  1  0.41700000  0.60840000  0.67060000  1
  H  H51  1  0.41700000  0.10840000  0.32940000  1
  H  H52  1  0.38250000  0.84540000  0.87560000  1
  H  H53  1  0.38250000  0.34540000  0.12440000  1
  H  H54  1  0.37810000  0.14160000  0.64160000  1
  H  H55  1  0.37810000  0.64160000  0.35840000  1
  H  H56  1  0.37630000  0.56120000  0.60280000  1
  H  H57  1  0.37630000  0.06120000  0.39720000  1
  H  H58  1  0.37580000  0.48300000  0.90760000  1
  H  H59  1  0.37580000  0.98300000  0.09240000  1
  H  H60  1  0.12420000  0.98300000  0.59240000  1
  H  H61  1  0.12420000  0.48300000  0.40760000  1
  H  H62  1  0.12370000  0.06120000  0.89720000  1
  H  H63  1  0.12370000  0.56120000  0.10280000  1
  H  H64  1  0.12190000  0.64160000  0.85840000  1
  H  H65  1  0.12190000  0.14160000  0.14160000  1
  H  H66  1  0.11750000  0.34540000  0.62440000  1
  H  H67  1  0.11750000  0.84540000  0.37560000  1
  H  H68  1  0.08300000  0.10840000  0.82940000  1
  H  H69  1  0.08300000  0.60840000  0.17060000  1
  H  H70  1  0.08270000  0.62560000  0.78760000  1
  H  H71  1  0.08270000  0.12560000  0.21240000  1
  C  C72  1  0.99090000  0.85810000  0.84760000  1
  C  C73  1  0.99090000  0.35810000  0.15240000  1
  C  C74  1  0.98790000  0.43920000  0.88580000  1
  C  C75  1  0.98790000  0.93920000  0.11420000  1
  C  C76  1  0.98750000  0.08980000  0.84500000  1
  C  C77  1  0.98750000  0.58980000  0.15500000  1
  C  C78  1  0.98670000  0.13910000  0.70570000  1
  C  C79  1  0.98670000  0.63910000  0.29430000  1
  C  C80  1  0.98610000  0.63210000  0.80496000  1
  C  C81  1  0.98610000  0.13210000  0.19504000  1
  C  C82  1  0.98340000  0.57040000  0.66950000  1
  C  C83  1  0.98340000  0.07040000  0.33050000  1
  C  C84  1  0.81070000  0.14010000  0.68510000  1
  C  C85  1  0.81070000  0.64010000  0.31490000  1
  C  C86  1  0.80550000  0.56450000  0.64860000  1
  C  C87  1  0.80550000  0.06450000  0.35140000  1
  C  C88  1  0.78620000  0.14970000  0.64200000  1
  C  C89  1  0.78620000  0.64970000  0.35800000  1
  C  C90  1  0.78030000  0.53510000  0.60810000  1
  C  C91  1  0.78030000  0.03510000  0.39190000  1
  C  C92  1  0.71970000  0.03510000  0.89190000  1
  C  C93  1  0.71970000  0.53510000  0.10810000  1
  C  C94  1  0.71380000  0.64970000  0.85800000  1
  C  C95  1  0.71380000  0.14970000  0.14200000  1
  C  C96  1  0.69450000  0.06450000  0.85140000  1
  C  C97  1  0.69450000  0.56450000  0.14860000  1
  C  C98  1  0.68930000  0.64010000  0.81490000  1
  C  C99  1  0.68930000  0.14010000  0.18510000  1
  C  C100  1  0.51660000  0.07040000  0.83050000  1
  C  C101  1  0.51660000  0.57040000  0.16950000  1
  C  C102  1  0.51390000  0.13210000  0.69504000  1
  C  C103  1  0.51390000  0.63210000  0.30496000  1
  C  C104  1  0.51330000  0.63910000  0.79430000  1
  C  C105  1  0.51330000  0.13910000  0.20570000  1
  C  C106  1  0.51250000  0.58980000  0.65500000  1
  C  C107  1  0.51250000  0.08980000  0.34500000  1
  C  C108  1  0.51210000  0.93920000  0.61420000  1
  C  C109  1  0.51210000  0.43920000  0.38580000  1
  C  C110  1  0.50910000  0.35810000  0.65240000  1
  C  C111  1  0.50910000  0.85810000  0.34760000  1
  C  C112  1  0.49090000  0.14190000  0.65240000  1
  C  C113  1  0.49090000  0.64190000  0.34760000  1
  C  C114  1  0.48790000  0.56080000  0.61420000  1
  C  C115  1  0.48790000  0.06080000  0.38580000  1
  C  C116  1  0.48750000  0.91020000  0.65500000  1
  C  C117  1  0.48750000  0.41020000  0.34500000  1
  C  C118  1  0.48670000  0.86090000  0.79430000  1
  C  C119  1  0.48670000  0.36090000  0.20570000  1
  C  C120  1  0.48610000  0.36790000  0.69504000  1
  C  C121  1  0.48610000  0.86790000  0.30496000  1
  C  C122  1  0.48340000  0.42960000  0.83050000  1
  C  C123  1  0.48340000  0.92960000  0.16950000  1
  C  C124  1  0.31070000  0.85990000  0.81490000  1
  C  C125  1  0.31070000  0.35990000  0.18510000  1
  C  C126  1  0.30550000  0.43550000  0.85140000  1
  C  C127  1  0.30550000  0.93550000  0.14860000  1
  C  C128  1  0.28620000  0.85030000  0.85800000  1
  C  C129  1  0.28620000  0.35030000  0.14200000  1
  C  C130  1  0.28030000  0.46490000  0.89190000  1
  C  C131  1  0.28030000  0.96490000  0.10810000  1
  C  C132  1  0.21970000  0.96490000  0.60810000  1
  C  C133  1  0.21970000  0.46490000  0.39190000  1
  C  C134  1  0.21380000  0.35030000  0.64200000  1
  C  C135  1  0.21380000  0.85030000  0.35800000  1
  C  C136  1  0.19450000  0.93550000  0.64860000  1
  C  C137  1  0.19450000  0.43550000  0.35140000  1
  C  C138  1  0.18930000  0.35990000  0.68510000  1
  C  C139  1  0.18930000  0.85990000  0.31490000  1
  C  C140  1  0.01660000  0.92960000  0.66950000  1
  C  C141  1  0.01660000  0.42960000  0.33050000  1
  C  C142  1  0.01390000  0.86790000  0.80496000  1
  C  C143  1  0.01390000  0.36790000  0.19504000  1
  C  C144  1  0.01330000  0.36090000  0.70570000  1
  C  C145  1  0.01330000  0.86090000  0.29430000  1
  C  C146  1  0.01250000  0.41020000  0.84500000  1
  C  C147  1  0.01250000  0.91020000  0.15500000  1
  C  C148  1  0.01210000  0.06080000  0.88580000  1
  C  C149  1  0.01210000  0.56080000  0.11420000  1
  C  C150  1  0.00910000  0.64190000  0.84760000  1
  C  C151  1  0.00910000  0.14190000  0.15240000  1
  I  I152  1  0.76207000  0.04942000  0.52377000  1
  I  I153  1  0.76207000  0.54942000  0.47623000  1
  I  I154  1  0.75545000  0.32112000  0.54787000  1
  I  I155  1  0.75545000  0.82112000  0.45213000  1
  I  I156  1  0.74455000  0.82112000  0.95213000  1
  I  I157  1  0.74455000  0.32112000  0.04787000  1
  I  I158  1  0.73793000  0.54942000  0.97623000  1
  I  I159  1  0.73793000  0.04942000  0.02377000  1
  I  I160  1  0.26207000  0.95058000  0.97623000  1
  I  I161  1  0.26207000  0.45058000  0.02377000  1
  I  I162  1  0.25545000  0.67888000  0.95213000  1
  I  I163  1  0.25545000  0.17888000  0.04787000  1
  I  I164  1  0.24455000  0.17888000  0.54787000  1
  I  I165  1  0.24455000  0.67888000  0.45213000  1
  I  I166  1  0.23793000  0.45058000  0.52377000  1
  I  I167  1  0.23793000  0.95058000  0.47623000  1
  N  N168  1  0.87910000  0.03230000  0.90888000  1
  N  N169  1  0.87910000  0.53230000  0.09112000  1
  N  N170  1  0.87390000  0.65190000  0.87424000  1
  N  N171  1  0.87390000  0.15190000  0.12576000  1
  N  N172  1  0.82880000  0.09120000  0.82774000  1
  N  N173  1  0.82880000  0.59120000  0.17226000  1
  N  N174  1  0.82570000  0.63190000  0.78841000  1
  N  N175  1  0.82570000  0.13190000  0.21159000  1
  N  N176  1  0.67430000  0.13190000  0.71159000  1
  N  N177  1  0.67430000  0.63190000  0.28841000  1
  N  N178  1  0.67120000  0.59120000  0.67226000  1
  N  N179  1  0.67120000  0.09120000  0.32774000  1
  N  N180  1  0.62610000  0.15190000  0.62576000  1
  N  N181  1  0.62610000  0.65190000  0.37424000  1
  N  N182  1  0.62090000  0.53230000  0.59112000  1
  N  N183  1  0.62090000  0.03230000  0.40888000  1
  N  N184  1  0.37910000  0.96770000  0.59112000  1
  N  N185  1  0.37910000  0.46770000  0.40888000  1
  N  N186  1  0.37390000  0.34810000  0.62576000  1
  N  N187  1  0.37390000  0.84810000  0.37424000  1
  N  N188  1  0.32880000  0.90880000  0.67226000  1
  N  N189  1  0.32880000  0.40880000  0.32774000  1
  N  N190  1  0.32570000  0.36810000  0.71159000  1
  N  N191  1  0.32570000  0.86810000  0.28841000  1
  N  N192  1  0.17430000  0.86810000  0.78841000  1
  N  N193  1  0.17430000  0.36810000  0.21159000  1
  N  N194  1  0.17120000  0.40880000  0.82774000  1
  N  N195  1  0.17120000  0.90880000  0.17226000  1
  N  N196  1  0.12610000  0.84810000  0.87424000  1
  N  N197  1  0.12610000  0.34810000  0.12576000  1
  N  N198  1  0.12090000  0.46770000  0.90888000  1
  N  N199  1  0.12090000  0.96770000  0.09112000  1
  O  O200  1  0.98340000  0.13410000  0.74600000  1
  O  O201  1  0.98340000  0.63410000  0.25400000  1
  O  O202  1  0.97890000  0.60070000  0.70715000  1
  O  O203  1  0.97890000  0.10070000  0.29285000  1
  O  O204  1  0.88780000  0.95460000  0.65115000  1
  O  O205  1  0.88780000  0.45460000  0.34885000  1
  O  O206  1  0.88110000  0.35550000  0.68490000  1
  O  O207  1  0.88110000  0.85550000  0.31510000  1
  O  O208  1  0.61890000  0.85550000  0.81510000  1
  O  O209  1  0.61890000  0.35550000  0.18490000  1
  O  O210  1  0.61220000  0.45460000  0.84885000  1
  O  O211  1  0.61220000  0.95460000  0.15115000  1
  O  O212  1  0.52110000  0.10070000  0.79285000  1
  O  O213  1  0.52110000  0.60070000  0.20715000  1
  O  O214  1  0.51660000  0.63410000  0.75400000  1
  O  O215  1  0.51660000  0.13410000  0.24600000  1
  O  O216  1  0.48340000  0.86590000  0.75400000  1
  O  O217  1  0.48340000  0.36590000  0.24600000  1
  O  O218  1  0.47890000  0.39930000  0.79285000  1
  O  O219  1  0.47890000  0.89930000  0.20715000  1
  O  O220  1  0.38780000  0.04540000  0.84885000  1
  O  O221  1  0.38780000  0.54540000  0.15115000  1
  O  O222  1  0.38110000  0.64450000  0.81510000  1
  O  O223  1  0.38110000  0.14450000  0.18490000  1
  O  O224  1  0.11890000  0.14450000  0.68490000  1
  O  O225  1  0.11890000  0.64450000  0.31510000  1
  O  O226  1  0.11220000  0.54540000  0.65115000  1
  O  O227  1  0.11220000  0.04540000  0.34885000  1
  O  O228  1  0.02110000  0.89930000  0.70715000  1
  O  O229  1  0.02110000  0.39930000  0.29285000  1
  O  O230  1  0.01660000  0.36590000  0.74600000  1
  O  O231  1  0.01660000  0.86590000  0.25400000  1
