# generated using pymatgen
data_AlH5C8O5
_symmetry_space_group_name_H-M   'P 1'
_cell_length_a   6.56030000
_cell_length_b   10.94633270
_cell_length_c   10.94633270
_cell_angle_alpha   75.77187515
_cell_angle_beta   72.56297084
_cell_angle_gamma   72.56297084
_symmetry_Int_Tables_number   1
_chemical_formula_structural   AlH5C8O5
_chemical_formula_sum   'Al2 H10 C16 O10'
_cell_volume   704.89951440
_cell_formula_units_Z   2
loop_
 _symmetry_equiv_pos_site_id
 _symmetry_equiv_pos_as_xyz
  1  'x, y, z'
loop_
 _atom_site_type_symbol
 _atom_site_label
 _atom_site_symmetry_multiplicity
 _atom_site_fract_x
 _atom_site_fract_y
 _atom_site_fract_z
 _atom_site_occupancy
  Al  Al0  1  0.25844500  0.75105000  0.24312000  1
  Al  Al1  1  0.75827500  0.75051000  0.24351000  1
  C  C2  1  0.54151500  0.31832500  0.23944500  1
  C  C3  1  0.61040500  0.18515500  0.23457500  1
  C  C4  1  0.09827000  0.76322000  0.67474000  1
  C  C5  1  0.02937000  0.76802000  0.80809000  1
  C  C6  1  0.97914500  0.18518000  0.23426000  1
  C  C7  1  0.91007500  0.31838500  0.23908500  1
  C  C8  1  0.39777000  0.76810000  0.80791000  1
  C  C9  1  0.46677000  0.76336000  0.67478000  1
  C  C10  1  0.61658000  0.52842000  0.24758000  1
  C  C11  1  0.68976000  0.38659500  0.24289500  1
  C  C12  1  0.82925000  0.11655500  0.23381500  1
  C  C13  1  0.89968000  0.97379500  0.23584500  1
  C  C14  1  0.11112500  0.76256500  0.02020500  1
  C  C15  1  0.17980500  0.76714000  0.87702000  1
  C  C16  1  0.39403500  0.75087500  0.46569500  1
  C  C17  1  0.31923000  0.75810500  0.60697500  1
  H  H18  1  0.14966000  0.13544000  0.23118000  1
  H  H19  1  0.02945000  0.36821000  0.23908000  1
  H  H20  1  0.51548500  0.77098000  0.85724000  1
  H  H21  1  0.63591000  0.76312500  0.62463500  1
  H  H22  1  0.37236000  0.36817500  0.23956500  1
  H  H23  1  0.49256000  0.13529500  0.23199500  1
  H  H24  1  0.97908000  0.76298000  0.62448000  1
  H  H25  1  0.85899500  0.77067500  0.85759500  1
  H  H26  1  0.01092500  0.63129000  0.35905000  1
  H  H27  1  0.51061000  0.86626500  0.12423500  1
  O  O28  1  0.75542500  0.91468500  0.23846500  1
  O  O29  1  0.41436000  0.58695500  0.24792500  1
  O  O30  1  0.25100000  0.74939000  0.40757000  1
  O  O31  1  0.91034500  0.75970500  0.07882500  1
  O  O32  1  0.76026000  0.58611000  0.24917000  1
  O  O33  1  0.10150500  0.91561500  0.23647500  1
  O  O34  1  0.25605000  0.76011500  0.07885500  1
  O  O35  1  0.59728500  0.74822500  0.40762500  1
  O  O36  1  0.00984500  0.69591500  0.29549500  1
  O  O37  1  0.50966000  0.80259000  0.18891000  1
