# generated using pymatgen
data_DyH8C18N3O8
_symmetry_space_group_name_H-M   'P 1'
_cell_length_a   10.32442931
_cell_length_b   10.32442931
_cell_length_c   21.04059528
_cell_angle_alpha   98.79939928
_cell_angle_beta   98.79939928
_cell_angle_gamma   112.11640278
_symmetry_Int_Tables_number   1
_chemical_formula_structural   DyH8C18N3O8
_chemical_formula_sum   'Dy4 H32 C72 N12 O32'
_cell_volume   1998.27101126
_cell_formula_units_Z   4
loop_
 _symmetry_equiv_pos_site_id
 _symmetry_equiv_pos_as_xyz
  1  'x, y, z'
loop_
 _atom_site_type_symbol
 _atom_site_label
 _atom_site_symmetry_multiplicity
 _atom_site_fract_x
 _atom_site_fract_y
 _atom_site_fract_z
 _atom_site_occupancy
  C  C0  1  0.01570000  0.29450000  0.28760000  1
  C  C1  1  0.41190000  0.90730000  0.28720000  1
  C  C2  1  0.70910000  0.98510000  0.64140000  1
  C  C3  1  0.77770000  0.10330000  0.82800000  1
  C  C4  1  0.84420000  0.51960000  0.30880000  1
  C  C5  1  0.40260000  0.88360000  0.22060000  1
  C  C6  1  0.25100000  0.73180000  0.89700000  1
  C  C7  1  0.39490000  0.49990000  0.79760000  1
  C  C8  1  0.21920000  0.72380000  0.82400000  1
  C  C9  1  0.78210000  0.10750000  0.76220000  1
  C  C10  1  0.64860000  0.71300000  0.23140000  1
  C  C11  1  0.70670000  0.75490000  0.29820000  1
  C  C12  1  0.02300000  0.30280000  0.15640000  1
  C  C13  1  0.58040000  0.30880000  0.70760000  1
  C  C14  1  0.16610000  0.70650000  0.68840000  1
  C  C15  1  0.86090000  0.23870000  0.88060000  1
  C  C16  1  0.54470000  0.01030000  0.33540000  1
  C  C17  1  0.14370000  0.37270000  0.27180000  1
  C  C18  1  0.64910000  0.37810000  0.77180000  1
  C  C19  1  0.07510000  0.04070000  0.83540000  1
  C  C20  1  0.39190000  0.26970000  0.38060000  1
  C  C21  1  0.73190000  0.77230000  0.18840000  1
  C  C22  1  0.14880000  0.37720000  0.20760000  1
  C  C23  1  0.60360000  0.38340000  0.65640000  1
  C  C24  1  0.29330000  0.84150000  0.79820000  1
  C  C25  1  0.26840000  0.83280000  0.73140000  1
  C  C26  1  0.40470000  0.23010000  0.26220000  1
  C  C27  1  0.85020000  0.85480000  0.32400000  1
  C  C28  1  0.04770000  0.65270000  0.29760000  1
  C  C29  1  0.91520000  0.89600000  0.39700000  1
  C  C30  1  0.08700000  0.06800000  0.72060000  1
  C  C31  1  0.53920000  0.71460000  0.80880000  1
  C  C32  1  0.47470000  0.30030000  0.32800000  1
  C  C33  1  0.40630000  0.18230000  0.14140000  1
  C  C34  1  0.12990000  0.12530000  0.78720000  1
  C  C35  1  0.74310000  0.52190000  0.78760000  1
  C  C36  1  0.47810000  0.25690000  0.21240000  1
  C  C37  1  0.87470000  0.87010000  0.21280000  1
  C  C38  1  0.81770000  0.59370000  0.85860000  1
  C  C39  1  0.69970000  0.52530000  0.67200000  1
  C  C40  1  0.28540000  0.46080000  0.19120000  1
  C  C41  1  0.93200000  0.91300000  0.27940000  1
  C  C42  1  0.10400000  0.08480000  0.60300000  1
  C  C43  1  0.34730000  0.95230000  0.70240000  1
  C  C44  1  0.14520000  0.14980000  0.67600000  1
  C  C45  1  0.76990000  0.59530000  0.73780000  1
  C  C46  1  0.16720000  0.73160000  0.26860000  1
  C  C47  1  0.15850000  0.70670000  0.20180000  1
  C  C48  1  0.61660000  0.39640000  0.34360000  1
  C  C49  1  0.62280000  0.85120000  0.79240000  1
  C  C50  1  0.22770000  0.26810000  0.81160000  1
  C  C51  1  0.73030000  0.60810000  0.61940000  1
  C  C52  1  0.95930000  0.92490000  0.16460000  1
  C  C53  1  0.62190000  0.35090000  0.22820000  1
  C  C54  1  0.62730000  0.85630000  0.72820000  1
  C  C55  1  0.98970000  0.45530000  0.66460000  1
  C  C56  1  0.76130000  0.13910000  0.11940000  1
  C  C57  1  0.29350000  0.83390000  0.31160000  1
  C  C58  1  0.69120000  0.41960000  0.29240000  1
  C  C59  1  0.69720000  0.97700000  0.84360000  1
  C  C60  1  0.24510000  0.29330000  0.70180000  1
  C  C61  1  0.28700000  0.35140000  0.76860000  1
  C  C62  1  0.89250000  0.21790000  0.23780000  1
  C  C63  1  0.27620000  0.78080000  0.17600000  1
  C  C64  1  0.50010000  0.60510000  0.20240000  1
  C  C65  1  0.26820000  0.74900000  0.10300000  1
  C  C66  1  0.11640000  0.59740000  0.77940000  1
  C  C67  1  0.48040000  0.15580000  0.69120000  1
  C  C68  1  0.89670000  0.22230000  0.17200000  1
  C  C69  1  0.01490000  0.29090000  0.35860000  1
  C  C70  1  0.09270000  0.58810000  0.71280000  1
  C  C71  1  0.70550000  0.98430000  0.71240000  1
  Dy  Dy72  1  0.78386000  0.78602000  0.52920000  1
  Dy  Dy73  1  0.49318000  0.99534000  0.02920000  1
  Dy  Dy74  1  0.00466000  0.50682000  0.97080000  1
  Dy  Dy75  1  0.21398000  0.21614000  0.47080000  1
  H  H76  1  0.98480000  0.85760000  0.83380000  1
  H  H77  1  0.64930000  0.71610000  0.32760000  1
  H  H78  1  0.43480000  0.50420000  0.89220000  1
  H  H79  1  0.63220000  0.32740000  0.80580000  1
  H  H80  1  0.14610000  0.70110000  0.64220000  1
  H  H81  1  0.48200000  0.93700000  0.20400000  1
  H  H82  1  0.30680000  0.16420000  0.25180000  1
  H  H83  1  0.02570000  0.30830000  0.11200000  1
  H  H84  1  0.55370000  0.33630000  0.61200000  1
  H  H85  1  0.83760000  0.19500000  0.75180000  1
  H  H86  1  0.01700000  0.97200000  0.70400000  1
  H  H87  1  0.69110000  0.74610000  0.14220000  1
  H  H88  1  0.22840000  0.42360000  0.30580000  1
  H  H89  1  0.13800000  0.70740000  0.39220000  1
  H  H90  1  0.36150000  0.92830000  0.82760000  1
  H  H91  1  0.72620000  0.09900000  0.33380000  1
  H  H92  1  0.90100000  0.27380000  0.66620000  1
  H  H93  1  0.07170000  0.63850000  0.17240000  1
  H  H94  1  0.29260000  0.86200000  0.60780000  1
  H  H95  1  0.57640000  0.77160000  0.69420000  1
  H  H96  1  0.25390000  0.30890000  0.85780000  1
  H  H97  1  0.02800000  0.98300000  0.29600000  1
  H  H98  1  0.80500000  0.16240000  0.24820000  1
  H  H99  1  0.66370000  0.44630000  0.38800000  1
  H  H100  1  0.69170000  0.97430000  0.88800000  1
  H  H101  1  0.83580000  0.69320000  0.74820000  1
  H  H102  1  0.06300000  0.51800000  0.79600000  1
  H  H103  1  0.29890000  0.85390000  0.35780000  1
  H  H104  1  0.67260000  0.36780000  0.19420000  1
  H  H105  1  0.49580000  0.56520000  0.10780000  1
  H  H106  1  0.28390000  0.35070000  0.67240000  1
  H  H107  1  0.14240000  0.01520000  0.16620000  1
  N  N108  1  0.92670000  0.57090000  0.36840000  1
  N  N109  1  0.45280000  0.55080000  0.86080000  1
  N  N110  1  0.91500000  0.56740000  0.26220000  1
  N  N111  1  0.44480000  0.59720000  0.76220000  1
  N  N112  1  0.06000000  0.65800000  0.36080000  1
  N  N113  1  0.54750000  0.69170000  0.86840000  1
  N  N114  1  0.30830000  0.45250000  0.13160000  1
  N  N115  1  0.34200000  0.94000000  0.63920000  1
  N  N116  1  0.40280000  0.55520000  0.23780000  1
  N  N117  1  0.43260000  0.08500000  0.73780000  1
  N  N118  1  0.44920000  0.54720000  0.13920000  1
  N  N119  1  0.42910000  0.07330000  0.63160000  1
  O  O120  1  0.28461000  0.15281000  0.36942000  1
  O  O121  1  0.13606000  0.33466000  0.39812000  1
  O  O122  1  0.98357000  0.91137000  0.80774000  1
  O  O123  1  0.36104000  0.83784000  0.08168000  1
  O  O124  1  0.82471000  0.25111000  0.93442000  1
  O  O125  1  0.55480000  0.03560000  0.39480000  1
  O  O126  1  0.85099000  0.81519000  0.43198000  1
  O  O127  1  0.75867000  0.10107000  0.62354000  1
  O  O128  1  0.27247000  0.11487000  0.12354000  1
  O  O129  1  0.36679000  0.83099000  0.93198000  1
  O  O130  1  0.10920000  0.09000000  0.89480000  1
  O  O131  1  0.43331000  0.35971000  0.43442000  1
  O  O132  1  0.99384000  0.97064000  0.58168000  1
  O  O133  1  0.64637000  0.07417000  0.30774000  1
  O  O134  1  0.81346000  0.51206000  0.89812000  1
  O  O135  1  0.96661000  0.33481000  0.86942000  1
  O  O136  1  0.66519000  0.03339000  0.13058000  1
  O  O137  1  0.48794000  0.18654000  0.10188000  1
  O  O138  1  0.92583000  0.35363000  0.69226000  1
  O  O139  1  0.02936000  0.00616000  0.41832000  1
  O  O140  1  0.64029000  0.56669000  0.56558000  1
  O  O141  1  0.91000000  0.89080000  0.10520000  1
  O  O142  1  0.16901000  0.63321000  0.06802000  1
  O  O143  1  0.88513000  0.72753000  0.87646000  1
  O  O144  1  0.89893000  0.24133000  0.37646000  1
  O  O145  1  0.18481000  0.14901000  0.56802000  1
  O  O146  1  0.96440000  0.44520000  0.60520000  1
  O  O147  1  0.74889000  0.17529000  0.06558000  1
  O  O148  1  0.16216000  0.63896000  0.91832000  1
  O  O149  1  0.08863000  0.01643000  0.19226000  1
  O  O150  1  0.66534000  0.86394000  0.60188000  1
  O  O151  1  0.84719000  0.71539000  0.63058000  1
