# generated using pymatgen
data_MnZn2H36C72(N2O3)4
_symmetry_space_group_name_H-M   'P 1'
_cell_length_a   13.84851170
_cell_length_b   13.84851170
_cell_length_c   16.55100000
_cell_angle_alpha   70.54416484
_cell_angle_beta   70.54416484
_cell_angle_gamma   73.88873900
_symmetry_Int_Tables_number   1
_chemical_formula_structural   MnZn2H36C72(N2O3)4
_chemical_formula_sum   'Mn1 Zn2 H36 C72 N8 O12'
_cell_volume   2772.05511873
_cell_formula_units_Z   1
loop_
 _symmetry_equiv_pos_site_id
 _symmetry_equiv_pos_as_xyz
  1  'x, y, z'
loop_
 _atom_site_type_symbol
 _atom_site_label
 _atom_site_symmetry_multiplicity
 _atom_site_fract_x
 _atom_site_fract_y
 _atom_site_fract_z
 _atom_site_occupancy
  C  C0  1  0.25070000  0.75430000  0.03920000  1
  C  C1  1  0.75430000  0.25070000  0.03920000  1
  C  C2  1  0.33580000  0.67440000  0.06260000  1
  C  C3  1  0.67440000  0.33580000  0.06260000  1
  C  C4  1  0.36820000  0.65840000  0.13910000  1
  C  C5  1  0.65840000  0.36820000  0.13910000  1
  C  C6  1  0.44900000  0.57960000  0.16190000  1
  C  C7  1  0.57960000  0.44900000  0.16190000  1
  C  C8  1  0.30700000  0.72400000  0.20160000  1
  C  C9  1  0.72400000  0.30700000  0.20160000  1
  C  C10  1  0.12210000  0.90990000  0.38470000  1
  C  C11  1  0.19000000  0.84200000  0.31860000  1
  C  C12  1  0.84200000  0.19000000  0.31860000  1
  C  C13  1  0.90990000  0.12210000  0.38470000  1
  C  C14  1  0.47890000  0.56010000  0.24120000  1
  C  C15  1  0.56010000  0.47890000  0.24120000  1
  C  C16  1  0.38350000  0.67490000  0.50790000  1
  C  C17  1  0.67490000  0.38350000  0.50790000  1
  C  C18  1  0.53110000  0.53110000  0.50720000  1
  C  C19  1  0.30720000  0.77340000  0.73480000  1
  C  C20  1  0.77340000  0.30720000  0.73480000  1
  C  C21  1  0.24860000  0.83880000  0.67110000  1
  C  C22  1  0.83880000  0.24860000  0.67110000  1
  C  C23  1  0.48180000  0.63140000  0.51650000  1
  C  C24  1  0.63140000  0.48180000  0.51650000  1
  C  C25  1  0.26910000  0.87850000  0.25310000  1
  C  C26  1  0.87850000  0.26910000  0.25310000  1
  C  C27  1  0.33300000  0.81720000  0.19190000  1
  C  C28  1  0.81720000  0.33300000  0.19190000  1
  C  C29  1  0.54580000  0.69220000  0.53200000  1
  C  C30  1  0.69220000  0.54580000  0.53200000  1
  C  C31  1  0.17200000  0.17200000  0.53410000  1
  C  C32  1  0.70920000  0.70920000  0.54110000  1
  C  C33  1  0.71400000  0.71400000  0.61750000  1
  C  C34  1  0.21840000  0.21840000  0.39120000  1
  C  C35  1  0.23810000  0.23810000  0.53250000  1
  C  C36  1  0.76190000  0.76190000  0.46750000  1
  C  C37  1  0.78160000  0.78160000  0.60880000  1
  C  C38  1  0.28600000  0.28600000  0.38250000  1
  C  C39  1  0.29080000  0.29080000  0.45890000  1
  C  C40  1  0.82800000  0.82800000  0.46590000  1
  C  C41  1  0.45420000  0.30780000  0.46800000  1
  C  C42  1  0.30780000  0.45420000  0.46800000  1
  C  C43  1  0.66700000  0.18280000  0.80810000  1
  C  C44  1  0.18280000  0.66700000  0.80810000  1
  C  C45  1  0.73090000  0.12150000  0.74690000  1
  C  C46  1  0.12150000  0.73090000  0.74690000  1
  C  C47  1  0.51820000  0.36860000  0.48350000  1
  C  C48  1  0.36860000  0.51820000  0.48350000  1
  C  C49  1  0.75140000  0.16120000  0.32890000  1
  C  C50  1  0.16120000  0.75140000  0.32890000  1
  C  C51  1  0.69280000  0.22660000  0.26520000  1
  C  C52  1  0.22660000  0.69280000  0.26520000  1
  C  C53  1  0.46890000  0.46890000  0.49280000  1
  C  C54  1  0.61650000  0.32510000  0.49210000  1
  C  C55  1  0.32510000  0.61650000  0.49210000  1
  C  C56  1  0.52110000  0.43990000  0.75880000  1
  C  C57  1  0.43990000  0.52110000  0.75880000  1
  C  C58  1  0.81000000  0.15800000  0.68140000  1
  C  C59  1  0.87790000  0.09010000  0.61530000  1
  C  C60  1  0.09010000  0.87790000  0.61530000  1
  C  C61  1  0.15800000  0.81000000  0.68140000  1
  C  C62  1  0.69300000  0.27600000  0.79840000  1
  C  C63  1  0.27600000  0.69300000  0.79840000  1
  C  C64  1  0.55100000  0.42040000  0.83810000  1
  C  C65  1  0.42040000  0.55100000  0.83810000  1
  C  C66  1  0.63180000  0.34160000  0.86090000  1
  C  C67  1  0.34160000  0.63180000  0.86090000  1
  C  C68  1  0.66420000  0.32560000  0.93740000  1
  C  C69  1  0.32560000  0.66420000  0.93740000  1
  C  C70  1  0.74930000  0.24570000  0.96080000  1
  C  C71  1  0.24570000  0.74930000  0.96080000  1
  H  H72  1  0.20740000  0.80060000  0.07190000  1
  H  H73  1  0.80060000  0.20740000  0.07190000  1
  H  H74  1  0.44850000  0.59630000  0.28450000  1
  H  H75  1  0.59630000  0.44850000  0.28450000  1
  H  H76  1  0.35470000  0.74270000  0.51230000  1
  H  H77  1  0.74270000  0.35470000  0.51230000  1
  H  H78  1  0.37020000  0.78940000  0.73010000  1
  H  H79  1  0.78940000  0.37020000  0.73010000  1
  H  H80  1  0.27140000  0.89600000  0.62670000  1
  H  H81  1  0.89600000  0.27140000  0.62670000  1
  H  H82  1  0.28310000  0.94290000  0.24700000  1
  H  H83  1  0.94290000  0.28310000  0.24700000  1
  H  H84  1  0.39000000  0.84000000  0.14710000  1
  H  H85  1  0.84000000  0.39000000  0.14710000  1
  H  H86  1  0.13450000  0.13450000  0.58790000  1
  H  H87  1  0.67730000  0.67730000  0.67210000  1
  H  H88  1  0.21450000  0.21450000  0.33740000  1
  H  H89  1  0.24250000  0.24250000  0.58590000  1
  H  H90  1  0.75750000  0.75750000  0.41410000  1
  H  H91  1  0.78550000  0.78550000  0.66260000  1
  H  H92  1  0.32270000  0.32270000  0.32790000  1
  H  H93  1  0.86550000  0.86550000  0.41210000  1
  H  H94  1  0.61000000  0.16000000  0.85290000  1
  H  H95  1  0.16000000  0.61000000  0.85290000  1
  H  H96  1  0.71690000  0.05710000  0.75300000  1
  H  H97  1  0.05710000  0.71690000  0.75300000  1
  H  H98  1  0.72860000  0.10400000  0.37330000  1
  H  H99  1  0.10400000  0.72860000  0.37330000  1
  H  H100  1  0.62980000  0.21060000  0.26990000  1
  H  H101  1  0.21060000  0.62980000  0.26990000  1
  H  H102  1  0.64530000  0.25730000  0.48770000  1
  H  H103  1  0.25730000  0.64530000  0.48770000  1
  H  H104  1  0.55150000  0.40370000  0.71550000  1
  H  H105  1  0.40370000  0.55150000  0.71550000  1
  H  H106  1  0.79260000  0.19940000  0.92810000  1
  H  H107  1  0.19940000  0.79260000  0.92810000  1
  Mn  Mn108  1  0.50000000  0.50000000  1.00000000  1
  N  N109  1  0.38170000  0.61830000  1.00000000  1
  N  N110  1  0.61830000  0.38170000  1.00000000  1
  N  N111  1  0.51210000  0.51210000  0.11070000  1
  N  N112  1  0.64420000  0.64420000  0.53920000  1
  N  N113  1  0.16590000  0.16590000  0.45590000  1
  N  N114  1  0.83410000  0.83410000  0.54410000  1
  N  N115  1  0.35580000  0.35580000  0.46080000  1
  N  N116  1  0.48790000  0.48790000  0.88930000  1
  O  O117  1  0.12530000  0.95470000  0.56100000  1
  O  O118  1  0.95470000  0.12530000  0.56100000  1
  O  O119  1  0.15850000  0.98930000  0.37750000  1
  O  O120  1  0.98930000  0.15850000  0.37750000  1
  O  O121  1  0.50610000  0.77730000  0.54540000  1
  O  O122  1  0.77730000  0.50610000  0.54540000  1
  O  O123  1  0.49390000  0.22270000  0.45460000  1
  O  O124  1  0.22270000  0.49390000  0.45460000  1
  O  O125  1  0.84150000  0.01070000  0.62250000  1
  O  O126  1  0.01070000  0.84150000  0.62250000  1
  O  O127  1  0.87470000  0.04530000  0.43900000  1
  O  O128  1  0.04530000  0.87470000  0.43900000  1
  Zn  Zn129  1  0.07332000  0.07332000  0.46376000  1
  Zn  Zn130  1  0.92668000  0.92668000  0.53624000  1
