# generated using pymatgen
data_CoH21C28(NO3)2
_symmetry_space_group_name_H-M   'P 1'
_cell_length_a   8.85500000
_cell_length_b   17.26700000
_cell_length_c   33.50410000
_cell_angle_alpha   90.00000000
_cell_angle_beta   92.69250000
_cell_angle_gamma   90.00000000
_symmetry_Int_Tables_number   1
_chemical_formula_structural   CoH21C28(NO3)2
_chemical_formula_sum   'Co8 H168 C224 N16 O48'
_cell_volume   5117.09758245
_cell_formula_units_Z   8
loop_
 _symmetry_equiv_pos_site_id
 _symmetry_equiv_pos_as_xyz
  1  'x, y, z'
loop_
 _atom_site_type_symbol
 _atom_site_label
 _atom_site_symmetry_multiplicity
 _atom_site_fract_x
 _atom_site_fract_y
 _atom_site_fract_z
 _atom_site_occupancy
  Co  Co0  1  0.17759000  0.71388000  0.69664000  1
  Co  Co1  1  0.20873000  0.32210000  0.33739000  1
  Co  Co2  1  0.29127000  0.82210000  0.16261000  1
  Co  Co3  1  0.32241000  0.21388000  0.80336000  1
  Co  Co4  1  0.67759000  0.78612000  0.19664000  1
  Co  Co5  1  0.70873000  0.17790000  0.83739000  1
  Co  Co6  1  0.79127000  0.67790000  0.66261000  1
  Co  Co7  1  0.82241000  0.28612000  0.30336000  1
  H  H8  1  0.01310000  0.12370000  0.78430000  1
  H  H9  1  0.01480000  0.44790000  0.05810000  1
  H  H10  1  0.01590000  0.33810000  0.59560000  1
  H  H11  1  0.01930000  0.84650000  0.53800000  1
  H  H12  1  0.02050000  0.26900000  0.43150000  1
  H  H13  1  0.02580000  0.33060000  0.80440000  1
  H  H14  1  0.02960000  0.20750000  0.19270000  1
  H  H15  1  0.03290000  0.34820000  0.68740000  1
  H  H16  1  0.03810000  0.07530000  0.29400000  1
  H  H17  1  0.04220000  0.54290000  0.82470000  1
  H  H18  1  0.05080000  0.61740000  0.53780000  1
  H  H19  1  0.06330000  0.50710000  0.11920000  1
  H  H20  1  0.08350000  0.86400000  0.34760000  1
  H  H21  1  0.09230000  0.55330000  0.74860000  1
  H  H22  1  0.09490000  0.93260000  0.86250000  1
  H  H23  1  0.10530000  0.54760000  0.39330000  1
  H  H24  1  0.11280000  0.19610000  0.12880000  1
  H  H25  1  0.11360000  0.39320000  0.95500000  1
  H  H26  1  0.12660000  0.54410000  0.30560000  1
  H  H27  1  0.12840000  0.73310000  0.95960000  1
  H  H28  1  0.14240000  0.23240000  0.62980000  1
  H  H29  1  0.14670000  0.97890000  0.19090000  1
  H  H30  1  0.14890000  0.26410000  0.06120000  1
  H  H31  1  0.15630000  0.82420000  0.08260000  1
  H  H32  1  0.15960000  0.23620000  0.58330000  1
  H  H33  1  0.16480000  0.87300000  0.28320000  1
  H  H34  1  0.16500000  0.62260000  0.47770000  1
  H  H35  1  0.16590000  0.32970000  0.89690000  1
  H  H36  1  0.16940000  0.92950000  0.63700000  1
  H  H37  1  0.17350000  0.03460000  0.59610000  1
  H  H38  1  0.17890000  0.92090000  0.49550000  1
  H  H39  1  0.19010000  0.65110000  0.82900000  1
  H  H40  1  0.19550000  0.76720000  0.02170000  1
  H  H41  1  0.21890000  0.04800000  0.85090000  1
  H  H42  1  0.22560000  0.18510000  0.07380000  1
  H  H43  1  0.22780000  0.95010000  0.73520000  1
  H  H44  1  0.23650000  0.64440000  0.20370000  1
  H  H45  1  0.23980000  0.88240000  0.45690000  1
  H  H46  1  0.24310000  0.01390000  0.44750000  1
  H  H47  1  0.24630000  0.12280000  0.40690000  1
  H  H48  1  0.24690000  0.77450000  0.78840000  1
  H  H49  1  0.24750000  0.17070000  0.52880000  1
  H  H50  1  0.25250000  0.67070000  0.97120000  1
  H  H51  1  0.25310000  0.27450000  0.71160000  1
  H  H52  1  0.25370000  0.62280000  0.09310000  1
  H  H53  1  0.25690000  0.51390000  0.05250000  1
  H  H54  1  0.26020000  0.38240000  0.04310000  1
  H  H55  1  0.26350000  0.14440000  0.29630000  1
  H  H56  1  0.27220000  0.45010000  0.76480000  1
  H  H57  1  0.27440000  0.68510000  0.42620000  1
  H  H58  1  0.28110000  0.54800000  0.64910000  1
  H  H59  1  0.30450000  0.26720000  0.47830000  1
  H  H60  1  0.30990000  0.15110000  0.67100000  1
  H  H61  1  0.32110000  0.42090000  0.00450000  1
  H  H62  1  0.32650000  0.53460000  0.90390000  1
  H  H63  1  0.33060000  0.42950000  0.86300000  1
  H  H64  1  0.33410000  0.82970000  0.60310000  1
  H  H65  1  0.33500000  0.12260000  0.02230000  1
  H  H66  1  0.33520000  0.37300000  0.21680000  1
  H  H67  1  0.34040000  0.73620000  0.91670000  1
  H  H68  1  0.34370000  0.32420000  0.41740000  1
  H  H69  1  0.35110000  0.76410000  0.43880000  1
  H  H70  1  0.35330000  0.47890000  0.30910000  1
  H  H71  1  0.35760000  0.73240000  0.87020000  1
  H  H72  1  0.37160000  0.23310000  0.54040000  1
  H  H73  1  0.37340000  0.04410000  0.19440000  1
  H  H74  1  0.38640000  0.89320000  0.54500000  1
  H  H75  1  0.38720000  0.69610000  0.37120000  1
  H  H76  1  0.39470000  0.04760000  0.10670000  1
  H  H77  1  0.40510000  0.43260000  0.63750000  1
  H  H78  1  0.40770000  0.05330000  0.75140000  1
  H  H79  1  0.41650000  0.36400000  0.15240000  1
  H  H80  1  0.43670000  0.00710000  0.38080000  1
  H  H81  1  0.44920000  0.11740000  0.96220000  1
  H  H82  1  0.45780000  0.04290000  0.67530000  1
  H  H83  1  0.46190000  0.57530000  0.20600000  1
  H  H84  1  0.46710000  0.84820000  0.81260000  1
  H  H85  1  0.47040000  0.70750000  0.30730000  1
  H  H86  1  0.47420000  0.83060000  0.69560000  1
  H  H87  1  0.47950000  0.76900000  0.06850000  1
  H  H88  1  0.48070000  0.34650000  0.96200000  1
  H  H89  1  0.48410000  0.83810000  0.90440000  1
  H  H90  1  0.48520000  0.94790000  0.44190000  1
  H  H91  1  0.48690000  0.62370000  0.71570000  1
  H  H92  1  0.51310000  0.37630000  0.28430000  1
  H  H93  1  0.51480000  0.05210000  0.55810000  1
  H  H94  1  0.51590000  0.16190000  0.09560000  1
  H  H95  1  0.51930000  0.65350000  0.03800000  1
  H  H96  1  0.52050000  0.23100000  0.93150000  1
  H  H97  1  0.52580000  0.16940000  0.30440000  1
  H  H98  1  0.52960000  0.29250000  0.69270000  1
  H  H99  1  0.53290000  0.15180000  0.18740000  1
  H  H100  1  0.53810000  0.42470000  0.79400000  1
  H  H101  1  0.54220000  0.95710000  0.32470000  1
  H  H102  1  0.55080000  0.88260000  0.03780000  1
  H  H103  1  0.56330000  0.99290000  0.61920000  1
  H  H104  1  0.58350000  0.63600000  0.84760000  1
  H  H105  1  0.59230000  0.94670000  0.24860000  1
  H  H106  1  0.59490000  0.56740000  0.36250000  1
  H  H107  1  0.60530000  0.95240000  0.89330000  1
  H  H108  1  0.61280000  0.30390000  0.62880000  1
  H  H109  1  0.61360000  0.10680000  0.45500000  1
  H  H110  1  0.62660000  0.95590000  0.80560000  1
  H  H111  1  0.62840000  0.76690000  0.45960000  1
  H  H112  1  0.64240000  0.26760000  0.12980000  1
  H  H113  1  0.64670000  0.52110000  0.69090000  1
  H  H114  1  0.64890000  0.23590000  0.56120000  1
  H  H115  1  0.65630000  0.67580000  0.58260000  1
  H  H116  1  0.65960000  0.26380000  0.08330000  1
  H  H117  1  0.66480000  0.62700000  0.78320000  1
  H  H118  1  0.66500000  0.87740000  0.97770000  1
  H  H119  1  0.66590000  0.17030000  0.39690000  1
  H  H120  1  0.66940000  0.57050000  0.13700000  1
  H  H121  1  0.67350000  0.46540000  0.09610000  1
  H  H122  1  0.67890000  0.57910000  0.99550000  1
  H  H123  1  0.69010000  0.84890000  0.32900000  1
  H  H124  1  0.69550000  0.73280000  0.52170000  1
  H  H125  1  0.71890000  0.45200000  0.35090000  1
  H  H126  1  0.72560000  0.31490000  0.57380000  1
  H  H127  1  0.72780000  0.54990000  0.23520000  1
  H  H128  1  0.73650000  0.85560000  0.70370000  1
  H  H129  1  0.73980000  0.61760000  0.95690000  1
  H  H130  1  0.74310000  0.48610000  0.94750000  1
  H  H131  1  0.74630000  0.37720000  0.90690000  1
  H  H132  1  0.74690000  0.72550000  0.28840000  1
  H  H133  1  0.74750000  0.32930000  0.02880000  1
  H  H134  1  0.75250000  0.82930000  0.47120000  1
  H  H135  1  0.75310000  0.22550000  0.21160000  1
  H  H136  1  0.75370000  0.87720000  0.59310000  1
  H  H137  1  0.75690000  0.98610000  0.55250000  1
  H  H138  1  0.76020000  0.11760000  0.54310000  1
  H  H139  1  0.76350000  0.35560000  0.79630000  1
  H  H140  1  0.77220000  0.04990000  0.26480000  1
  H  H141  1  0.77440000  0.81490000  0.92620000  1
  H  H142  1  0.78110000  0.95200000  0.14910000  1
  H  H143  1  0.80450000  0.23280000  0.97830000  1
  H  H144  1  0.80990000  0.34890000  0.17100000  1
  H  H145  1  0.82110000  0.07910000  0.50450000  1
  H  H146  1  0.82650000  0.96540000  0.40390000  1
  H  H147  1  0.83060000  0.07050000  0.36300000  1
  H  H148  1  0.83410000  0.67030000  0.10310000  1
  H  H149  1  0.83500000  0.37740000  0.52230000  1
  H  H150  1  0.83520000  0.12700000  0.71680000  1
  H  H151  1  0.84040000  0.76380000  0.41670000  1
  H  H152  1  0.84370000  0.17580000  0.91740000  1
  H  H153  1  0.85110000  0.73590000  0.93880000  1
  H  H154  1  0.85330000  0.02110000  0.80910000  1
  H  H155  1  0.85760000  0.76760000  0.37020000  1
  H  H156  1  0.87160000  0.26690000  0.04040000  1
  H  H157  1  0.87340000  0.45590000  0.69440000  1
  H  H158  1  0.88640000  0.60680000  0.04500000  1
  H  H159  1  0.88720000  0.80390000  0.87120000  1
  H  H160  1  0.89470000  0.45240000  0.60670000  1
  H  H161  1  0.90510000  0.06740000  0.13750000  1
  H  H162  1  0.90770000  0.44670000  0.25140000  1
  H  H163  1  0.91650000  0.13600000  0.65240000  1
  H  H164  1  0.93670000  0.49290000  0.88080000  1
  H  H165  1  0.94920000  0.38260000  0.46220000  1
  H  H166  1  0.95780000  0.45710000  0.17530000  1
  H  H167  1  0.96190000  0.92470000  0.70600000  1
  H  H168  1  0.96710000  0.65180000  0.31260000  1
  H  H169  1  0.97040000  0.79250000  0.80730000  1
  H  H170  1  0.97420000  0.66940000  0.19560000  1
  H  H171  1  0.97950000  0.73100000  0.56850000  1
  H  H172  1  0.98070000  0.15350000  0.46200000  1
  H  H173  1  0.98410000  0.66190000  0.40440000  1
  H  H174  1  0.98520000  0.55210000  0.94190000  1
  H  H175  1  0.98690000  0.87630000  0.21570000  1
  C  C176  1  0.00230000  0.46330000  0.11730000  1
  C  C177  1  0.00250000  0.55180000  0.38650000  1
  C  C178  1  0.00962000  0.24570000  0.90072000  1
  C  C179  1  0.01452000  0.41910000  0.35882000  1
  C  C180  1  0.02550000  0.73240000  0.54410000  1
  C  C181  1  0.02690000  0.57260000  0.91920000  1
  C  C182  1  0.03645000  0.18040000  0.35535000  1
  C  C183  1  0.03649000  0.97820000  0.42909000  1
  C  C184  1  0.03818000  0.20780000  0.86138000  1
  C  C185  1  0.03931000  0.10870000  0.38041000  1
  C  C186  1  0.04000000  0.68380000  0.02660000  1
  C  C187  1  0.05130000  0.80120000  0.52590000  1
  C  C188  1  0.05526000  0.32570000  0.77826000  1
  C  C189  1  0.05820000  0.33590000  0.71390000  1
  C  C190  1  0.06050000  0.56680000  0.84930000  1
  C  C191  1  0.06340000  0.34750000  0.94820000  1
  C  C192  1  0.06840000  0.66500000  0.52590000  1
  C  C193  1  0.06930000  0.37960000  0.60700000  1
  C  C194  1  0.07179000  0.02010000  0.24259000  1
  C  C195  1  0.07283000  0.51150000  0.62983000  1
  C  C196  1  0.08599000  0.94030000  0.61999000  1
  C  C197  1  0.08790000  0.00340000  0.59590000  1
  C  C198  1  0.08950000  0.09340000  0.77430000  1
  C  C199  1  0.09120000  0.31070000  0.91290000  1
  C  C200  1  0.09825000  0.78150000  0.07455000  1
  C  C201  1  0.10570000  0.06940000  0.27380000  1
  C  C202  1  0.10783000  0.23910000  0.18473000  1
  C  C203  1  0.11522000  0.29980000  0.25292000  1
  C  C204  1  0.11616000  0.63810000  0.92296000  1
  C  C205  1  0.12292000  0.80690000  0.49042000  1
  C  C206  1  0.12314000  0.74730000  0.03814000  1
  C  C207  1  0.13760000  0.66840000  0.49000000  1
  C  C208  1  0.14745000  0.67790000  0.96235000  1
  C  C209  1  0.14950000  0.63120000  0.85200000  1
  C  C210  1  0.15420000  0.88510000  0.47390000  1
  C  C211  1  0.15705000  0.23220000  0.14635000  1
  C  C212  1  0.16020000  0.60080000  0.25430000  1
  C  C213  1  0.16022000  0.02530000  0.43042000  1
  C  C214  1  0.16105000  0.83220000  0.33945000  1
  C  C215  1  0.16176000  0.09080000  0.40596000  1
  C  C216  1  0.16753000  0.73870000  0.47183000  1
  C  C217  1  0.17082000  0.01140000  0.21242000  1
  C  C218  1  0.17175000  0.29130000  0.21145000  1
  C  C219  1  0.17920000  0.29490000  0.72740000  1
  C  C220  1  0.18036000  0.66750000  0.88846000  1
  C  C221  1  0.19490000  0.55440000  0.74390000  1
  C  C222  1  0.19503000  0.55090000  0.28563000  1
  C  C223  1  0.19850000  0.93640000  0.86790000  1
  C  C224  1  0.20660000  0.99720000  0.74710000  1
  C  C225  1  0.21060000  0.83780000  0.30100000  1
  C  C226  1  0.21480000  0.23580000  0.60900000  1
  C  C227  1  0.22100000  0.37230000  0.61720000  1
  C  C228  1  0.22735000  0.77920000  0.36575000  1
  C  C229  1  0.22760000  0.50560000  0.63870000  1
  C  C230  1  0.24070000  0.11050000  0.27530000  1
  C  C231  1  0.24523000  0.23810000  0.06593000  1
  C  C232  1  0.25477000  0.73810000  0.43407000  1
  C  C233  1  0.25930000  0.61050000  0.22470000  1
  C  C234  1  0.27240000  0.00560000  0.86130000  1
  C  C235  1  0.27265000  0.27920000  0.13425000  1
  C  C236  1  0.27900000  0.87230000  0.88280000  1
  C  C237  1  0.28520000  0.73580000  0.89100000  1
  C  C238  1  0.28940000  0.33780000  0.19900000  1
  C  C239  1  0.29340000  0.49720000  0.75290000  1
  C  C240  1  0.30150000  0.43640000  0.63210000  1
  C  C241  1  0.30497000  0.05090000  0.21437000  1
  C  C242  1  0.30510000  0.05440000  0.75610000  1
  C  C243  1  0.31964000  0.16750000  0.61154000  1
  C  C244  1  0.32080000  0.79490000  0.77260000  1
  C  C245  1  0.32825000  0.79130000  0.28855000  1
  C  C246  1  0.32918000  0.51140000  0.28758000  1
  C  C247  1  0.33247000  0.23870000  0.02817000  1
  C  C248  1  0.33824000  0.59080000  0.09404000  1
  C  C249  1  0.33895000  0.33220000  0.16055000  1
  C  C250  1  0.33978000  0.52530000  0.06958000  1
  C  C251  1  0.33980000  0.10080000  0.24570000  1
  C  C252  1  0.34295000  0.73220000  0.35365000  1
  C  C253  1  0.34580000  0.38510000  0.02610000  1
  C  C254  1  0.35050000  0.13120000  0.64800000  1
  C  C255  1  0.35255000  0.17790000  0.53765000  1
  C  C256  1  0.36240000  0.16840000  0.01000000  1
  C  C257  1  0.37686000  0.24730000  0.46186000  1
  C  C258  1  0.37708000  0.30690000  0.00958000  1
  C  C259  1  0.38384000  0.13810000  0.57704000  1
  C  C260  1  0.38478000  0.79980000  0.24708000  1
  C  C261  1  0.39217000  0.73910000  0.31527000  1
  C  C262  1  0.39430000  0.56940000  0.22620000  1
  C  C263  1  0.40175000  0.28150000  0.42545000  1
  C  C264  1  0.40880000  0.81070000  0.58710000  1
  C  C265  1  0.41050000  0.59340000  0.72570000  1
  C  C266  1  0.41210000  0.50340000  0.90410000  1
  C  C267  1  0.41401000  0.44030000  0.88001000  1
  C  C268  1  0.42717000  0.01150000  0.87017000  1
  C  C269  1  0.42821000  0.52010000  0.25741000  1
  C  C270  1  0.43070000  0.87960000  0.89300000  1
  C  C271  1  0.43160000  0.16500000  0.97410000  1
  C  C272  1  0.43660000  0.84750000  0.55180000  1
  C  C273  1  0.43950000  0.06680000  0.65070000  1
  C  C274  1  0.44180000  0.83590000  0.78610000  1
  C  C275  1  0.44474000  0.82570000  0.72174000  1
  C  C276  1  0.44870000  0.30120000  0.97410000  1
  C  C277  1  0.46000000  0.18380000  0.47340000  1
  C  C278  1  0.46069000  0.60870000  0.11959000  1
  C  C279  1  0.46182000  0.70780000  0.63862000  1
  C  C280  1  0.46351000  0.47820000  0.07091000  1
  C  C281  1  0.46355000  0.68040000  0.14465000  1
  C  C282  1  0.47310000  0.07260000  0.58080000  1
  C  C283  1  0.47450000  0.23240000  0.95590000  1
  C  C284  1  0.48548000  0.91910000  0.14118000  1
  C  C285  1  0.49038000  0.74570000  0.59928000  1
  C  C286  1  0.49750000  0.05180000  0.11350000  1
  C  C287  1  0.49770000  0.96330000  0.38270000  1
  C  C288  1  0.50230000  0.03670000  0.61730000  1
  C  C289  1  0.50250000  0.94820000  0.88650000  1
  C  C290  1  0.50962000  0.25430000  0.40072000  1
  C  C291  1  0.51452000  0.08090000  0.85882000  1
  C  C292  1  0.52550000  0.76760000  0.04410000  1
  C  C293  1  0.52690000  0.92740000  0.41920000  1
  C  C294  1  0.53645000  0.31960000  0.85535000  1
  C  C295  1  0.53649000  0.52180000  0.92909000  1
  C  C296  1  0.53818000  0.29220000  0.36138000  1
  C  C297  1  0.53931000  0.39130000  0.88041000  1
  C  C298  1  0.54000000  0.81620000  0.52660000  1
  C  C299  1  0.55130000  0.69880000  0.02590000  1
  C  C300  1  0.55526000  0.17430000  0.27826000  1
  C  C301  1  0.55820000  0.16410000  0.21390000  1
  C  C302  1  0.56050000  0.93320000  0.34930000  1
  C  C303  1  0.56340000  0.15250000  0.44820000  1
  C  C304  1  0.56840000  0.83500000  0.02590000  1
  C  C305  1  0.56930000  0.12040000  0.10700000  1
  C  C306  1  0.57179000  0.47990000  0.74259000  1
  C  C307  1  0.57283000  0.98850000  0.12983000  1
  C  C308  1  0.58599000  0.55970000  0.11999000  1
  C  C309  1  0.58790000  0.49660000  0.09590000  1
  C  C310  1  0.58950000  0.40660000  0.27430000  1
  C  C311  1  0.59120000  0.18930000  0.41290000  1
  C  C312  1  0.59825000  0.71850000  0.57455000  1
  C  C313  1  0.60570000  0.43060000  0.77380000  1
  C  C314  1  0.60783000  0.26090000  0.68473000  1
  C  C315  1  0.61522000  0.20020000  0.75292000  1
  C  C316  1  0.61616000  0.86190000  0.42296000  1
  C  C317  1  0.62292000  0.69310000  0.99042000  1
  C  C318  1  0.62314000  0.75270000  0.53814000  1
  C  C319  1  0.63760000  0.83160000  0.99000000  1
  C  C320  1  0.64745000  0.82210000  0.46235000  1
  C  C321  1  0.64950000  0.86880000  0.35200000  1
  C  C322  1  0.65420000  0.61490000  0.97390000  1
  C  C323  1  0.65705000  0.26780000  0.64635000  1
  C  C324  1  0.66020000  0.89920000  0.75430000  1
  C  C325  1  0.66022000  0.47470000  0.93042000  1
  C  C326  1  0.66105000  0.66780000  0.83945000  1
  C  C327  1  0.66176000  0.40920000  0.90596000  1
  C  C328  1  0.66753000  0.76130000  0.97183000  1
  C  C329  1  0.67082000  0.48860000  0.71242000  1
  C  C330  1  0.67175000  0.20870000  0.71145000  1
  C  C331  1  0.67920000  0.20510000  0.22740000  1
  C  C332  1  0.68036000  0.83250000  0.38846000  1
  C  C333  1  0.69490000  0.94560000  0.24390000  1
  C  C334  1  0.69503000  0.94910000  0.78563000  1
  C  C335  1  0.69850000  0.56360000  0.36790000  1
  C  C336  1  0.70660000  0.50280000  0.24710000  1
  C  C337  1  0.71060000  0.66220000  0.80100000  1
  C  C338  1  0.71480000  0.26420000  0.10900000  1
  C  C339  1  0.72100000  0.12770000  0.11720000  1
  C  C340  1  0.72735000  0.72080000  0.86575000  1
  C  C341  1  0.72760000  0.99440000  0.13870000  1
  C  C342  1  0.74070000  0.38950000  0.77530000  1
  C  C343  1  0.74523000  0.26190000  0.56593000  1
  C  C344  1  0.75477000  0.76190000  0.93407000  1
  C  C345  1  0.75930000  0.88950000  0.72470000  1
  C  C346  1  0.77240000  0.49440000  0.36130000  1
  C  C347  1  0.77265000  0.22080000  0.63425000  1
  C  C348  1  0.77900000  0.62770000  0.38280000  1
  C  C349  1  0.78520000  0.76420000  0.39100000  1
  C  C350  1  0.78940000  0.16220000  0.69900000  1
  C  C351  1  0.79340000  0.00280000  0.25290000  1
  C  C352  1  0.80150000  0.06360000  0.13210000  1
  C  C353  1  0.80497000  0.44910000  0.71437000  1
  C  C354  1  0.80510000  0.44560000  0.25610000  1
  C  C355  1  0.81964000  0.33250000  0.11154000  1
  C  C356  1  0.82080000  0.70510000  0.27260000  1
  C  C357  1  0.82825000  0.70870000  0.78855000  1
  C  C358  1  0.82918000  0.98860000  0.78758000  1
  C  C359  1  0.83247000  0.26130000  0.52817000  1
  C  C360  1  0.83824000  0.90920000  0.59404000  1
  C  C361  1  0.83895000  0.16780000  0.66055000  1
  C  C362  1  0.83978000  0.97470000  0.56958000  1
  C  C363  1  0.83980000  0.39920000  0.74570000  1
  C  C364  1  0.84295000  0.76780000  0.85365000  1
  C  C365  1  0.84580000  0.11490000  0.52610000  1
  C  C366  1  0.85050000  0.36880000  0.14800000  1
  C  C367  1  0.85255000  0.32210000  0.03765000  1
  C  C368  1  0.86240000  0.33160000  0.51000000  1
  C  C369  1  0.87686000  0.25270000  0.96186000  1
  C  C370  1  0.87708000  0.19310000  0.50958000  1
  C  C371  1  0.88384000  0.36190000  0.07704000  1
  C  C372  1  0.88478000  0.70020000  0.74708000  1
  C  C373  1  0.89217000  0.76090000  0.81527000  1
  C  C374  1  0.89430000  0.93060000  0.72620000  1
  C  C375  1  0.90175000  0.21850000  0.92545000  1
  C  C376  1  0.90880000  0.68930000  0.08710000  1
  C  C377  1  0.91050000  0.90660000  0.22570000  1
  C  C378  1  0.91210000  0.99660000  0.40410000  1
  C  C379  1  0.91401000  0.05970000  0.38001000  1
  C  C380  1  0.92717000  0.48850000  0.37017000  1
  C  C381  1  0.92821000  0.97990000  0.75741000  1
  C  C382  1  0.93070000  0.62040000  0.39300000  1
  C  C383  1  0.93160000  0.33500000  0.47410000  1
  C  C384  1  0.93660000  0.65250000  0.05180000  1
  C  C385  1  0.93950000  0.43320000  0.15070000  1
  C  C386  1  0.94180000  0.66410000  0.28610000  1
  C  C387  1  0.94474000  0.67430000  0.22174000  1
  C  C388  1  0.94870000  0.19880000  0.47410000  1
  C  C389  1  0.96000000  0.31620000  0.97340000  1
  C  C390  1  0.96069000  0.89130000  0.61959000  1
  C  C391  1  0.96182000  0.79220000  0.13862000  1
  C  C392  1  0.96351000  0.02180000  0.57091000  1
  C  C393  1  0.96355000  0.81960000  0.64465000  1
  C  C394  1  0.97310000  0.42740000  0.08080000  1
  C  C395  1  0.97450000  0.26760000  0.45590000  1
  C  C396  1  0.98548000  0.58090000  0.64118000  1
  C  C397  1  0.99038000  0.75430000  0.09928000  1
  C  C398  1  0.99750000  0.44820000  0.61350000  1
  C  C399  1  0.99770000  0.53670000  0.88270000  1
  N  N400  1  0.02106000  0.64390000  0.25336000  1
  N  N401  1  0.06813000  0.02210000  0.75903000  1
  N  N402  1  0.17637000  0.28800000  0.76827000  1
  N  N403  1  0.23094000  0.11500000  0.77334000  1
  N  N404  1  0.26906000  0.61500000  0.72666000  1
  N  N405  1  0.32363000  0.78800000  0.73173000  1
  N  N406  1  0.43187000  0.52210000  0.74097000  1
  N  N407  1  0.47894000  0.14390000  0.24664000  1
  N  N408  1  0.52106000  0.85610000  0.75336000  1
  N  N409  1  0.56813000  0.47790000  0.25903000  1
  N  N410  1  0.67637000  0.21200000  0.26827000  1
  N  N411  1  0.73094000  0.38500000  0.27334000  1
  N  N412  1  0.76906000  0.88500000  0.22666000  1
  N  N413  1  0.82363000  0.71200000  0.23173000  1
  N  N414  1  0.93187000  0.97790000  0.24097000  1
  N  N415  1  0.97894000  0.35610000  0.74664000  1
  O  O416  1  0.01620000  0.72180000  0.74120000  1
  O  O417  1  0.02283000  0.91210000  0.45113000  1
  O  O418  1  0.04380000  0.63590000  0.65990000  1
  O  O419  1  0.05041000  0.64520000  0.99081000  1
  O  O420  1  0.06815000  0.82800000  0.15725000  1
  O  O421  1  0.07878000  0.80660000  0.66598000  1
  O  O422  1  0.15556000  0.41750000  0.36806000  1
  O  O423  1  0.15708000  0.22130000  0.35798000  1
  O  O424  1  0.16740000  0.21520000  0.84860000  1
  O  O425  1  0.16779000  0.77690000  0.40299000  1
  O  O426  1  0.19869000  0.80520000  0.88619000  1
  O  O427  1  0.20758000  0.32840000  0.27888000  1
  O  O428  1  0.29242000  0.82840000  0.22112000  1
  O  O429  1  0.30131000  0.30520000  0.61381000  1
  O  O430  1  0.33221000  0.27690000  0.09701000  1
  O  O431  1  0.33260000  0.71520000  0.65140000  1
  O  O432  1  0.34292000  0.72130000  0.14202000  1
  O  O433  1  0.34444000  0.91750000  0.13194000  1
  O  O434  1  0.42122000  0.30660000  0.83402000  1
  O  O435  1  0.43185000  0.32800000  0.34275000  1
  O  O436  1  0.44959000  0.14520000  0.50919000  1
  O  O437  1  0.45620000  0.13590000  0.84010000  1
  O  O438  1  0.47717000  0.41210000  0.04887000  1
  O  O439  1  0.48380000  0.22180000  0.75880000  1
  O  O440  1  0.51620000  0.77820000  0.24120000  1
  O  O441  1  0.52283000  0.58790000  0.95113000  1
  O  O442  1  0.54380000  0.86410000  0.15990000  1
  O  O443  1  0.55041000  0.85480000  0.49081000  1
  O  O444  1  0.56815000  0.67200000  0.65725000  1
  O  O445  1  0.57878000  0.69340000  0.16598000  1
  O  O446  1  0.65556000  0.08250000  0.86806000  1
  O  O447  1  0.65708000  0.27870000  0.85798000  1
  O  O448  1  0.66740000  0.28480000  0.34860000  1
  O  O449  1  0.66779000  0.72310000  0.90299000  1
  O  O450  1  0.69869000  0.69480000  0.38619000  1
  O  O451  1  0.70758000  0.17160000  0.77888000  1
  O  O452  1  0.79242000  0.67160000  0.72112000  1
  O  O453  1  0.80131000  0.19480000  0.11381000  1
  O  O454  1  0.83221000  0.22310000  0.59701000  1
  O  O455  1  0.83260000  0.78480000  0.15140000  1
  O  O456  1  0.84292000  0.77870000  0.64202000  1
  O  O457  1  0.84444000  0.58250000  0.63194000  1
  O  O458  1  0.92122000  0.19340000  0.33402000  1
  O  O459  1  0.93185000  0.17200000  0.84275000  1
  O  O460  1  0.94959000  0.35480000  0.00919000  1
  O  O461  1  0.95620000  0.36410000  0.34010000  1
  O  O462  1  0.97717000  0.08790000  0.54887000  1
  O  O463  1  0.98380000  0.27820000  0.25880000  1
