# generated using pymatgen
data_YPH11C7NO5
_symmetry_space_group_name_H-M   'P 1'
_cell_length_a   5.52340000
_cell_length_b   13.34900000
_cell_length_c   20.58600000
_cell_angle_alpha   90.00000000
_cell_angle_beta   95.29000000
_cell_angle_gamma   90.00000000
_symmetry_Int_Tables_number   1
_chemical_formula_structural   YPH11C7NO5
_chemical_formula_sum   'Y4 P4 H44 C28 N4 O20'
_cell_volume   1511.37941096
_cell_formula_units_Z   4
loop_
 _symmetry_equiv_pos_site_id
 _symmetry_equiv_pos_as_xyz
  1  'x, y, z'
loop_
 _atom_site_type_symbol
 _atom_site_label
 _atom_site_symmetry_multiplicity
 _atom_site_fract_x
 _atom_site_fract_y
 _atom_site_fract_z
 _atom_site_occupancy
  Y  Y0  1  0.37360000  0.63175000  0.52790000  1
  Y  Y1  1  0.37360000  0.86825000  0.02790000  1
  Y  Y2  1  0.62640000  0.13175000  0.97210000  1
  Y  Y3  1  0.62640000  0.36825000  0.47210000  1
  P  P4  1  0.09160000  0.52047000  0.41490000  1
  P  P5  1  0.09160000  0.97953000  0.91490000  1
  P  P6  1  0.90840000  0.02047000  0.08510000  1
  P  P7  1  0.90840000  0.47953000  0.58510000  1
  H  H8  1  0.00980000  0.74290000  0.67400000  1
  H  H9  1  0.00980000  0.75710000  0.17400000  1
  H  H10  1  0.03830000  0.10210000  0.37750000  1
  H  H11  1  0.03830000  0.39790000  0.87750000  1
  H  H12  1  0.09070000  0.19820000  0.16120000  1
  H  H13  1  0.09070000  0.30180000  0.66120000  1
  H  H14  1  0.11600000  0.00100000  0.70890000  1
  H  H15  1  0.11600000  0.49900000  0.20890000  1
  H  H16  1  0.12020000  0.72610000  0.29600000  1
  H  H17  1  0.12020000  0.77390000  0.79600000  1
  H  H18  1  0.23020000  0.19290000  0.74610000  1
  H  H19  1  0.23020000  0.30710000  0.24610000  1
  H  H20  1  0.23480000  0.02820000  0.81740000  1
  H  H21  1  0.23480000  0.47180000  0.31740000  1
  H  H22  1  0.24340000  0.60410000  0.21460000  1
  H  H23  1  0.24340000  0.89590000  0.71460000  1
  H  H24  1  0.24740000  0.07350000  0.33420000  1
  H  H25  1  0.24740000  0.42650000  0.83420000  1
  H  H26  1  0.33360000  0.57840000  0.33680000  1
  H  H27  1  0.33360000  0.92160000  0.83680000  1
  H  H28  1  0.37350000  0.20560000  0.25130000  1
  H  H29  1  0.37350000  0.29440000  0.75130000  1
  H  H30  1  0.62650000  0.70560000  0.24870000  1
  H  H31  1  0.62650000  0.79440000  0.74870000  1
  H  H32  1  0.66640000  0.07840000  0.16320000  1
  H  H33  1  0.66640000  0.42160000  0.66320000  1
  H  H34  1  0.75260000  0.57350000  0.16580000  1
  H  H35  1  0.75260000  0.92650000  0.66580000  1
  H  H36  1  0.75660000  0.10410000  0.28540000  1
  H  H37  1  0.75660000  0.39590000  0.78540000  1
  H  H38  1  0.76520000  0.52820000  0.68260000  1
  H  H39  1  0.76520000  0.97180000  0.18260000  1
  H  H40  1  0.76980000  0.69290000  0.75390000  1
  H  H41  1  0.76980000  0.80710000  0.25390000  1
  H  H42  1  0.87980000  0.22610000  0.20400000  1
  H  H43  1  0.87980000  0.27390000  0.70400000  1
  H  H44  1  0.88400000  0.50100000  0.79110000  1
  H  H45  1  0.88400000  0.99900000  0.29110000  1
  H  H46  1  0.90930000  0.69820000  0.33880000  1
  H  H47  1  0.90930000  0.80180000  0.83880000  1
  H  H48  1  0.96170000  0.60210000  0.12250000  1
  H  H49  1  0.96170000  0.89790000  0.62250000  1
  H  H50  1  0.99020000  0.24290000  0.82600000  1
  H  H51  1  0.99020000  0.25710000  0.32600000  1
  C  C52  1  0.03280000  0.19040000  0.20400000  1
  C  C53  1  0.03280000  0.30960000  0.70400000  1
  C  C54  1  0.09000000  0.56960000  0.21700000  1
  C  C55  1  0.09000000  0.93040000  0.71700000  1
  C  C56  1  0.09670000  0.11070000  0.33490000  1
  C  C57  1  0.09670000  0.38930000  0.83490000  1
  C  C58  1  0.14420000  0.22160000  0.32320000  1
  C  C59  1  0.14420000  0.27840000  0.82320000  1
  C  C60  1  0.18890000  0.53690000  0.33340000  1
  C  C61  1  0.18890000  0.96310000  0.83340000  1
  C  C62  1  0.21570000  0.23600000  0.25470000  1
  C  C63  1  0.21570000  0.26400000  0.75470000  1
  C  C64  1  0.32790000  0.23380000  0.87490000  1
  C  C65  1  0.32790000  0.26620000  0.37490000  1
  C  C66  1  0.67210000  0.73380000  0.62510000  1
  C  C67  1  0.67210000  0.76620000  0.12510000  1
  C  C68  1  0.78430000  0.73600000  0.24530000  1
  C  C69  1  0.78430000  0.76400000  0.74530000  1
  C  C70  1  0.81110000  0.03690000  0.16660000  1
  C  C71  1  0.81110000  0.46310000  0.66666667  1
  C  C72  1  0.85580000  0.72160000  0.17680000  1
  C  C73  1  0.85580000  0.77840000  0.67680000  1
  C  C74  1  0.90330000  0.61070000  0.16510000  1
  C  C75  1  0.90330000  0.88930000  0.66510000  1
  C  C76  1  0.91000000  0.06960000  0.28300000  1
  C  C77  1  0.91000000  0.43040000  0.78300000  1
  C  C78  1  0.96720000  0.69040000  0.29600000  1
  C  C79  1  0.96720000  0.80960000  0.79600000  1
  N  N80  1  0.00850000  0.58250000  0.28360000  1
  N  N81  1  0.00850000  0.91750000  0.78360000  1
  N  N82  1  0.99150000  0.08250000  0.21640000  1
  N  N83  1  0.99150000  0.41750000  0.71640000  1
  O  O84  1  0.04250000  0.62190000  0.44590000  1
  O  O85  1  0.04250000  0.87810000  0.94590000  1
  O  O86  1  0.12260000  0.54960000  0.59070000  1
  O  O87  1  0.12260000  0.95040000  0.09070000  1
  O  O88  1  0.30270000  0.24880000  0.43420000  1
  O  O89  1  0.30270000  0.25120000  0.93420000  1
  O  O90  1  0.32020000  0.02010000  0.95450000  1
  O  O91  1  0.32020000  0.47990000  0.45450000  1
  O  O92  1  0.49510000  0.17900000  0.85940000  1
  O  O93  1  0.49510000  0.32100000  0.35940000  1
  O  O94  1  0.50490000  0.67900000  0.64060000  1
  O  O95  1  0.50490000  0.82100000  0.14060000  1
  O  O96  1  0.67980000  0.52010000  0.54550000  1
  O  O97  1  0.67980000  0.97990000  0.04550000  1
  O  O98  1  0.69730000  0.74880000  0.06580000  1
  O  O99  1  0.69730000  0.75120000  0.56580000  1
  O  O100  1  0.87740000  0.04960000  0.90930000  1
  O  O101  1  0.87740000  0.45040000  0.40930000  1
  O  O102  1  0.95750000  0.12190000  0.05410000  1
  O  O103  1  0.95750000  0.37810000  0.55410000  1
