# generated using pymatgen
data_CeH9C12(NO3)2
_symmetry_space_group_name_H-M   'P 1'
_cell_length_a   10.87491520
_cell_length_b   10.87491520
_cell_length_c   19.03210000
_cell_angle_alpha   74.46943962
_cell_angle_beta   74.46943962
_cell_angle_gamma   63.38192329
_symmetry_Int_Tables_number   1
_chemical_formula_structural   CeH9C12(NO3)2
_chemical_formula_sum   'Ce4 H36 C48 N8 O24'
_cell_volume   1910.03025315
_cell_formula_units_Z   4
loop_
 _symmetry_equiv_pos_site_id
 _symmetry_equiv_pos_as_xyz
  1  'x, y, z'
loop_
 _atom_site_type_symbol
 _atom_site_label
 _atom_site_symmetry_multiplicity
 _atom_site_fract_x
 _atom_site_fract_y
 _atom_site_fract_z
 _atom_site_occupancy
  C  C0  1  0.27513000  0.92933000  0.92695000  1
  C  C1  1  0.92933000  0.27513000  0.42695000  1
  C  C2  1  0.27337000  0.96137000  0.46931000  1
  C  C3  1  0.96137000  0.27337000  0.96931000  1
  C  C4  1  0.18874000  0.05094000  0.20763000  1
  C  C5  1  0.05094000  0.18874000  0.70763000  1
  C  C6  1  0.41711000  0.92251000  0.88941000  1
  C  C7  1  0.92251000  0.41711000  0.38941000  1
  C  C8  1  0.39178000  0.97918000  0.48521000  1
  C  C9  1  0.97918000  0.39178000  0.98521000  1
  C  C10  1  0.32403000  0.06563000  0.17353000  1
  C  C11  1  0.06563000  0.32403000  0.67353000  1
  C  C12  1  0.45790000  0.94170000  0.81188000  1
  C  C13  1  0.94170000  0.45790000  0.31188000  1
  C  C14  1  0.50941000  0.90481000  0.93336000  1
  C  C15  1  0.90481000  0.50941000  0.43336000  1
  C  C16  1  0.36874000  0.04914000  0.54168000  1
  C  C17  1  0.04914000  0.36874000  0.04168000  1
  C  C18  1  0.36326000  0.08826000  0.09675000  1
  C  C19  1  0.08826000  0.36326000  0.59675000  1
  C  C20  1  0.52593000  0.92773000  0.44316000  1
  C  C21  1  0.92773000  0.52593000  0.94316000  1
  C  C22  1  0.41170000  0.05370000  0.21796000  1
  C  C23  1  0.05370000  0.41170000  0.71796000  1
  C  C24  1  0.58830000  0.94630000  0.78204000  1
  C  C25  1  0.94630000  0.58830000  0.28204000  1
  C  C26  1  0.47407000  0.07227000  0.55684000  1
  C  C27  1  0.07227000  0.47407000  0.05684000  1
  C  C28  1  0.63674000  0.91174000  0.90325000  1
  C  C29  1  0.91174000  0.63674000  0.40325000  1
  C  C30  1  0.63126000  0.95086000  0.45832000  1
  C  C31  1  0.95086000  0.63126000  0.95832000  1
  C  C32  1  0.49059000  0.09519000  0.06664000  1
  C  C33  1  0.09519000  0.49059000  0.56664000  1
  C  C34  1  0.54210000  0.05830000  0.18812000  1
  C  C35  1  0.05830000  0.54210000  0.68812000  1
  C  C36  1  0.67597000  0.93437000  0.82647000  1
  C  C37  1  0.93437000  0.67597000  0.32647000  1
  C  C38  1  0.60822000  0.02082000  0.51479000  1
  C  C39  1  0.02082000  0.60822000  0.01479000  1
  C  C40  1  0.58289000  0.07749000  0.11059000  1
  C  C41  1  0.07749000  0.58289000  0.61059000  1
  C  C42  1  0.81126000  0.94906000  0.79237000  1
  C  C43  1  0.94906000  0.81126000  0.29237000  1
  C  C44  1  0.72663000  0.03863000  0.53069000  1
  C  C45  1  0.03863000  0.72663000  0.03069000  1
  C  C46  1  0.72487000  0.07067000  0.07305000  1
  C  C47  1  0.07067000  0.72487000  0.57305000  1
  Ce  Ce48  1  0.06594000  0.93496000  0.10150000  1
  Ce  Ce49  1  0.93496000  0.06594000  0.60150000  1
  Ce  Ce50  1  0.93406000  0.06504000  0.89850000  1
  Ce  Ce51  1  0.06504000  0.93406000  0.39850000  1
  H  H52  1  0.29000000  0.97600000  0.77900000  1
  H  H53  1  0.97600000  0.29000000  0.27900000  1
  H  H54  1  0.50900000  0.84900000  0.36500000  1
  H  H55  1  0.84900000  0.50900000  0.86500000  1
  H  H56  1  0.28030000  0.08150000  0.57030000  1
  H  H57  1  0.08150000  0.28030000  0.07030000  1
  H  H58  1  0.39200000  0.97800000  0.71560000  1
  H  H59  1  0.97800000  0.39200000  0.21560000  1
  H  H60  1  0.48440000  0.88780000  0.98460000  1
  H  H61  1  0.88780000  0.48440000  0.48460000  1
  H  H62  1  0.30410000  0.09850000  0.06620000  1
  H  H63  1  0.09850000  0.30410000  0.56620000  1
  H  H64  1  0.38330000  0.04230000  0.26900000  1
  H  H65  1  0.04230000  0.38330000  0.76900000  1
  H  H66  1  0.64600000  0.79000000  0.37500000  1
  H  H67  1  0.79000000  0.64600000  0.87500000  1
  H  H68  1  0.54300000  0.89700000  0.40000000  1
  H  H69  1  0.89700000  0.54300000  0.90000000  1
  H  H70  1  0.45700000  0.10300000  0.60000000  1
  H  H71  1  0.10300000  0.45700000  0.10000000  1
  H  H72  1  0.35400000  0.21000000  0.62500000  1
  H  H73  1  0.21000000  0.35400000  0.12500000  1
  H  H74  1  0.61670000  0.95770000  0.73100000  1
  H  H75  1  0.95770000  0.61670000  0.23100000  1
  H  H76  1  0.69590000  0.90150000  0.93380000  1
  H  H77  1  0.90150000  0.69590000  0.43380000  1
  H  H78  1  0.51560000  0.11220000  0.01540000  1
  H  H79  1  0.11220000  0.51560000  0.51540000  1
  H  H80  1  0.60800000  0.02200000  0.28440000  1
  H  H81  1  0.02200000  0.60800000  0.78440000  1
  H  H82  1  0.71970000  0.91850000  0.42970000  1
  H  H83  1  0.91850000  0.71970000  0.92970000  1
  H  H84  1  0.49100000  0.15100000  0.63500000  1
  H  H85  1  0.15100000  0.49100000  0.13500000  1
  H  H86  1  0.71000000  0.02400000  0.22100000  1
  H  H87  1  0.02400000  0.71000000  0.72100000  1
  N  N88  1  0.37720000  0.95580000  0.76319000  1
  N  N89  1  0.95580000  0.37720000  0.26319000  1
  N  N90  1  0.56370000  0.84970000  0.38810000  1
  N  N91  1  0.84970000  0.56370000  0.88810000  1
  N  N92  1  0.43630000  0.15030000  0.61190000  1
  N  N93  1  0.15030000  0.43630000  0.11190000  1
  N  N94  1  0.62280000  0.04420000  0.23681000  1
  N  N95  1  0.04420000  0.62280000  0.73681000  1
  O  O96  1  0.18377000  0.96697000  0.88782000  1
  O  O97  1  0.96697000  0.18377000  0.38782000  1
  O  O98  1  0.25427000  0.89927000  0.99635000  1
  O  O99  1  0.89927000  0.25427000  0.49635000  1
  O  O100  1  0.15406000  0.00696000  0.50797000  1
  O  O101  1  0.00696000  0.15406000  0.00797000  1
  O  O102  1  0.10982000  0.06872000  0.16404000  1
  O  O103  1  0.06872000  0.10982000  0.66404000  1
  O  O104  1  0.15994000  0.02374000  0.27605000  1
  O  O105  1  0.02374000  0.15994000  0.77605000  1
  O  O106  1  0.29599000  0.90299000  0.41595000  1
  O  O107  1  0.90299000  0.29599000  0.91595000  1
  O  O108  1  0.70401000  0.09701000  0.58405000  1
  O  O109  1  0.09701000  0.70401000  0.08405000  1
  O  O110  1  0.84006000  0.97626000  0.72395000  1
  O  O111  1  0.97626000  0.84006000  0.22395000  1
  O  O112  1  0.89018000  0.93128000  0.83596000  1
  O  O113  1  0.93128000  0.89018000  0.33596000  1
  O  O114  1  0.84594000  0.99304000  0.49203000  1
  O  O115  1  0.99304000  0.84594000  0.99203000  1
  O  O116  1  0.74573000  0.10073000  0.00365000  1
  O  O117  1  0.10073000  0.74573000  0.50365000  1
  O  O118  1  0.81623000  0.03303000  0.11218000  1
  O  O119  1  0.03303000  0.81623000  0.61218000  1
