# generated using pymatgen
data_Ti3P7(H2O9)3
_symmetry_space_group_name_H-M   'P 1'
_cell_length_a   10.31830000
_cell_length_b   10.75010000
_cell_length_c   10.83150000
_cell_angle_alpha   73.43600000
_cell_angle_beta   79.64800000
_cell_angle_gamma   83.26000000
_symmetry_Int_Tables_number   1
_chemical_formula_structural   Ti3P7(H2O9)3
_chemical_formula_sum   'Ti6 P14 H12 O54'
_cell_volume   1130.06607917
_cell_formula_units_Z   2
loop_
 _symmetry_equiv_pos_site_id
 _symmetry_equiv_pos_as_xyz
  1  'x, y, z'
loop_
 _atom_site_type_symbol
 _atom_site_label
 _atom_site_symmetry_multiplicity
 _atom_site_fract_x
 _atom_site_fract_y
 _atom_site_fract_z
 _atom_site_occupancy
  Ti  Ti0  1  0.08810000  0.18350000  0.29450000  1
  Ti  Ti1  1  0.10970000  0.35910000  0.67930000  1
  Ti  Ti2  1  0.48730000  0.41680000  0.30620000  1
  Ti  Ti3  1  0.51270000  0.58320000  0.69380000  1
  Ti  Ti4  1  0.89030000  0.64090000  0.32070000  1
  Ti  Ti5  1  0.91190000  0.81650000  0.70550000  1
  P  P6  1  0.06980000  0.08380000  0.62770000  1
  P  P7  1  0.15820000  0.31940000  0.98100000  1
  P  P8  1  0.16230000  0.45340000  0.34960000  1
  P  P9  1  0.20580000  0.66300000  0.64380000  1
  P  P10  1  0.40140000  0.11600000  0.31920000  1
  P  P11  1  0.43390000  0.31320000  0.63720000  1
  P  P12  1  0.45090000  0.56770000  0.00940000  1
  P  P13  1  0.54910000  0.43230000  0.99060000  1
  P  P14  1  0.56610000  0.68680000  0.36280000  1
  P  P15  1  0.59860000  0.88400000  0.68080000  1
  P  P16  1  0.79420000  0.33700000  0.35620000  1
  P  P17  1  0.83770000  0.54660000  0.65040000  1
  P  P18  1  0.84180000  0.68060000  0.01900000  1
  P  P19  1  0.93020000  0.91620000  0.37230000  1
  H  H20  1  0.04920000  0.48000000  0.00780000  1
  H  H21  1  0.17130000  0.73090000  0.45910000  1
  H  H22  1  0.22010000  0.95170000  0.61990000  1
  H  H23  1  0.27430000  0.64300000  0.97470000  1
  H  H24  1  0.34330000  0.34360000  0.89500000  1
  H  H25  1  0.49780000  0.97140000  0.25260000  1
  H  H26  1  0.50220000  0.02860000  0.74740000  1
  H  H27  1  0.65670000  0.65640000  0.10500000  1
  H  H28  1  0.72570000  0.35700000  0.02530000  1
  H  H29  1  0.77990000  0.04830000  0.38010000  1
  H  H30  1  0.82870000  0.26910000  0.54090000  1
  H  H31  1  0.95080000  0.52000000  0.99220000  1
  O  O32  1  0.03480000  0.01260000  0.30390000  1
  O  O33  1  0.04070000  0.19360000  0.69560000  1
  O  O34  1  0.06830000  0.13650000  0.48210000  1
  O  O35  1  0.07710000  0.57760000  0.29860000  1
  O  O36  1  0.09630000  0.30480000  0.87110000  1
  O  O37  1  0.09640000  0.74670000  0.70180000  1
  O  O38  1  0.09870000  0.22480000  0.10370000  1
  O  O39  1  0.12200000  0.39910000  0.49660000  1
  O  O40  1  0.12920000  0.46370000  0.99320000  1
  O  O41  1  0.14350000  0.34960000  0.28200000  1
  O  O42  1  0.16260000  0.52700000  0.66540000  1
  O  O43  1  0.20610000  0.01230000  0.65350000  1
  O  O44  1  0.23770000  0.72670000  0.49220000  1
  O  O45  1  0.26960000  0.11050000  0.27790000  1
  O  O46  1  0.28880000  0.28270000  0.67130000  1
  O  O47  1  0.30080000  0.59030000  0.03780000  1
  O  O48  1  0.30670000  0.48850000  0.31600000  1
  O  O49  1  0.31040000  0.29250000  0.96200000  1
  O  O50  1  0.32870000  0.65980000  0.70550000  1
  O  O51  1  0.39460000  0.04080000  0.46320000  1
  O  O52  1  0.43730000  0.25350000  0.29260000  1
  O  O53  1  0.45290000  0.42100000  0.69810000  1
  O  O54  1  0.47000000  0.36200000  0.48960000  1
  O  O55  1  0.47650000  0.80410000  0.31220000  1
  O  O56  1  0.48610000  0.95280000  0.75940000  1
  O  O57  1  0.49200000  0.70200000  0.99900000  1
  O  O58  1  0.49230000  0.52540000  0.88330000  1
  O  O59  1  0.50770000  0.47460000  0.11670000  1
  O  O60  1  0.50800000  0.29800000  0.00100000  1
  O  O61  1  0.51390000  0.04720000  0.24060000  1
  O  O62  1  0.52350000  0.19590000  0.68780000  1
  O  O63  1  0.53000000  0.63800000  0.51040000  1
  O  O64  1  0.54710000  0.57900000  0.30190000  1
  O  O65  1  0.56270000  0.74650000  0.70740000  1
  O  O66  1  0.60540000  0.95920000  0.53680000  1
  O  O67  1  0.67130000  0.34020000  0.29450000  1
  O  O68  1  0.68960000  0.70750000  0.03800000  1
  O  O69  1  0.69330000  0.51150000  0.68400000  1
  O  O70  1  0.69920000  0.40970000  0.96220000  1
  O  O71  1  0.71120000  0.71730000  0.32870000  1
  O  O72  1  0.73040000  0.88950000  0.72210000  1
  O  O73  1  0.76230000  0.27330000  0.50780000  1
  O  O74  1  0.79390000  0.98770000  0.34650000  1
  O  O75  1  0.83740000  0.47300000  0.33460000  1
  O  O76  1  0.85650000  0.65040000  0.71800000  1
  O  O77  1  0.87080000  0.53630000  0.00680000  1
  O  O78  1  0.87800000  0.60090000  0.50340000  1
  O  O79  1  0.90130000  0.77520000  0.89630000  1
  O  O80  1  0.90360000  0.25330000  0.29820000  1
  O  O81  1  0.90370000  0.69520000  0.12890000  1
  O  O82  1  0.92290000  0.42240000  0.70140000  1
  O  O83  1  0.93170000  0.86350000  0.51790000  1
  O  O84  1  0.95930000  0.80640000  0.30440000  1
  O  O85  1  0.96520000  0.98740000  0.69610000  1
