# generated using pymatgen
data_CdH10C10(N3O)2
_symmetry_space_group_name_H-M   'P 1'
_cell_length_a   7.70470000
_cell_length_b   12.09045395
_cell_length_c   18.30718198
_cell_angle_alpha   75.87409086
_cell_angle_beta   77.85254449
_cell_angle_gamma   71.42006338
_symmetry_Int_Tables_number   1
_chemical_formula_structural   CdH10C10(N3O)2
_chemical_formula_sum   'Cd4 H40 C40 N24 O8'
_cell_volume   1551.19851161
_cell_formula_units_Z   4
loop_
 _symmetry_equiv_pos_site_id
 _symmetry_equiv_pos_as_xyz
  1  'x, y, z'
loop_
 _atom_site_type_symbol
 _atom_site_label
 _atom_site_symmetry_multiplicity
 _atom_site_fract_x
 _atom_site_fract_y
 _atom_site_fract_z
 _atom_site_occupancy
  C  C0  1  0.55730000  0.93590000  0.00910000  1
  C  C1  1  0.49770000  0.43590000  0.50910000  1
  C  C2  1  0.96890000  0.73170000  0.21150000  1
  C  C3  1  0.08790000  0.23170000  0.71150000  1
  C  C4  1  0.75610000  0.88370000  0.88650000  1
  C  C5  1  0.47370000  0.38370000  0.38650000  1
  C  C6  1  0.00820000  0.04270000  0.71770000  1
  C  C7  1  0.23140000  0.54270000  0.21770000  1
  C  C8  1  0.96198000  0.51674000  0.24250000  1
  C  C9  1  0.27878000  0.01674000  0.74250000  1
  C  C10  1  0.74967000  0.33626000  0.41360000  1
  C  C11  1  0.50047000  0.83626000  0.91360000  1
  C  C12  1  0.81960000  0.51275000  0.99125000  1
  C  C13  1  0.67640000  0.01275000  0.49125000  1
  C  C14  1  0.93120000  0.56780000  0.93480000  1
  C  C15  1  0.56620000  0.06780000  0.43480000  1
  C  C16  1  0.76671000  0.38422000  0.11836000  1
  C  C17  1  0.73071000  0.88422000  0.61836000  1
  C  C18  1  0.88718000  0.44414000  0.05730000  1
  C  C19  1  0.61138000  0.94414000  0.55730000  1
  C  C20  1  0.11282000  0.55586000  0.94270000  1
  C  C21  1  0.38862000  0.05586000  0.44270000  1
  C  C22  1  0.23329000  0.61578000  0.88164000  1
  C  C23  1  0.26929000  0.11578000  0.38164000  1
  C  C24  1  0.06880000  0.43220000  0.06520000  1
  C  C25  1  0.43380000  0.93220000  0.56520000  1
  C  C26  1  0.18040000  0.48725000  0.00875000  1
  C  C27  1  0.32360000  0.98725000  0.50875000  1
  C  C28  1  0.25033000  0.66374000  0.58640000  1
  C  C29  1  0.49953000  0.16374000  0.08640000  1
  C  C30  1  0.03802000  0.48326000  0.75750000  1
  C  C31  1  0.72122000  0.98326000  0.25750000  1
  C  C32  1  0.99180000  0.95730000  0.28230000  1
  C  C33  1  0.76860000  0.45730000  0.78230000  1
  C  C34  1  0.24390000  0.11630000  0.11350000  1
  C  C35  1  0.52630000  0.61630000  0.61350000  1
  C  C36  1  0.03110000  0.26830000  0.78850000  1
  C  C37  1  0.91210000  0.76830000  0.28850000  1
  C  C38  1  0.44270000  0.06410000  0.99090000  1
  C  C39  1  0.50230000  0.56410000  0.49090000  1
  Cd  Cd40  1  0.96338000  0.77733000  0.72751000  1
  Cd  Cd41  1  0.53178000  0.27733000  0.22751000  1
  Cd  Cd42  1  0.03662000  0.22267000  0.27249000  1
  Cd  Cd43  1  0.46822000  0.72267000  0.77249000  1
  H  H44  1  0.67050000  0.93190000  0.02730000  1
  H  H45  1  0.37030000  0.43190000  0.52730000  1
  H  H46  1  0.98860000  0.27140000  0.68020000  1
  H  H47  1  0.05980000  0.77140000  0.18020000  1
  H  H48  1  0.86080000  0.75510000  0.18510000  1
  H  H49  1  0.19900000  0.25510000  0.68510000  1
  H  H50  1  0.57340000  0.39040000  0.54920000  1
  H  H51  1  0.48700000  0.89040000  0.04920000  1
  H  H52  1  0.85500000  0.91140000  0.88940000  1
  H  H53  1  0.34420000  0.41140000  0.38940000  1
  H  H54  1  0.88940000  0.07870000  0.70370000  1
  H  H55  1  0.32820000  0.57870000  0.20370000  1
  H  H56  1  0.83280000  0.53110000  0.24950000  1
  H  H57  1  0.38660000  0.03110000  0.74950000  1
  H  H58  1  0.84980000  0.32470000  0.43910000  1
  H  H59  1  0.38640000  0.82470000  0.93910000  1
  H  H60  1  0.79580000  0.02170000  0.48490000  1
  H  H61  1  0.69760000  0.52170000  0.98490000  1
  H  H62  1  0.88400000  0.61420000  0.89020000  1
  H  H63  1  0.61160000  0.11420000  0.39020000  1
  H  H64  1  0.11600000  0.38580000  0.10980000  1
  H  H65  1  0.38840000  0.88580000  0.60980000  1
  H  H66  1  0.20420000  0.97830000  0.51510000  1
  H  H67  1  0.30240000  0.47830000  0.01510000  1
  H  H68  1  0.15020000  0.67530000  0.56090000  1
  H  H69  1  0.61360000  0.17530000  0.06090000  1
  H  H70  1  0.16720000  0.46890000  0.75050000  1
  H  H71  1  0.61340000  0.96890000  0.25050000  1
  H  H72  1  0.11060000  0.92130000  0.29630000  1
  H  H73  1  0.67180000  0.42130000  0.79630000  1
  H  H74  1  0.14500000  0.08860000  0.11060000  1
  H  H75  1  0.65580000  0.58860000  0.61060000  1
  H  H76  1  0.42660000  0.60960000  0.45080000  1
  H  H77  1  0.51300000  0.10960000  0.95080000  1
  H  H78  1  0.13920000  0.24490000  0.81490000  1
  H  H79  1  0.80100000  0.74490000  0.31490000  1
  H  H80  1  0.01140000  0.72860000  0.31980000  1
  H  H81  1  0.94020000  0.22860000  0.81980000  1
  H  H82  1  0.32950000  0.06810000  0.97270000  1
  H  H83  1  0.62970000  0.56810000  0.47270000  1
  N  N84  1  0.60493000  0.88529000  0.93945000  1
  N  N85  1  0.57033000  0.38529000  0.43945000  1
  N  N86  1  0.04979000  0.60192000  0.22270000  1
  N  N87  1  0.12559000  0.10192000  0.72270000  1
  N  N88  1  0.74471000  0.83801000  0.83077000  1
  N  N89  1  0.58651000  0.33801000  0.33077000  1
  N  N90  1  0.08301000  0.92869000  0.73489000  1
  N  N91  1  0.25341000  0.42869000  0.23489000  1
  N  N92  1  0.08021000  0.41188000  0.25070000  1
  N  N93  1  0.25721000  0.91188000  0.75070000  1
  N  N94  1  0.76317000  0.30742000  0.34824000  1
  N  N95  1  0.58117000  0.80742000  0.84824000  1
  N  N96  1  0.23683000  0.69258000  0.65176000  1
  N  N97  1  0.41883000  0.19258000  0.15176000  1
  N  N98  1  0.91979000  0.58812000  0.74930000  1
  N  N99  1  0.74279000  0.08812000  0.24930000  1
  N  N100  1  0.91699000  0.07131000  0.26511000  1
  N  N101  1  0.74659000  0.57131000  0.76511000  1
  N  N102  1  0.25529000  0.16199000  0.16923000  1
  N  N103  1  0.41349000  0.66199000  0.66923000  1
  N  N104  1  0.95021000  0.39808000  0.77730000  1
  N  N105  1  0.87441000  0.89808000  0.27730000  1
  N  N106  1  0.39507000  0.11471000  0.06055000  1
  N  N107  1  0.42967000  0.61471000  0.56055000  1
  O  O108  1  0.88655000  0.89835000  0.61015000  1
  O  O109  1  0.60495000  0.39835000  0.11015000  1
  O  O110  1  0.16940000  0.67876000  0.82224000  1
  O  O111  1  0.32960000  0.17876000  0.32224000  1
  O  O112  1  0.83060000  0.32124000  0.17776000  1
  O  O113  1  0.67040000  0.82124000  0.67776000  1
  O  O114  1  0.11345000  0.10165000  0.38985000  1
  O  O115  1  0.39505000  0.60165000  0.88985000  1
