# generated using pymatgen
data_Co3H8C20(N3O2)4
_symmetry_space_group_name_H-M   'P 1'
_cell_length_a   8.21520000
_cell_length_b   8.93870000
_cell_length_c   12.39610000
_cell_angle_alpha   109.84600000
_cell_angle_beta   92.65100000
_cell_angle_gamma   106.72500000
_symmetry_Int_Tables_number   1
_chemical_formula_structural   Co3H8C20(N3O2)4
_chemical_formula_sum   'Co3 H8 C20 N12 O8'
_cell_volume   809.46389337
_cell_formula_units_Z   1
loop_
 _symmetry_equiv_pos_site_id
 _symmetry_equiv_pos_as_xyz
  1  'x, y, z'
loop_
 _atom_site_type_symbol
 _atom_site_label
 _atom_site_symmetry_multiplicity
 _atom_site_fract_x
 _atom_site_fract_y
 _atom_site_fract_z
 _atom_site_occupancy
  Co  Co0  1  0.03208000  0.05585000  0.17923000  1
  Co  Co1  1  0.50000000  0.50000000  0.50000000  1
  Co  Co2  1  0.96792000  0.94415000  0.82077000  1
  H  H3  1  0.02900000  0.77600000  0.55100000  1
  H  H4  1  0.19600000  0.62390000  0.45560000  1
  H  H5  1  0.37810000  0.86720000  0.30620000  1
  H  H6  1  0.42270000  0.66450000  0.75230000  1
  H  H7  1  0.57730000  0.33550000  0.24770000  1
  H  H8  1  0.62190000  0.13280000  0.69380000  1
  H  H9  1  0.80400000  0.37610000  0.54440000  1
  H  H10  1  0.97100000  0.22400000  0.44900000  1
  C  C11  1  0.10820000  0.75320000  0.59380000  1
  C  C12  1  0.21010000  0.66260000  0.53620000  1
  C  C13  1  0.23770000  0.77320000  0.76750000  1
  C  C14  1  0.24160000  0.83010000  0.89320000  1
  C  C15  1  0.27500000  0.12790000  0.39380000  1
  C  C16  1  0.34150000  0.68520000  0.70960000  1
  C  C17  1  0.39200000  0.06490000  0.45140000  1
  C  C18  1  0.42700000  0.92060000  0.38420000  1
  C  C19  1  0.44830000  0.30830000  0.64720000  1
  C  C20  1  0.46690000  0.14530000  0.56880000  1
  C  C21  1  0.53310000  0.85470000  0.43120000  1
  C  C22  1  0.55170000  0.69170000  0.35280000  1
  C  C23  1  0.57300000  0.07940000  0.61580000  1
  C  C24  1  0.60800000  0.93510000  0.54860000  1
  C  C25  1  0.65850000  0.31480000  0.29040000  1
  C  C26  1  0.72500000  0.87210000  0.60620000  1
  C  C27  1  0.75840000  0.16990000  0.10680000  1
  C  C28  1  0.76230000  0.22680000  0.23250000  1
  C  C29  1  0.78990000  0.33740000  0.46380000  1
  C  C30  1  0.89180000  0.24680000  0.40620000  1
  N  N31  1  0.12090000  0.80840000  0.70896000  1
  N  N32  1  0.13400000  0.90880000  0.94194000  1
  N  N33  1  0.16660000  0.93650000  0.05488000  1
  N  N34  1  0.29040000  0.87780000  0.07320000  1
  N  N35  1  0.32800000  0.62960000  0.59386000  1
  N  N36  1  0.34000000  0.80940000  0.97150000  1
  N  N37  1  0.66000000  0.19060000  0.02850000  1
  N  N38  1  0.67200000  0.37040000  0.40614000  1
  N  N39  1  0.70960000  0.12220000  0.92680000  1
  N  N40  1  0.83340000  0.06350000  0.94512000  1
  N  N41  1  0.86600000  0.09120000  0.05806000  1
  N  N42  1  0.87910000  0.19160000  0.29104000  1
  O  O43  1  0.16170000  0.01930000  0.31100000  1
  O  O44  1  0.29350000  0.28210000  0.42942000  1
  O  O45  1  0.34400000  0.30650000  0.71480000  1
  O  O46  1  0.45180000  0.55850000  0.35965000  1
  O  O47  1  0.54820000  0.44150000  0.64035000  1
  O  O48  1  0.65600000  0.69350000  0.28520000  1
  O  O49  1  0.70650000  0.71790000  0.57058000  1
  O  O50  1  0.83830000  0.98070000  0.68900000  1
