# generated using pymatgen
data_DyCuH8C14(NO4)2
_symmetry_space_group_name_H-M   'P 1'
_cell_length_a   9.17500000
_cell_length_b   9.49300000
_cell_length_c   21.51000000
_cell_angle_alpha   90.00000000
_cell_angle_beta   90.00000000
_cell_angle_gamma   116.48300000
_symmetry_Int_Tables_number   1
_chemical_formula_structural   DyCuH8C14(NO4)2
_chemical_formula_sum   'Dy4 Cu4 H32 C56 N8 O32'
_cell_volume   1676.89306966
_cell_formula_units_Z   4
loop_
 _symmetry_equiv_pos_site_id
 _symmetry_equiv_pos_as_xyz
  1  'x, y, z'
loop_
 _atom_site_type_symbol
 _atom_site_label
 _atom_site_symmetry_multiplicity
 _atom_site_fract_x
 _atom_site_fract_y
 _atom_site_fract_z
 _atom_site_occupancy
  Dy  Dy0  1  0.12484000  0.35745000  0.99173000  1
  Dy  Dy1  1  0.37516000  0.64255000  0.49173000  1
  Dy  Dy2  1  0.62484000  0.35745000  0.50827000  1
  Dy  Dy3  1  0.87516000  0.64255000  0.00827000  1
  Cu  Cu4  1  0.03842000  0.69177000  0.35361000  1
  Cu  Cu5  1  0.46158000  0.30823000  0.85361000  1
  Cu  Cu6  1  0.53842000  0.69177000  0.14639000  1
  Cu  Cu7  1  0.96158000  0.30823000  0.64639000  1
  H  H8  1  0.00440000  0.34500000  0.77750000  1
  H  H9  1  0.05480000  0.79100000  0.57040000  1
  H  H10  1  0.10760000  0.31320000  0.16640000  1
  H  H11  1  0.12470000  0.42830000  0.34510000  1
  H  H12  1  0.14580000  0.26830000  0.26970000  1
  H  H13  1  0.20540000  0.19760000  0.65860000  1
  H  H14  1  0.20710000  0.97320000  0.43080000  1
  H  H15  1  0.24470000  0.00490000  0.12400000  1
  H  H16  1  0.25530000  0.99510000  0.62400000  1
  H  H17  1  0.29290000  0.02680000  0.93080000  1
  H  H18  1  0.29460000  0.80240000  0.15860000  1
  H  H19  1  0.35420000  0.73170000  0.76970000  1
  H  H20  1  0.37530000  0.57170000  0.84510000  1
  H  H21  1  0.39240000  0.68680000  0.66640000  1
  H  H22  1  0.44520000  0.20900000  0.07040000  1
  H  H23  1  0.49560000  0.65500000  0.27750000  1
  H  H24  1  0.50440000  0.34500000  0.72250000  1
  H  H25  1  0.55480000  0.79100000  0.92960000  1
  H  H26  1  0.60760000  0.31320000  0.33360000  1
  H  H27  1  0.62470000  0.42830000  0.15490000  1
  H  H28  1  0.64580000  0.26830000  0.23030000  1
  H  H29  1  0.70540000  0.19760000  0.84140000  1
  H  H30  1  0.70710000  0.97320000  0.06920000  1
  H  H31  1  0.74470000  0.00490000  0.37600000  1
  H  H32  1  0.75530000  0.99510000  0.87600000  1
  H  H33  1  0.79290000  0.02680000  0.56920000  1
  H  H34  1  0.79460000  0.80240000  0.34140000  1
  H  H35  1  0.85420000  0.73170000  0.73030000  1
  H  H36  1  0.87530000  0.57170000  0.65490000  1
  H  H37  1  0.89240000  0.68680000  0.83360000  1
  H  H38  1  0.94520000  0.20900000  0.42960000  1
  H  H39  1  0.99560000  0.65500000  0.22250000  1
  C  C40  1  0.00250000  0.47810000  0.53360000  1
  C  C41  1  0.01190000  0.00810000  0.03550000  1
  C  C42  1  0.01330000  0.52250000  0.11840000  1
  C  C43  1  0.02920000  0.57840000  0.23190000  1
  C  C44  1  0.04040000  0.87870000  0.58130000  1
  C  C45  1  0.04780000  0.49040000  0.18340000  1
  C  C46  1  0.09370000  0.37370000  0.19770000  1
  C  C47  1  0.09710000  0.11200000  0.43570000  1
  C  C48  1  0.10300000  0.44360000  0.30410000  1
  C  C49  1  0.11450000  0.98170000  0.41800000  1
  C  C50  1  0.11860000  0.34860000  0.25890000  1
  C  C51  1  0.12900000  0.12060000  0.63330000  1
  C  C52  1  0.15760000  0.99760000  0.61440000  1
  C  C53  1  0.23260000  0.24320000  0.47200000  1
  C  C54  1  0.26740000  0.75680000  0.97200000  1
  C  C55  1  0.34240000  0.00240000  0.11440000  1
  C  C56  1  0.37100000  0.87940000  0.13330000  1
  C  C57  1  0.38140000  0.65140000  0.75890000  1
  C  C58  1  0.38550000  0.01830000  0.91800000  1
  C  C59  1  0.39700000  0.55640000  0.80410000  1
  C  C60  1  0.40290000  0.88800000  0.93570000  1
  C  C61  1  0.40630000  0.62630000  0.69770000  1
  C  C62  1  0.45220000  0.50960000  0.68340000  1
  C  C63  1  0.45960000  0.12130000  0.08130000  1
  C  C64  1  0.47080000  0.42160000  0.73190000  1
  C  C65  1  0.48670000  0.47750000  0.61840000  1
  C  C66  1  0.48810000  0.99190000  0.53550000  1
  C  C67  1  0.49750000  0.52190000  0.03360000  1
  C  C68  1  0.50250000  0.47810000  0.96640000  1
  C  C69  1  0.51190000  0.00810000  0.46450000  1
  C  C70  1  0.51330000  0.52250000  0.38160000  1
  C  C71  1  0.52920000  0.57840000  0.26810000  1
  C  C72  1  0.54040000  0.87870000  0.91870000  1
  C  C73  1  0.54780000  0.49040000  0.31660000  1
  C  C74  1  0.59370000  0.37370000  0.30230000  1
  C  C75  1  0.59710000  0.11200000  0.06430000  1
  C  C76  1  0.60300000  0.44360000  0.19590000  1
  C  C77  1  0.61450000  0.98170000  0.08200000  1
  C  C78  1  0.61860000  0.34860000  0.24110000  1
  C  C79  1  0.62900000  0.12060000  0.86670000  1
  C  C80  1  0.65760000  0.99760000  0.88560000  1
  C  C81  1  0.73260000  0.24320000  0.02800000  1
  C  C82  1  0.76740000  0.75680000  0.52800000  1
  C  C83  1  0.84240000  0.00240000  0.38560000  1
  C  C84  1  0.87100000  0.87940000  0.36670000  1
  C  C85  1  0.88140000  0.65140000  0.74110000  1
  C  C86  1  0.88550000  0.01830000  0.58200000  1
  C  C87  1  0.89700000  0.55640000  0.69590000  1
  C  C88  1  0.90290000  0.88800000  0.56430000  1
  C  C89  1  0.90630000  0.62630000  0.80230000  1
  C  C90  1  0.95220000  0.50960000  0.81660000  1
  C  C91  1  0.95960000  0.12130000  0.41870000  1
  C  C92  1  0.97080000  0.42160000  0.76810000  1
  C  C93  1  0.98670000  0.47750000  0.88160000  1
  C  C94  1  0.98810000  0.99190000  0.96450000  1
  C  C95  1  0.99750000  0.52190000  0.46640000  1
  N  N96  1  0.00430000  0.86530000  0.38310000  1
  N  N97  1  0.05760000  0.55790000  0.29180000  1
  N  N98  1  0.44240000  0.44210000  0.79180000  1
  N  N99  1  0.49570000  0.13470000  0.88310000  1
  N  N100  1  0.50430000  0.86530000  0.11690000  1
  N  N101  1  0.55760000  0.55790000  0.20820000  1
  N  N102  1  0.94240000  0.44210000  0.70820000  1
  N  N103  1  0.99570000  0.13470000  0.61690000  1
  O  O104  1  0.05160000  0.11730000  0.93417000  1
  O  O105  1  0.05370000  0.39000000  0.88944000  1
  O  O106  1  0.05420000  0.45970000  0.07543000  1
  O  O107  1  0.08980000  0.14400000  0.05696000  1
  O  O108  1  0.13030000  0.61760000  0.44212000  1
  O  O109  1  0.13620000  0.53910000  0.56098000  1
  O  O110  1  0.16040000  0.78520000  0.99614000  1
  O  O111  1  0.22450000  0.37130000  0.47190000  1
  O  O112  1  0.27550000  0.62870000  0.97190000  1
  O  O113  1  0.33960000  0.21480000  0.49614000  1
  O  O114  1  0.36380000  0.46090000  0.06098000  1
  O  O115  1  0.36970000  0.38240000  0.94212000  1
  O  O116  1  0.41020000  0.85600000  0.55696000  1
  O  O117  1  0.44580000  0.54030000  0.57543000  1
  O  O118  1  0.44630000  0.61000000  0.38944000  1
  O  O119  1  0.44840000  0.88270000  0.43417000  1
  O  O120  1  0.55160000  0.11730000  0.56583000  1
  O  O121  1  0.55370000  0.39000000  0.61056000  1
  O  O122  1  0.55420000  0.45970000  0.42457000  1
  O  O123  1  0.58980000  0.14400000  0.44304000  1
  O  O124  1  0.63030000  0.61760000  0.05788000  1
  O  O125  1  0.63620000  0.53910000  0.93902000  1
  O  O126  1  0.66040000  0.78520000  0.50386000  1
  O  O127  1  0.72450000  0.37130000  0.02810000  1
  O  O128  1  0.77550000  0.62870000  0.52810000  1
  O  O129  1  0.83960000  0.21480000  0.00386000  1
  O  O130  1  0.86380000  0.46090000  0.43902000  1
  O  O131  1  0.86970000  0.38240000  0.55788000  1
  O  O132  1  0.91020000  0.85600000  0.94304000  1
  O  O133  1  0.94580000  0.54030000  0.92457000  1
  O  O134  1  0.94630000  0.61000000  0.11056000  1
  O  O135  1  0.94840000  0.88270000  0.06583000  1
