# generated using pymatgen
data_Ce2H12C8SO18
_symmetry_space_group_name_H-M   'P 1'
_cell_length_a   6.16890000
_cell_length_b   7.65770000
_cell_length_c   11.62985101
_cell_angle_alpha   109.22180708
_cell_angle_beta   91.39747483
_cell_angle_gamma   90.00000000
_symmetry_Int_Tables_number   1
_chemical_formula_structural   Ce2H12C8SO18
_chemical_formula_sum   'Ce2 H12 C8 S1 O18'
_cell_volume   518.58845046
_cell_formula_units_Z   1
loop_
 _symmetry_equiv_pos_site_id
 _symmetry_equiv_pos_as_xyz
  1  'x, y, z'
loop_
 _atom_site_type_symbol
 _atom_site_label
 _atom_site_symmetry_multiplicity
 _atom_site_fract_x
 _atom_site_fract_y
 _atom_site_fract_z
 _atom_site_occupancy
  C  C0  1  0.30930000  0.24220000  0.69920000  1
  C  C1  1  0.44530000  0.40520000  0.68880000  1
  C  C2  1  0.13720000  0.93860000  0.58580000  1
  C  C3  1  0.31380000  0.07800000  0.58060000  1
  C  C4  1  0.68620000  0.49740000  0.41940000  1
  C  C5  1  0.86280000  0.35280000  0.41420000  1
  C  C6  1  0.55470000  0.71640000  0.31120000  1
  C  C7  1  0.69070000  0.54300000  0.30080000  1
  Ce  Ce8  1  0.94994000  0.60809000  0.70936000  1
  Ce  Ce9  1  0.05006000  0.89873000  0.29064000  1
  H  H10  1  0.57580000  0.92470000  0.83240000  1
  H  H11  1  0.06130000  0.28090000  0.78760000  1
  H  H12  1  0.36750000  0.20430000  0.76640000  1
  H  H13  1  0.55800000  0.75370000  0.73340000  1
  H  H14  1  0.45510000  0.01800000  0.57640000  1
  H  H15  1  0.80140000  0.73070000  0.50980000  1
  H  H16  1  0.19860000  0.22090000  0.49020000  1
  H  H17  1  0.54490000  0.44160000  0.42360000  1
  H  H18  1  0.44200000  0.02030000  0.26660000  1
  H  H19  1  0.63250000  0.43790000  0.23360000  1
  H  H20  1  0.93870000  0.49330000  0.21240000  1
  H  H21  1  0.42420000  0.09230000  0.16760000  1
  O  O22  1  0.85140000  0.60690000  0.92540000  1
  O  O23  1  0.11420000  0.81780000  0.91220000  1
  O  O24  1  0.64310000  0.84070000  0.77700000  1
  O  O25  1  0.09720000  0.30640000  0.72460000  1
  O  O26  1  0.34450000  0.54510000  0.68800000  1
  O  O27  1  0.64660000  0.38540000  0.68180000  1
  O  O28  1  0.13920000  0.87350000  0.67060000  1
  O  O29  1  0.71750000  0.65401000  0.52642000  1
  O  O30  1  0.00440000  0.39560000  0.50020000  1
  O  O31  1  0.99560000  0.89540000  0.49980000  1
  O  O32  1  0.28250000  0.12759000  0.47358000  1
  O  O33  1  0.86080000  0.20290000  0.32940000  1
  O  O34  1  0.35340000  0.70360000  0.31820000  1
  O  O35  1  0.65550000  0.85710000  0.31200000  1
  O  O36  1  0.90280000  0.58180000  0.27540000  1
  O  O37  1  0.35690000  0.06370000  0.22300000  1
  O  O38  1  0.88580000  0.90560000  0.08780000  1
  O  O39  1  0.14860000  0.68150000  0.07460000  1
  S  S40  1  1.00000000  0.75490000  1.00000000  1
