# generated using pymatgen
data_ZnH12C18N2O3
_symmetry_space_group_name_H-M   'P 1'
_cell_length_a   5.14620000
_cell_length_b   18.97980000
_cell_length_c   18.97980066
_cell_angle_alpha   88.94683860
_cell_angle_beta   82.20838537
_cell_angle_gamma   82.20830000
_symmetry_Int_Tables_number   1
_chemical_formula_structural   ZnH12C18N2O3
_chemical_formula_sum   'Zn4 H48 C72 N8 O12'
_cell_volume   1819.75752151
_cell_formula_units_Z   4
loop_
 _symmetry_equiv_pos_site_id
 _symmetry_equiv_pos_as_xyz
  1  'x, y, z'
loop_
 _atom_site_type_symbol
 _atom_site_label
 _atom_site_symmetry_multiplicity
 _atom_site_fract_x
 _atom_site_fract_y
 _atom_site_fract_z
 _atom_site_occupancy
  Zn  Zn0  1  0.28944000  0.05913000  0.51214000  1
  Zn  Zn1  1  0.65143000  0.48786000  0.05912000  1
  Zn  Zn2  1  0.86072000  0.94087000  0.48786000  1
  Zn  Zn3  1  0.19841000  0.51214000  0.94088000  1
  H  H4  1  0.15780000  0.94030000  0.81490000  1
  H  H5  1  0.87780000  0.98780000  0.08820000  1
  H  H6  1  0.83300000  0.68950000  0.11750000  1
  H  H7  1  0.65140000  0.04910000  0.29330000  1
  H  H8  1  0.95380000  0.01220000  0.91180000  1
  H  H9  1  0.90190000  0.18510000  0.94030000  1
  H  H10  1  0.29180000  0.94040000  0.52740000  1
  H  H11  1  0.89370000  0.82580000  0.83880000  1
  H  H12  1  0.55830000  0.17420000  0.16120000  1
  H  H13  1  0.76780000  0.47260000  0.94040000  1
  H  H14  1  0.99380000  0.95090000  0.70670000  1
  H  H15  1  0.70630000  0.63250000  0.99250000  1
  H  H16  1  0.59200000  0.90400000  0.09920000  1
  H  H17  1  0.30120000  0.99250000  0.36750000  1
  H  H18  1  0.83450000  0.20240000  0.82700000  1
  H  H19  1  0.95780000  0.18850000  0.59590000  1
  H  H20  1  0.90210000  0.29880000  0.63740000  1
  H  H21  1  0.64000000  0.31050000  0.88250000  1
  H  H22  1  0.59520000  0.09600000  0.90080000  1
  H  H23  1  0.26750000  0.83880000  0.17420000  1
  H  H24  1  0.50400000  0.90080000  0.90400000  1
  H  H25  1  0.30880000  0.09920000  0.09600000  1
  H  H26  1  0.70190000  0.40740000  0.69060000  1
  H  H27  1  0.04950000  0.11750000  0.31050000  1
  H  H28  1  0.29950000  0.70670000  0.04910000  1
  H  H29  1  0.33130000  0.36750000  0.00750000  1
  H  H30  1  0.89070000  0.30940000  0.40740000  1
  H  H31  1  0.66120000  0.00750000  0.63250000  1
  H  H32  1  0.44630000  0.59590000  0.81150000  1
  H  H33  1  0.18080000  0.52740000  0.05960000  1
  H  H34  1  0.75960000  0.05960000  0.47260000  1
  H  H35  1  0.83830000  0.70120000  0.36260000  1
  H  H36  1  0.60750000  0.69060000  0.59260000  1
  H  H37  1  0.47750000  0.88250000  0.68950000  1
  H  H38  1  0.96310000  0.17300000  0.20240000  1
  H  H39  1  0.46050000  0.63740000  0.70120000  1
  H  H40  1  0.74220000  0.81150000  0.40410000  1
  H  H41  1  0.33850000  0.82700000  0.79760000  1
  H  H42  1  0.13440000  0.91180000  0.98780000  1
  H  H43  1  0.79990000  0.59260000  0.30940000  1
  H  H44  1  0.28050000  0.16120000  0.82580000  1
  H  H45  1  0.91300000  0.05970000  0.18510000  1
  H  H46  1  0.79910000  0.36260000  0.29880000  1
  H  H47  1  0.02730000  0.81490000  0.05970000  1
  H  H48  1  0.03400000  0.08820000  0.01220000  1
  H  H49  1  0.85370000  0.40410000  0.18850000  1
  H  H50  1  0.86390000  0.79760000  0.17300000  1
  H  H51  1  0.05530000  0.29330000  0.95090000  1
  C  C52  1  0.78943000  0.63390000  0.20684000  1
  C  C53  1  0.82825000  0.69143000  0.16767000  1
  C  C54  1  0.01805000  0.19039000  0.97411000  1
  C  C55  1  0.26825000  0.13658000  0.72272000  1
  C  C56  1  0.79156000  0.02589000  0.19039000  1
  C  C57  1  0.77840000  0.56240000  0.17420000  1
  C  C58  1  0.76294000  0.37363000  0.16449000  1
  C  C59  1  0.77138000  0.98234000  0.13250000  1
  C  C60  1  0.63651000  0.01970000  0.25448000  1
  C  C61  1  0.00903000  0.72272000  0.86342000  1
  C  C62  1  0.95642000  0.66516000  0.90980000  1
  C  C63  1  0.00784000  0.97411000  0.80961000  1
  C  C64  1  0.88622000  0.01766000  0.86750000  1
  C  C65  1  0.60238000  0.93275000  0.13889000  1
  C  C66  1  0.59517000  0.27728000  0.13658000  1
  C  C67  1  0.85486000  0.78749000  0.86959000  1
  C  C68  1  0.45307000  0.96910000  0.26296000  1
  C  C69  1  0.74217000  0.67138000  0.96208000  1
  C  C70  1  0.07257000  0.16449000  0.62637000  1
  C  C71  1  0.91069000  0.98030000  0.74552000  1
  C  C72  1  0.91874000  0.24545000  0.72867000  1
  C  C73  1  0.44021000  0.92335000  0.20483000  1
  C  C74  1  0.51194000  0.21251000  0.13041000  1
  C  C75  1  0.29575000  0.96208000  0.32862000  1
  C  C76  1  0.53138000  0.33484000  0.09020000  1
  C  C77  1  0.81674000  0.24510000  0.80022000  1
  C  C78  1  0.63644000  0.79517000  0.92335000  1
  C  C79  1  0.57783000  0.73704000  0.96910000  1
  C  C80  1  0.85690000  0.30210000  0.68750000  1
  C  C81  1  0.67402000  0.06725000  0.86111000  1
  C  C82  1  0.68735000  0.30857000  0.83233000  1
  C  C83  1  0.27555000  0.86959000  0.21251000  1
  C  C84  1  0.04740000  0.17420000  0.43760000  1
  C  C85  1  0.13378000  0.90980000  0.33484000  1
  C  C86  1  0.72660000  0.36550000  0.71830000  1
  C  C87  1  0.35496000  0.20483000  0.07665000  1
  C  C88  1  0.63017000  0.36610000  0.79316000  1
  C  C89  1  0.68513000  0.03090000  0.73704000  1
  C  C90  1  0.37563000  0.32862000  0.03792000  1
  C  C91  1  0.12755000  0.86342000  0.27728000  1
  C  C92  1  0.46487000  0.86111000  0.93275000  1
  C  C93  1  0.00373000  0.20684000  0.36610000  1
  C  C94  1  0.56839000  0.07665000  0.79517000  1
  C  C95  1  0.34379000  0.74552000  0.01970000  1
  C  C96  1  0.51500000  0.43760000  0.82580000  1
  C  C97  1  0.25873000  0.13889000  0.06725000  1
  C  C98  1  0.28397000  0.26296000  0.03090000  1
  C  C99  1  0.00408000  0.16767000  0.30857000  1
  C  C100  1  0.90790000  0.28170000  0.36550000  1
  C  C101  1  0.58645000  0.03792000  0.67138000  1
  C  C102  1  0.86343000  0.83551000  0.37363000  1
  C  C103  1  0.24628000  0.86750000  0.98234000  1
  C  C104  1  0.65920000  0.82580000  0.56240000  1
  C  C105  1  0.57667000  0.79316000  0.63390000  1
  C  C106  1  0.18255000  0.80961000  0.02589000  1
  C  C107  1  0.55510000  0.71830000  0.63450000  1
  C  C108  1  0.93816000  0.19978000  0.24510000  1
  C  C109  1  0.48032000  0.83233000  0.69143000  1
  C  C110  1  0.89286000  0.75455000  0.27133000  1
  C  C111  1  0.84650000  0.69790000  0.31250000  1
  C  C112  1  0.45560000  0.68750000  0.69790000  1
  C  C113  1  0.35765000  0.13041000  0.78749000  1
  C  C114  1  0.84100000  0.31250000  0.30210000  1
  C  C115  1  0.38304000  0.80022000  0.75490000  1
  C  C116  1  0.30106000  0.62637000  0.83551000  1
  C  C117  1  0.09612000  0.13250000  0.01766000  1
  C  C118  1  0.35259000  0.72867000  0.75455000  1
  C  C119  1  0.81040000  0.63450000  0.28170000  1
  C  C120  1  0.10901000  0.25448000  0.98030000  1
  C  C121  1  0.83581000  0.27133000  0.24545000  1
  C  C122  1  0.86206000  0.75490000  0.19978000  1
  C  C123  1  0.37842000  0.09020000  0.66516000  1
  N  N124  1  0.74463000  0.30442000  0.18392000  1
  N  N125  1  0.24561000  0.10998000  0.60660000  1
  N  N126  1  0.07145000  0.18392000  0.69558000  1
  N  N127  1  0.64441000  0.39340000  0.10998000  1
  N  N128  1  0.96219000  0.89002000  0.39340000  1
  N  N129  1  0.95095000  0.81608000  0.30442000  1
  N  N130  1  0.23297000  0.69558000  0.81608000  1
  N  N131  1  0.14779000  0.60660000  0.89002000  1
  O  O132  1  0.71311000  0.51193000  0.21725000  1
  O  O133  1  0.80944000  0.55541000  0.11231000  1
  O  O134  1  0.88198000  0.47118000  0.97046000  1
  O  O135  1  0.14756000  0.97046000  0.52882000  1
  O  O136  1  0.06964000  0.21725000  0.48807000  1
  O  O137  1  0.07825000  0.11231000  0.44459000  1
  O  O138  1  0.47716000  0.44459000  0.88769000  1
  O  O139  1  0.32362000  0.52882000  0.02954000  1
  O  O140  1  0.77496000  0.78275000  0.51193000  1
  O  O141  1  0.44229000  0.48807000  0.78275000  1
  O  O142  1  0.63515000  0.88769000  0.55541000  1
  O  O143  1  0.64684000  0.02954000  0.47118000  1
