# generated using pymatgen
data_FeH12(CN2)12
_symmetry_space_group_name_H-M   'P 1'
_cell_length_a   8.01120000
_cell_length_b   8.96480000
_cell_length_c   11.33529754
_cell_angle_alpha   111.99902627
_cell_angle_beta   109.27157406
_cell_angle_gamma   93.38200000
_symmetry_Int_Tables_number   1
_chemical_formula_structural   FeH12(CN2)12
_chemical_formula_sum   'Fe1 H12 C12 N24'
_cell_volume   696.83434767
_cell_formula_units_Z   1
loop_
 _symmetry_equiv_pos_site_id
 _symmetry_equiv_pos_as_xyz
  1  'x, y, z'
loop_
 _atom_site_type_symbol
 _atom_site_label
 _atom_site_symmetry_multiplicity
 _atom_site_fract_x
 _atom_site_fract_y
 _atom_site_fract_z
 _atom_site_occupancy
  C  C0  1  0.05107000  0.28697000  0.25604000  1
  C  C1  1  0.79503000  0.03093000  0.74396000  1
  C  C2  1  0.48433500  0.99998500  0.27257000  1
  C  C3  1  0.21176500  0.72741500  0.72743000  1
  C  C4  1  0.80930000  0.57140000  1.00000000  1
  C  C5  1  0.30920000  0.21450000  0.00000000  1
  C  C6  1  0.69080000  0.78550000  0.00000000  1
  C  C7  1  0.19070000  0.42860000  0.00000000  1
  C  C8  1  0.51566500  0.00001500  0.72743000  1
  C  C9  1  0.78823500  0.27258500  0.27257000  1
  C  C10  1  0.94893000  0.71303000  0.74396000  1
  C  C11  1  0.20497000  0.96907000  0.25604000  1
  Fe  Fe12  1  0.00000000  0.00000000  0.00000000  1
  H  H13  1  0.10870000  0.95620000  0.27840000  1
  H  H14  1  0.83030000  0.67780000  0.72160000  1
  H  H15  1  0.30480000  0.70130000  0.69260000  1
  H  H16  1  0.61220000  0.00870000  0.30740000  1
  H  H17  1  0.38800000  0.14400000  0.00000000  1
  H  H18  1  0.83000000  0.47200000  1.00000000  1
  H  H19  1  0.17000000  0.52800000  0.00000000  1
  H  H20  1  0.61200000  0.85600000  1.00000000  1
  H  H21  1  0.69520000  0.29870000  0.30740000  1
  H  H22  1  0.38780000  0.99130000  0.69260000  1
  H  H23  1  0.89130000  0.04380000  0.72160000  1
  H  H24  1  0.16970000  0.32220000  0.27840000  1
  N  N25  1  0.49760000  0.56900000  0.00000000  1
  N  N26  1  0.92840000  0.67560000  0.00000000  1
  N  N27  1  0.79225000  0.01450000  0.85250000  1
  N  N28  1  0.93975000  0.16200000  0.14750000  1
  N  N29  1  0.85270000  0.81280000  1.00000000  1
  N  N30  1  0.34240000  0.36550000  0.00000000  1
  N  N31  1  0.05050500  0.48800500  0.46761000  1
  N  N32  1  0.58289500  0.02039500  0.53239000  1
  N  N33  1  0.38668000  0.00338000  0.15696000  1
  N  N34  1  0.22972000  0.84642000  0.84304000  1
  N  N35  1  0.96227000  0.35972000  0.33844000  1
  N  N36  1  0.62383000  0.02128000  0.66156000  1
  N  N37  1  0.03773000  0.64028000  0.66156000  1
  N  N38  1  0.37617000  0.97872000  0.33844000  1
  N  N39  1  0.61332000  0.99662000  0.84304000  1
  N  N40  1  0.77028000  0.15358000  0.15696000  1
  N  N41  1  0.94949500  0.51199500  0.53239000  1
  N  N42  1  0.41710500  0.97960500  0.46761000  1
  N  N43  1  0.65760000  0.63450000  1.00000000  1
  N  N44  1  0.14730000  0.18720000  0.00000000  1
  N  N45  1  0.20775000  0.98550000  0.14750000  1
  N  N46  1  0.06025000  0.83800000  0.85250000  1
  N  N47  1  0.07160000  0.32440000  1.00000000  1
  N  N48  1  0.50240000  0.43100000  0.00000000  1
