# generated using pymatgen
data_ZnH7C13NO4
_symmetry_space_group_name_H-M   'P 1'
_cell_length_a   8.20870000
_cell_length_b   14.99120000
_cell_length_c   21.97890000
_cell_angle_alpha   90.00000000
_cell_angle_beta   94.70200000
_cell_angle_gamma   90.00000000
_symmetry_Int_Tables_number   1
_chemical_formula_structural   ZnH7C13NO4
_chemical_formula_sum   'Zn8 H56 C104 N8 O32'
_cell_volume   2695.58271843
_cell_formula_units_Z   8
loop_
 _symmetry_equiv_pos_site_id
 _symmetry_equiv_pos_as_xyz
  1  'x, y, z'
loop_
 _atom_site_type_symbol
 _atom_site_label
 _atom_site_symmetry_multiplicity
 _atom_site_fract_x
 _atom_site_fract_y
 _atom_site_fract_z
 _atom_site_occupancy
  Zn  Zn0  1  0.03362000  0.26724000  0.74283000  1
  Zn  Zn1  1  0.17436000  0.58091000  0.36494000  1
  Zn  Zn2  1  0.32564000  0.08091000  0.13506000  1
  Zn  Zn3  1  0.46638000  0.76724000  0.75717000  1
  Zn  Zn4  1  0.53362000  0.23276000  0.24283000  1
  Zn  Zn5  1  0.67436000  0.91909000  0.86494000  1
  Zn  Zn6  1  0.82564000  0.41909000  0.63506000  1
  Zn  Zn7  1  0.96638000  0.73276000  0.25717000  1
  H  H8  1  0.00370000  0.11960000  0.27210000  1
  H  H9  1  0.03560000  0.14970000  0.95770000  1
  H  H10  1  0.08620000  0.61580000  0.54970000  1
  H  H11  1  0.09500000  0.88280000  0.35100000  1
  H  H12  1  0.09540000  0.25230000  0.03390000  1
  H  H13  1  0.10640000  0.76750000  0.55790000  1
  H  H14  1  0.11270000  0.03670000  0.35460000  1
  H  H15  1  0.12440000  0.41600000  0.53280000  1
  H  H16  1  0.12690000  0.95210000  0.81020000  1
  H  H17  1  0.14570000  0.37660000  0.24610000  1
  H  H18  1  0.20470000  0.49400000  0.85510000  1
  H  H19  1  0.21520000  0.52840000  0.62340000  1
  H  H20  1  0.23910000  0.32960000  0.86130000  1
  H  H21  1  0.24800000  0.61870000  0.91490000  1
  H  H22  1  0.25200000  0.11870000  0.58510000  1
  H  H23  1  0.26090000  0.82960000  0.63870000  1
  H  H24  1  0.28480000  0.02840000  0.87660000  1
  H  H25  1  0.29530000  0.99400000  0.64490000  1
  H  H26  1  0.35430000  0.87660000  0.25390000  1
  H  H27  1  0.37310000  0.45210000  0.68980000  1
  H  H28  1  0.37560000  0.91600000  0.96720000  1
  H  H29  1  0.38730000  0.53670000  0.14540000  1
  H  H30  1  0.39360000  0.26750000  0.94210000  1
  H  H31  1  0.40460000  0.75230000  0.46610000  1
  H  H32  1  0.40500000  0.38280000  0.14900000  1
  H  H33  1  0.41380000  0.11580000  0.95030000  1
  H  H34  1  0.46440000  0.64970000  0.54230000  1
  H  H35  1  0.49630000  0.61960000  0.22790000  1
  H  H36  1  0.50370000  0.38040000  0.77210000  1
  H  H37  1  0.53560000  0.35030000  0.45770000  1
  H  H38  1  0.58620000  0.88420000  0.04970000  1
  H  H39  1  0.59500000  0.61720000  0.85100000  1
  H  H40  1  0.59540000  0.24770000  0.53390000  1
  H  H41  1  0.60640000  0.73250000  0.05790000  1
  H  H42  1  0.61270000  0.46330000  0.85460000  1
  H  H43  1  0.62440000  0.08400000  0.03280000  1
  H  H44  1  0.62690000  0.54790000  0.31020000  1
  H  H45  1  0.64570000  0.12340000  0.74610000  1
  H  H46  1  0.70470000  0.00600000  0.35510000  1
  H  H47  1  0.71520000  0.97160000  0.12340000  1
  H  H48  1  0.73910000  0.17040000  0.36130000  1
  H  H49  1  0.74800000  0.88130000  0.41490000  1
  H  H50  1  0.75200000  0.38130000  0.08510000  1
  H  H51  1  0.76090000  0.67040000  0.13870000  1
  H  H52  1  0.78480000  0.47160000  0.37660000  1
  H  H53  1  0.79530000  0.50600000  0.14490000  1
  H  H54  1  0.85430000  0.62340000  0.75390000  1
  H  H55  1  0.87310000  0.04790000  0.18980000  1
  H  H56  1  0.87560000  0.58400000  0.46720000  1
  H  H57  1  0.88730000  0.96330000  0.64540000  1
  H  H58  1  0.89360000  0.23250000  0.44210000  1
  H  H59  1  0.90460000  0.74770000  0.96610000  1
  H  H60  1  0.90500000  0.11720000  0.64900000  1
  H  H61  1  0.91380000  0.38420000  0.45030000  1
  H  H62  1  0.96440000  0.85030000  0.04230000  1
  H  H63  1  0.99630000  0.88040000  0.72790000  1
  C  C64  1  0.00050000  0.21840000  0.03405000  1
  C  C65  1  0.00300000  0.53420000  0.24285000  1
  C  C66  1  0.00500000  0.94230000  0.72820000  1
  C  C67  1  0.02600000  0.54610000  0.79765000  1
  C  C68  1  0.03520000  0.84310000  0.01168000  1
  C  C69  1  0.04840000  0.91630000  0.31850000  1
  C  C70  1  0.05220000  0.30440000  0.17442000  1
  C  C71  1  0.06080000  0.00850000  0.32070000  1
  C  C72  1  0.06870000  0.37820000  0.21262000  1
  C  C73  1  0.06940000  0.69530000  0.87443000  1
  C  C74  1  0.08260000  0.98460000  0.77680000  1
  C  C75  1  0.09540000  0.07750000  0.77620000  1
  C  C76  1  0.10300000  0.76910000  0.91945000  1
  C  C77  1  0.13570000  0.31160000  0.62748000  1
  C  C78  1  0.14210000  0.54490000  0.84668000  1
  C  C79  1  0.14750000  0.64160000  0.58260000  1
  C  C80  1  0.16010000  0.73100000  0.58730000  1
  C  C81  1  0.16540000  0.61930000  0.88328000  1
  C  C82  1  0.17150000  0.22880000  0.18543000  1
  C  C83  1  0.17600000  0.89430000  0.01240000  1
  C  C84  1  0.18240000  0.12870000  0.82540000  1
  C  C85  1  0.21590000  0.96040000  0.06292000  1
  C  C86  1  0.21940000  0.38210000  0.53311000  1
  C  C87  1  0.22440000  0.59020000  0.62600000  1
  C  C88  1  0.24570000  0.81980000  0.92058000  1
  C  C89  1  0.24690000  0.26780000  0.86410000  1
  C  C90  1  0.25310000  0.76780000  0.63590000  1
  C  C91  1  0.25430000  0.31980000  0.57942000  1
  C  C92  1  0.27560000  0.09020000  0.87400000  1
  C  C93  1  0.28060000  0.88210000  0.96689000  1
  C  C94  1  0.28410000  0.46040000  0.43708000  1
  C  C95  1  0.31760000  0.62870000  0.67460000  1
  C  C96  1  0.32400000  0.39430000  0.48760000  1
  C  C97  1  0.32850000  0.72880000  0.31457000  1
  C  C98  1  0.33460000  0.11930000  0.61672000  1
  C  C99  1  0.33990000  0.23100000  0.91270000  1
  C  C100  1  0.35250000  0.14160000  0.91740000  1
  C  C101  1  0.35790000  0.04490000  0.65332000  1
  C  C102  1  0.36430000  0.81160000  0.87252000  1
  C  C103  1  0.39700000  0.26910000  0.58055000  1
  C  C104  1  0.40460000  0.57750000  0.72380000  1
  C  C105  1  0.41740000  0.48460000  0.72320000  1
  C  C106  1  0.43060000  0.19530000  0.62557000  1
  C  C107  1  0.43130000  0.87820000  0.28738000  1
  C  C108  1  0.43920000  0.50850000  0.17930000  1
  C  C109  1  0.44780000  0.80440000  0.32558000  1
  C  C110  1  0.45160000  0.41630000  0.18150000  1
  C  C111  1  0.46480000  0.34310000  0.48832000  1
  C  C112  1  0.47400000  0.04610000  0.70235000  1
  C  C113  1  0.49500000  0.44230000  0.77180000  1
  C  C114  1  0.49700000  0.03420000  0.25715000  1
  C  C115  1  0.49950000  0.71840000  0.46595000  1
  C  C116  1  0.50050000  0.28160000  0.53405000  1
  C  C117  1  0.50300000  0.96580000  0.74285000  1
  C  C118  1  0.50500000  0.55770000  0.22820000  1
  C  C119  1  0.52600000  0.95390000  0.29765000  1
  C  C120  1  0.53520000  0.65690000  0.51168000  1
  C  C121  1  0.54840000  0.58370000  0.81850000  1
  C  C122  1  0.55220000  0.19560000  0.67442000  1
  C  C123  1  0.56080000  0.49150000  0.82070000  1
  C  C124  1  0.56870000  0.12180000  0.71262000  1
  C  C125  1  0.56940000  0.80470000  0.37443000  1
  C  C126  1  0.58260000  0.51540000  0.27680000  1
  C  C127  1  0.59540000  0.42250000  0.27620000  1
  C  C128  1  0.60300000  0.73090000  0.41945000  1
  C  C129  1  0.63570000  0.18840000  0.12748000  1
  C  C130  1  0.64210000  0.95510000  0.34668000  1
  C  C131  1  0.64750000  0.85840000  0.08260000  1
  C  C132  1  0.66010000  0.76900000  0.08730000  1
  C  C133  1  0.66540000  0.88070000  0.38328000  1
  C  C134  1  0.67150000  0.27120000  0.68543000  1
  C  C135  1  0.67600000  0.60570000  0.51240000  1
  C  C136  1  0.68240000  0.37130000  0.32540000  1
  C  C137  1  0.71590000  0.53960000  0.56292000  1
  C  C138  1  0.71940000  0.11790000  0.03311000  1
  C  C139  1  0.72440000  0.90980000  0.12600000  1
  C  C140  1  0.74570000  0.68020000  0.42058000  1
  C  C141  1  0.74690000  0.23220000  0.36410000  1
  C  C142  1  0.75310000  0.73220000  0.13590000  1
  C  C143  1  0.75430000  0.18020000  0.07942000  1
  C  C144  1  0.77560000  0.40980000  0.37400000  1
  C  C145  1  0.78060000  0.61790000  0.46689000  1
  C  C146  1  0.78410000  0.03960000  0.93708000  1
  C  C147  1  0.81760000  0.87130000  0.17460000  1
  C  C148  1  0.82400000  0.10570000  0.98760000  1
  C  C149  1  0.82850000  0.77120000  0.81457000  1
  C  C150  1  0.83460000  0.38070000  0.11672000  1
  C  C151  1  0.83990000  0.26900000  0.41270000  1
  C  C152  1  0.85250000  0.35840000  0.41740000  1
  C  C153  1  0.85790000  0.45510000  0.15332000  1
  C  C154  1  0.86430000  0.68840000  0.37252000  1
  C  C155  1  0.89700000  0.23090000  0.08055000  1
  C  C156  1  0.90460000  0.92250000  0.22380000  1
  C  C157  1  0.91740000  0.01540000  0.22320000  1
  C  C158  1  0.93060000  0.30470000  0.12557000  1
  C  C159  1  0.93130000  0.62180000  0.78738000  1
  C  C160  1  0.93920000  0.99150000  0.67930000  1
  C  C161  1  0.94780000  0.69560000  0.82558000  1
  C  C162  1  0.95160000  0.08370000  0.68150000  1
  C  C163  1  0.96480000  0.15690000  0.98832000  1
  C  C164  1  0.97400000  0.45390000  0.20235000  1
  C  C165  1  0.99500000  0.05770000  0.27180000  1
  C  C166  1  0.99700000  0.46580000  0.75715000  1
  C  C167  1  0.99950000  0.78160000  0.96595000  1
  N  N168  1  0.02820000  0.12550000  0.72897000  1
  N  N169  1  0.16790000  0.21800000  0.82104000  1
  N  N170  1  0.33210000  0.71800000  0.67896000  1
  N  N171  1  0.47180000  0.62550000  0.77103000  1
  N  N172  1  0.52820000  0.37450000  0.22897000  1
  N  N173  1  0.66790000  0.28200000  0.32104000  1
  N  N174  1  0.83210000  0.78200000  0.17896000  1
  N  N175  1  0.97180000  0.87450000  0.27103000  1
  O  O176  1  0.01360000  0.67571000  0.38796000  1
  O  O177  1  0.03740000  0.39193000  0.77925000  1
  O  O178  1  0.06590000  0.51846000  0.29593000  1
  O  O179  1  0.13970000  0.95960000  0.10909000  1
  O  O180  1  0.14990000  0.16086000  0.15285000  1
  O  O181  1  0.16820000  0.51478000  0.44263000  1
  O  O182  1  0.19190000  0.29217000  0.68084000  1
  O  O183  1  0.21470000  0.73878000  0.27325000  1
  O  O184  1  0.28530000  0.23878000  0.22675000  1
  O  O185  1  0.30810000  0.79217000  0.81916000  1
  O  O186  1  0.33180000  0.01478000  0.05737000  1
  O  O187  1  0.35010000  0.66086000  0.34715000  1
  O  O188  1  0.36030000  0.45960000  0.39091000  1
  O  O189  1  0.43410000  0.01846000  0.20407000  1
  O  O190  1  0.46260000  0.89193000  0.72075000  1
  O  O191  1  0.48640000  0.17571000  0.11204000  1
  O  O192  1  0.51360000  0.82429000  0.88796000  1
  O  O193  1  0.53740000  0.10807000  0.27925000  1
  O  O194  1  0.56590000  0.98154000  0.79593000  1
  O  O195  1  0.63970000  0.54040000  0.60909000  1
  O  O196  1  0.64990000  0.33914000  0.65285000  1
  O  O197  1  0.66820000  0.98522000  0.94263000  1
  O  O198  1  0.69190000  0.20783000  0.18084000  1
  O  O199  1  0.71470000  0.76122000  0.77325000  1
  O  O200  1  0.78530000  0.26122000  0.72675000  1
  O  O201  1  0.80810000  0.70783000  0.31916000  1
  O  O202  1  0.83180000  0.48522000  0.55737000  1
  O  O203  1  0.85010000  0.83914000  0.84715000  1
  O  O204  1  0.86030000  0.04040000  0.89091000  1
  O  O205  1  0.93410000  0.48154000  0.70407000  1
  O  O206  1  0.96260000  0.60807000  0.22075000  1
  O  O207  1  0.98640000  0.32429000  0.61204000  1
