# generated using pymatgen
data_ZnH15C17(NO2)2
_symmetry_space_group_name_H-M   'P 1'
_cell_length_a   8.47300000
_cell_length_b   10.15400000
_cell_length_c   13.39700000
_cell_angle_alpha   68.21000000
_cell_angle_beta   78.64000000
_cell_angle_gamma   77.46000000
_symmetry_Int_Tables_number   1
_chemical_formula_structural   ZnH15C17(NO2)2
_chemical_formula_sum   'Zn2 H30 C34 N4 O8'
_cell_volume   1036.07736290
_cell_formula_units_Z   2
loop_
 _symmetry_equiv_pos_site_id
 _symmetry_equiv_pos_as_xyz
  1  'x, y, z'
loop_
 _atom_site_type_symbol
 _atom_site_label
 _atom_site_symmetry_multiplicity
 _atom_site_fract_x
 _atom_site_fract_y
 _atom_site_fract_z
 _atom_site_occupancy
  Zn  Zn0  1  0.05663000  0.56485000  0.84178000  1
  Zn  Zn1  1  0.94337000  0.43515000  0.15822000  1
  H  H2  1  0.07040000  0.18590000  0.84280000  1
  H  H3  1  0.07640000  0.96000000  0.83670000  1
  H  H4  1  0.19300000  0.37390000  0.33060000  1
  H  H5  1  0.24770000  0.46740000  0.48110000  1
  H  H6  1  0.25520000  0.25230000  0.08250000  1
  H  H7  1  0.30770000  0.71120000  0.12760000  1
  H  H8  1  0.34450000  0.81180000  0.24980000  1
  H  H9  1  0.36120000  0.81360000  0.88550000  1
  H  H10  1  0.40200000  0.95000000  0.78910000  1
  H  H11  1  0.41370000  0.67860000  0.02700000  1
  H  H12  1  0.43310000  0.91870000  0.26960000  1
  H  H13  1  0.46150000  0.22910000  0.32370000  1
  H  H14  1  0.46580000  0.45770000  0.34890000  1
  H  H15  1  0.46750000  0.22450000  0.74380000  1
  H  H16  1  0.49350000  0.64850000  0.13100000  1
  H  H17  1  0.50650000  0.35150000  0.86900000  1
  H  H18  1  0.53250000  0.77550000  0.25620000  1
  H  H19  1  0.53420000  0.54230000  0.65110000  1
  H  H20  1  0.53850000  0.77090000  0.67630000  1
  H  H21  1  0.56690000  0.08130000  0.73040000  1
  H  H22  1  0.58630000  0.32140000  0.97300000  1
  H  H23  1  0.59800000  0.05000000  0.21090000  1
  H  H24  1  0.63880000  0.18640000  0.11450000  1
  H  H25  1  0.65550000  0.18820000  0.75020000  1
  H  H26  1  0.69230000  0.28880000  0.87240000  1
  H  H27  1  0.74480000  0.74770000  0.91750000  1
  H  H28  1  0.75230000  0.53260000  0.51890000  1
  H  H29  1  0.80700000  0.62610000  0.66940000  1
  H  H30  1  0.92360000  0.04000000  0.16330000  1
  H  H31  1  0.92960000  0.81410000  0.15720000  1
  C  C32  1  0.00610000  0.86516000  0.99596000  1
  C  C33  1  0.01350000  0.71804000  0.99246000  1
  C  C34  1  0.04180000  0.11140000  0.90555000  1
  C  C35  1  0.04630000  0.97632000  0.90227000  1
  C  C36  1  0.22780000  0.51160000  0.66656000  1
  C  C37  1  0.23850000  0.33210000  0.27820000  1
  C  C38  1  0.27350000  0.26620000  0.14380000  1
  C  C39  1  0.34910000  0.48070000  0.48900000  1
  C  C40  1  0.36850000  0.50650000  0.57965000  1
  C  C41  1  0.38720000  0.25220000  0.27480000  1
  C  C42  1  0.41350000  0.71130000  0.08570000  1
  C  C43  1  0.44340000  0.87380000  0.85040000  1
  C  C44  1  0.44350000  0.85140000  0.23290000  1
  C  C45  1  0.45440000  0.86270000  0.04040000  1
  C  C46  1  0.47590000  0.92710000  0.11222000  1
  C  C47  1  0.47700000  0.93740000  0.92895000  1
  C  C48  1  0.48010000  0.47470000  0.40989000  1
  C  C49  1  0.51990000  0.52530000  0.59011000  1
  C  C50  1  0.52300000  0.06260000  0.07105000  1
  C  C51  1  0.52410000  0.07290000  0.88778000  1
  C  C52  1  0.54560000  0.13730000  0.95960000  1
  C  C53  1  0.55650000  0.14860000  0.76710000  1
  C  C54  1  0.55660000  0.12620000  0.14960000  1
  C  C55  1  0.58650000  0.28870000  0.91430000  1
  C  C56  1  0.61280000  0.74780000  0.72520000  1
  C  C57  1  0.63150000  0.49350000  0.42035000  1
  C  C58  1  0.65090000  0.51930000  0.51100000  1
  C  C59  1  0.72650000  0.73380000  0.85620000  1
  C  C60  1  0.76150000  0.66790000  0.72180000  1
  C  C61  1  0.77220000  0.48840000  0.33344000  1
  C  C62  1  0.95370000  0.02368000  0.09773000  1
  C  C63  1  0.95820000  0.88860000  0.09445000  1
  C  C64  1  0.98650000  0.28196000  0.00754000  1
  C  C65  1  0.99390000  0.13484000  0.00404000  1
  N  N66  1  0.16570000  0.34247000  0.19489000  1
  N  N67  1  0.40830000  0.21200000  0.18763000  1
  N  N68  1  0.59170000  0.78800000  0.81237000  1
  N  N69  1  0.83430000  0.65753000  0.80511000  1
  O  O70  1  0.07341000  0.36352000  0.93383000  1
  O  O71  1  0.10287000  0.68771000  0.91435000  1
  O  O72  1  0.10400000  0.46161000  0.67306000  1
  O  O73  1  0.24455000  0.57106000  0.73216000  1
  O  O74  1  0.75545000  0.42894000  0.26784000  1
  O  O75  1  0.89600000  0.53839000  0.32694000  1
  O  O76  1  0.89713000  0.31229000  0.08565000  1
  O  O77  1  0.92659000  0.63648000  0.06617000  1
