# generated using pymatgen
data_CaH8Pb(C8O5)2
_symmetry_space_group_name_H-M   'P 1'
_cell_length_a   9.40920000
_cell_length_b   15.65630000
_cell_length_c   15.65628174
_cell_angle_alpha   84.81940283
_cell_angle_beta   72.51291211
_cell_angle_gamma   72.51290000
_symmetry_Int_Tables_number   1
_chemical_formula_structural   CaH8Pb(C8O5)2
_chemical_formula_sum   'Ca4 H32 Pb4 C64 O40'
_cell_volume   2098.12389702
_cell_formula_units_Z   4
loop_
 _symmetry_equiv_pos_site_id
 _symmetry_equiv_pos_as_xyz
  1  'x, y, z'
loop_
 _atom_site_type_symbol
 _atom_site_label
 _atom_site_symmetry_multiplicity
 _atom_site_fract_x
 _atom_site_fract_y
 _atom_site_fract_z
 _atom_site_occupancy
  Ca  Ca0  1  0.51690000  0.85810000  0.35810000  1
  Ca  Ca1  1  0.62500000  0.64190000  0.85810000  1
  Ca  Ca2  1  0.73310000  0.14190000  0.64190000  1
  Ca  Ca3  1  0.12500000  0.35810000  0.14190000  1
  H  H4  1  0.93350000  0.77500000  0.05300000  1
  H  H5  1  0.51810000  0.20780000  0.45960000  1
  H  H6  1  0.97590000  0.29220000  0.95960000  1
  H  H7  1  0.82440000  0.21400000  0.09100000  1
  H  H8  1  0.28840000  0.28600000  0.59100000  1
  H  H9  1  0.08460000  0.09100000  0.78600000  1
  H  H10  1  0.12060000  0.59100000  0.71400000  1
  H  H11  1  0.02230000  0.45960000  0.79220000  1
  H  H12  1  0.06450000  0.95960000  0.70780000  1
  H  H13  1  0.48850000  0.55300000  0.27500000  1
  H  H14  1  0.18550000  0.79220000  0.54040000  1
  H  H15  1  0.42560000  0.40900000  0.28600000  1
  H  H16  1  0.76150000  0.22500000  0.94700000  1
  H  H17  1  0.23650000  0.27500000  0.44700000  1
  H  H18  1  0.41390000  0.80150000  0.19790000  1
  H  H19  1  0.38820000  0.19790000  0.19850000  1
  H  H20  1  0.78460000  0.80210000  0.80150000  1
  H  H21  1  0.16540000  0.71400000  0.40900000  1
  H  H22  1  0.83610000  0.30210000  0.69850000  1
  H  H23  1  0.95850000  0.72500000  0.55300000  1
  H  H24  1  0.27410000  0.54040000  0.20780000  1
  H  H25  1  0.22770000  0.70780000  0.04040000  1
  H  H26  1  0.01350000  0.05300000  0.22500000  1
  H  H27  1  0.41330000  0.19850000  0.80210000  1
  H  H28  1  0.96160000  0.90900000  0.21400000  1
  H  H29  1  0.86180000  0.30150000  0.30210000  1
  H  H30  1  0.46540000  0.69850000  0.69790000  1
  H  H31  1  0.83670000  0.69790000  0.30150000  1
  H  H32  1  0.29150000  0.94700000  0.77500000  1
  H  H33  1  0.31650000  0.44700000  0.72500000  1
  H  H34  1  0.12940000  0.78600000  0.90900000  1
  H  H35  1  0.73190000  0.04040000  0.29220000  1
  Pb  Pb36  1  0.82100000  0.55400000  0.05400000  1
  Pb  Pb37  1  0.12500000  0.05400000  0.44600000  1
  Pb  Pb38  1  0.42900000  0.44600000  0.94600000  1
  Pb  Pb39  1  0.62500000  0.94600000  0.55400000  1
  C  C40  1  0.80271000  0.12377000  0.19261000  1
  C  C41  1  0.55185000  0.24692000  0.41528000  1
  C  C42  1  0.04877000  0.25308000  0.91528000  1
  C  C43  1  0.33980000  0.75442000  0.61270000  1
  C  C44  1  0.69815000  0.08472000  0.25308000  1
  C  C45  1  0.07550000  0.81062000  0.86738000  1
  C  C46  1  0.65333000  0.36394000  0.28258000  1
  C  C47  1  0.11909000  0.87623000  0.80739000  1
  C  C48  1  0.11388000  0.13262000  0.81062000  1
  C  C49  1  0.71419000  0.42265000  0.20645000  1
  C  C50  1  0.75350000  0.18938000  0.13262000  1
  C  C51  1  0.00468000  0.19261000  0.87623000  1
  C  C52  1  0.17648000  0.37623000  0.69261000  1
  C  C53  1  0.17450000  0.63262000  0.68938000  1
  C  C54  1  0.90671000  0.70645000  0.92265000  1
  C  C55  1  0.19288000  0.31062000  0.63262000  1
  C  C56  1  0.44729000  0.30739000  0.37623000  1
  C  C57  1  0.95015000  0.78258000  0.86394000  1
  C  C58  1  0.49650000  0.36738000  0.31062000  1
  C  C59  1  0.21405000  0.75308000  0.58472000  1
  C  C60  1  0.54308000  0.11270000  0.25442000  1
  C  C61  1  0.03287000  0.41528000  0.75308000  1
  C  C62  1  0.03595000  0.91528000  0.74692000  1
  C  C63  1  0.13091000  0.69261000  0.62377000  1
  C  C64  1  0.42793000  0.07404000  0.32050000  1
  C  C65  1  0.59667000  0.21742000  0.13606000  1
  C  C66  1  0.06409000  0.28258000  0.63606000  1
  C  C67  1  0.49273000  0.17904000  0.19658000  1
  C  C68  1  0.86835000  0.82096000  0.80342000  1
  C  C69  1  0.90578000  0.38730000  0.75442000  1
  C  C70  1  0.07936000  0.20645000  0.57735000  1
  C  C71  1  0.91020000  0.88730000  0.74558000  1
  C  C72  1  0.92177000  0.32096000  0.69658000  1
  C  C73  1  0.53581000  0.29355000  0.07735000  1
  C  C74  1  0.75197000  0.42596000  0.82050000  1
  C  C75  1  0.49803000  0.67950000  0.07404000  1
  C  C76  1  0.24532000  0.62377000  0.30739000  1
  C  C77  1  0.32823000  0.80342000  0.17904000  1
  C  C78  1  0.13612000  0.68938000  0.36738000  1
  C  C79  1  0.82247000  0.92596000  0.67950000  1
  C  C80  1  0.17064000  0.92265000  0.29355000  1
  C  C81  1  0.34422000  0.74558000  0.11270000  1
  C  C82  1  0.20123000  0.58472000  0.24692000  1
  C  C83  1  0.18591000  0.86394000  0.21742000  1
  C  C84  1  0.98273000  0.71742000  0.36394000  1
  C  C85  1  0.21713000  0.74692000  0.08472000  1
  C  C86  1  0.04750000  0.61270000  0.24558000  1
  C  C87  1  0.86316000  0.79355000  0.42265000  1
  C  C88  1  0.82207000  0.17950000  0.42596000  1
  C  C89  1  0.05712000  0.86738000  0.18938000  1
  C  C90  1  0.93931000  0.67904000  0.30342000  1
  C  C91  1  0.07352000  0.80739000  0.12377000  1
  C  C92  1  0.99843000  0.57404000  0.17950000  1
  C  C93  1  0.25157000  0.32050000  0.92596000  1
  C  C94  1  0.34329000  0.57735000  0.79355000  1
  C  C95  1  0.31069000  0.19658000  0.82096000  1
  C  C96  1  0.70692000  0.24558000  0.38730000  1
  C  C97  1  0.38684000  0.07735000  0.70645000  1
  C  C98  1  0.20250000  0.25442000  0.88730000  1
  C  C99  1  0.75727000  0.30342000  0.32096000  1
  C  C100  1  0.38165000  0.69658000  0.67904000  1
  C  C101  1  0.26727000  0.13606000  0.78258000  1
  C  C102  1  0.29985000  0.63606000  0.71742000  1
  C  C103  1  0.42753000  0.82050000  0.57404000  1
  O  O104  1  0.30599000  0.39887000  0.69127000  1
  O  O105  1  0.95615000  0.68301000  0.98951000  1
  O  O106  1  0.39308000  0.87102000  0.51094000  1
  O  O107  1  0.47496000  0.01094000  0.37102000  1
  O  O108  1  0.62133000  0.48951000  0.18301000  1
  O  O109  1  0.85387000  0.19127000  0.89887000  1
  O  O110  1  0.82033000  0.66928000  0.90162000  1
  O  O111  1  0.60635000  0.67672000  0.10722000  1
  O  O112  1  0.19566000  0.18301000  0.51049000  1
  O  O113  1  0.39613000  0.60113000  0.30873000  1
  O  O114  1  0.29514000  0.30873000  0.39887000  1
  O  O115  1  0.62867000  0.31699000  0.01049000  1
  O  O116  1  0.28643000  0.10722000  0.32328000  1
  O  O117  1  0.27805000  0.90162000  0.33072000  1
  O  O118  1  0.73590000  0.48906000  0.87102000  1
  O  O119  1  0.00274000  0.69127000  0.60113000  1
  O  O120  1  0.97195000  0.16928000  0.59838000  1
  O  O121  1  0.51410000  0.62898000  0.01094000  1
  O  O122  1  0.39123000  0.33072000  0.09838000  1
  O  O123  1  0.85692000  0.98906000  0.62898000  1
  O  O124  1  0.64365000  0.39278000  0.82328000  1
  O  O125  1  0.71693000  0.89278000  0.67672000  1
  O  O126  1  0.88916000  0.81699000  0.48951000  1
  O  O127  1  0.05434000  0.98951000  0.31699000  1
  O  O128  1  0.96357000  0.17672000  0.39278000  1
  O  O129  1  0.39029000  0.32328000  0.89278000  1
  O  O130  1  0.77504000  0.12898000  0.48906000  1
  O  O131  1  0.42967000  0.59838000  0.83072000  1
  O  O132  1  0.09598000  0.51094000  0.12898000  1
  O  O133  1  0.51039000  0.09838000  0.66928000  1
  O  O134  1  0.95486000  0.10113000  0.19127000  1
  O  O135  1  0.15402000  0.37102000  0.98906000  1
  O  O136  1  0.73961000  0.83072000  0.40162000  1
  O  O137  1  0.53307000  0.82328000  0.60722000  1
  O  O138  1  0.29385000  0.51049000  0.81699000  1
  O  O139  1  0.24726000  0.89887000  0.80873000  1
  O  O140  1  0.94401000  0.80873000  0.10113000  1
  O  O141  1  0.36084000  0.01049000  0.68301000  1
  O  O142  1  0.85971000  0.60722000  0.17672000  1
  O  O143  1  0.85877000  0.40162000  0.16928000  1
