# generated using pymatgen
data_Er3H40(C4O)16
_symmetry_space_group_name_H-M   'P 1'
_cell_length_a   16.09040000
_cell_length_b   17.29494779
_cell_length_c   25.88220000
_cell_angle_alpha   90.00708174
_cell_angle_beta   90.00000000
_cell_angle_gamma   117.72163314
_symmetry_Int_Tables_number   1
_chemical_formula_structural   Er3H40(C4O)16
_chemical_formula_sum   'Er6 H80 C128 O32'
_cell_volume   6375.84194483
_cell_formula_units_Z   2
loop_
 _symmetry_equiv_pos_site_id
 _symmetry_equiv_pos_as_xyz
  1  'x, y, z'
loop_
 _atom_site_type_symbol
 _atom_site_label
 _atom_site_symmetry_multiplicity
 _atom_site_fract_x
 _atom_site_fract_y
 _atom_site_fract_z
 _atom_site_occupancy
  C  C0  1  0.86390000  0.88200000  0.45220000  1
  C  C1  1  0.01810000  0.88200000  0.95220000  1
  C  C2  1  0.86540000  0.87380000  0.04680000  1
  C  C3  1  0.00840000  0.87380000  0.54680000  1
  C  C4  1  0.76060000  0.86500000  0.84880000  1
  C  C5  1  0.10440000  0.86500000  0.34880000  1
  C  C6  1  0.77970000  0.85780000  0.65520000  1
  C  C7  1  0.07810000  0.85780000  0.15520000  1
  C  C8  1  0.78470000  0.79340000  0.43660000  1
  C  C9  1  0.00870000  0.79340000  0.93660000  1
  C  C10  1  0.77900000  0.78800000  0.05890000  1
  C  C11  1  0.00900000  0.78800000  0.55890000  1
  C  C12  1  0.68770000  0.77000000  0.85590000  1
  C  C13  1  0.08230000  0.77000000  0.35590000  1
  C  C14  1  0.70110000  0.76640000  0.64490000  1
  C  C15  1  0.06530000  0.76640000  0.14490000  1
  C  C16  1  0.70590000  0.75580000  0.02420000  1
  C  C17  1  0.04990000  0.75580000  0.52420000  1
  C  C18  1  0.70090000  0.75440000  0.46290000  1
  C  C19  1  0.05350000  0.75440000  0.96290000  1
  C  C20  1  0.79750000  0.75060000  0.39500000  1
  C  C21  1  0.95310000  0.75060000  0.89500000  1
  C  C22  1  0.77200000  0.74180000  0.10350000  1
  C  C23  1  0.96980000  0.74180000  0.60350000  1
  C  C24  1  0.60770000  0.73820000  0.82600000  1
  C  C25  1  0.13050000  0.73820000  0.32600000  1
  C  C26  1  0.71080000  0.72640000  0.60110000  1
  C  C27  1  0.01560000  0.72640000  0.10110000  1
  C  C28  1  0.62360000  0.72260000  0.67590000  1
  C  C29  1  0.09900000  0.72260000  0.17590000  1
  C  C30  1  0.70240000  0.71880000  0.89160000  1
  C  C31  1  0.01640000  0.71880000  0.39160000  1
  C  C32  1  0.62460000  0.67520000  0.03490000  1
  C  C33  1  0.05060000  0.67520000  0.53490000  1
  C  C34  1  0.63090000  0.67120000  0.44550000  1
  C  C35  1  0.04030000  0.67120000  0.94550000  1
  C  C36  1  0.72620000  0.66740000  0.37850000  1
  C  C37  1  0.94120000  0.66740000  0.87850000  1
  C  C38  1  0.68970000  0.66120000  0.11300000  1
  C  C39  1  0.97150000  0.66120000  0.61300000  1
  C  C40  1  0.53760000  0.64960000  0.83140000  1
  C  C41  1  0.11200000  0.64960000  0.33140000  1
  C  C42  1  0.63930000  0.64040000  0.58940000  1
  C  C43  1  0.00110000  0.64040000  0.08940000  1
  C  C44  1  0.55290000  0.63660000  0.66360000  1
  C  C45  1  0.08370000  0.63660000  0.16360000  1
  C  C46  1  0.63160000  0.63040000  0.89680000  1
  C  C47  1  0.99880000  0.63040000  0.39680000  1
  C  C48  1  0.61740000  0.62920000  0.07880000  1
  C  C49  1  0.01180000  0.62920000  0.57880000  1
  C  C50  1  0.64330000  0.62880000  0.40440000  1
  C  C51  1  0.98550000  0.62880000  0.90440000  1
  C  C52  1  0.55330000  0.59980000  0.86690000  1
  C  C53  1  0.04650000  0.59980000  0.36690000  1
  C  C54  1  0.56300000  0.59760000  0.62020000  1
  C  C55  1  0.03460000  0.59760000  0.12020000  1
  C  C56  1  0.52940000  0.54620000  0.08570000  1
  C  C57  1  0.01680000  0.54620000  0.58570000  1
  C  C58  1  0.57310000  0.54220000  0.38440000  1
  C  C59  1  0.96910000  0.54220000  0.88440000  1
  C  C60  1  0.47630000  0.50880000  0.86960000  1
  C  C61  1  0.03250000  0.50880000  0.36960000  1
  C  C62  1  0.49260000  0.50840000  0.60440000  1
  C  C63  1  0.01580000  0.50840000  0.10440000  1
  C  C64  1  0.49040000  0.49680000  0.39550000  1
  C  C65  1  0.00640000  0.49680000  0.89550000  1
  C  C66  1  0.52600000  0.48780000  0.11250000  1
  C  C67  1  0.96180000  0.48780000  0.61250000  1
  C  C68  1  0.43610000  0.44360000  0.62900000  1
  C  C69  1  0.00750000  0.44360000  0.12900000  1
  C  C70  1  0.45050000  0.43980000  0.88880000  1
  C  C71  1  0.98930000  0.43980000  0.38880000  1
  C  C72  1  0.42830000  0.40340000  0.38340000  1
  C  C73  1  0.97510000  0.40340000  0.88340000  1
  C  C74  1  0.45150000  0.39720000  0.12190000  1
  C  C75  1  0.94570000  0.39720000  0.62190000  1
  C  C76  1  0.43350000  0.37120000  0.33630000  1
  C  C77  1  0.93770000  0.37120000  0.83630000  1
  C  C78  1  0.36570000  0.36040000  0.60570000  1
  C  C79  1  0.99470000  0.36040000  0.10570000  1
  C  C80  1  0.36610000  0.35840000  0.90410000  1
  C  C81  1  0.99230000  0.35840000  0.40410000  1
  C  C82  1  0.44920000  0.35740000  0.16750000  1
  C  C83  1  0.90820000  0.35740000  0.66750000  1
  C  C84  1  0.38540000  0.35320000  0.08540000  1
  C  C85  1  0.96780000  0.35320000  0.58540000  1
  C  C86  1  0.36550000  0.34780000  0.41810000  1
  C  C87  1  0.98230000  0.34780000  0.91810000  1
  C  C88  1  0.38430000  0.33140000  0.56060000  1
  C  C89  1  0.94710000  0.33140000  0.06060000  1
  C  C90  1  0.28570000  0.32260000  0.87590000  1
  C  C91  1  0.03690000  0.32260000  0.37590000  1
  C  C92  1  0.37130000  0.31880000  0.94840000  1
  C  C93  1  0.94750000  0.31880000  0.44840000  1
  C  C94  1  0.28300000  0.31500000  0.63110000  1
  C  C95  1  0.03200000  0.31500000  0.13110000  1
  C  C96  1  0.37530000  0.28180000  0.32350000  1
  C  C97  1  0.90650000  0.28180000  0.82350000  1
  C  C98  1  0.37750000  0.27020000  0.17600000  1
  C  C99  1  0.89270000  0.27020000  0.67600000  1
  C  C100  1  0.31270000  0.26600000  0.09270000  1
  C  C101  1  0.95330000  0.26600000  0.59270000  1
  C  C102  1  0.30570000  0.25800000  0.40700000  1
  C  C103  1  0.95230000  0.25800000  0.90700000  1
  C  C104  1  0.31590000  0.25120000  0.53860000  1
  C  C105  1  0.93530000  0.25120000  0.03860000  1
  C  C106  1  0.20730000  0.24400000  0.89290000  1
  C  C107  1  0.03670000  0.24400000  0.39290000  1
  C  C108  1  0.29480000  0.24040000  0.96700000  1
  C  C109  1  0.94560000  0.24040000  0.46700000  1
  C  C110  1  0.21270000  0.23460000  0.61050000  1
  C  C111  1  0.02190000  0.23460000  0.11050000  1
  C  C112  1  0.31210000  0.22660000  0.35910000  1
  C  C113  1  0.91450000  0.22660000  0.85910000  1
  C  C114  1  0.31070000  0.22600000  0.13900000  1
  C  C115  1  0.91530000  0.22600000  0.63900000  1
  C  C116  1  0.23260000  0.20640000  0.56460000  1
  C  C117  1  0.97380000  0.20640000  0.06460000  1
  C  C118  1  0.21400000  0.20520000  0.93800000  1
  C  C119  1  0.99120000  0.20520000  0.43800000  1
  C  C120  1  0.23670000  0.13320000  0.15130000  1
  C  C121  1  0.89650000  0.13320000  0.65130000  1
  C  C122  1  0.24880000  0.13080000  0.34640000  1
  C  C123  1  0.88200000  0.13080000  0.84640000  1
  C  C124  1  0.13030000  0.12140000  0.95640000  1
  C  C125  1  0.99110000  0.12140000  0.45640000  1
  C  C126  1  0.15820000  0.12080000  0.54220000  1
  C  C127  1  0.96260000  0.12080000  0.04220000  1
  Er  Er128  1  0.07858000  0.00200000  0.06282000  1
  Er  Er129  1  0.92342000  0.00200000  0.56282000  1
  Er  Er130  1  0.21587000  0.00180000  0.24971000  1
  Er  Er131  1  0.78593000  0.00180000  0.74971000  1
  Er  Er132  1  0.08978000  0.00110000  0.43719000  1
  Er  Er133  1  0.91132000  0.00110000  0.93719000  1
  H  H134  1  0.70950000  0.78640000  0.99400000  1
  H  H135  1  0.07690000  0.78640000  0.49400000  1
  H  H136  1  0.69010000  0.78160000  0.49120000  1
  H  H137  1  0.09150000  0.78160000  0.99120000  1
  H  H138  1  0.85420000  0.77660000  0.37720000  1
  H  H139  1  0.92240000  0.77660000  0.87720000  1
  H  H140  1  0.59950000  0.77440000  0.80230000  1
  H  H141  1  0.17490000  0.77440000  0.30230000  1
  H  H142  1  0.82080000  0.76300000  0.12730000  1
  H  H143  1  0.94220000  0.76300000  0.62730000  1
  H  H144  1  0.76260000  0.75460000  0.57960000  1
  H  H145  1  0.99200000  0.75460000  0.07960000  1
  H  H146  1  0.61710000  0.74980000  0.70550000  1
  H  H147  1  0.13270000  0.74980000  0.20550000  1
  H  H148  1  0.75660000  0.74100000  0.91170000  1
  H  H149  1  0.98440000  0.74100000  0.41170000  1
  H  H150  1  0.57540000  0.65360000  0.01130000  1
  H  H151  1  0.07820000  0.65360000  0.51130000  1
  H  H152  1  0.57400000  0.64460000  0.46320000  1
  H  H153  1  0.07060000  0.64460000  0.96320000  1
  H  H154  1  0.73630000  0.63980000  0.35020000  1
  H  H155  1  0.90350000  0.63980000  0.85020000  1
  H  H156  1  0.68540000  0.63000000  0.14310000  1
  H  H157  1  0.94460000  0.63000000  0.64310000  1
  H  H158  1  0.48330000  0.62660000  0.81150000  1
  H  H159  1  0.14330000  0.62660000  0.31150000  1
  H  H160  1  0.64500000  0.61280000  0.55970000  1
  H  H161  1  0.96780000  0.61280000  0.05970000  1
  H  H162  1  0.50090000  0.60780000  0.68490000  1
  H  H163  1  0.10690000  0.60780000  0.18490000  1
  H  H164  1  0.63890000  0.59380000  0.92070000  1
  H  H165  1  0.95490000  0.59380000  0.42070000  1
  H  H166  1  0.47530000  0.53920000  0.06890000  1
  H  H167  1  0.06390000  0.53920000  0.56890000  1
  H  H168  1  0.46270000  0.52480000  0.41410000  1
  H  H169  1  0.06210000  0.52480000  0.91410000  1
  H  H170  1  0.59640000  0.51860000  0.35930000  1
  H  H171  1  0.92220000  0.51860000  0.85930000  1
  H  H172  1  0.42940000  0.50460000  0.84700000  1
  H  H173  1  0.07520000  0.50460000  0.34700000  1
  H  H174  1  0.58090000  0.50240000  0.13090000  1
  H  H175  1  0.92150000  0.50240000  0.63090000  1
  H  H176  1  0.49030000  0.49920000  0.56890000  1
  H  H177  1  0.00890000  0.49920000  0.06890000  1
  H  H178  1  0.43810000  0.44760000  0.66490000  1
  H  H179  1  0.00950000  0.44760000  0.16490000  1
  H  H180  1  0.50320000  0.43380000  0.89780000  1
  H  H181  1  0.93060000  0.43380000  0.39780000  1
  H  H182  1  0.47590000  0.40820000  0.31200000  1
  H  H183  1  0.93230000  0.40820000  0.81200000  1
  H  H184  1  0.49380000  0.38660000  0.19280000  1
  H  H185  1  0.89280000  0.38660000  0.69280000  1
  H  H186  1  0.38770000  0.38100000  0.05420000  1
  H  H187  1  0.99330000  0.38100000  0.55420000  1
  H  H188  1  0.36140000  0.36940000  0.45040000  1
  H  H189  1  0.00800000  0.36940000  0.95040000  1
  H  H190  1  0.44150000  0.36380000  0.54410000  1
  H  H191  1  0.92230000  0.36380000  0.04410000  1
  H  H192  1  0.28150000  0.34920000  0.84550000  1
  H  H193  1  0.06770000  0.34920000  0.34550000  1
  H  H194  1  0.42680000  0.34400000  0.96740000  1
  H  H195  1  0.91720000  0.34400000  0.46740000  1
  H  H196  1  0.27210000  0.33640000  0.66190000  1
  H  H197  1  0.06430000  0.33640000  0.16190000  1
  H  H198  1  0.38010000  0.26080000  0.29120000  1
  H  H199  1  0.88070000  0.26080000  0.79120000  1
  H  H200  1  0.37600000  0.24280000  0.20710000  1
  H  H201  1  0.86680000  0.24280000  0.70710000  1
  H  H202  1  0.26840000  0.23740000  0.06720000  1
  H  H203  1  0.96900000  0.23740000  0.56720000  1
  H  H204  1  0.32750000  0.23040000  0.50770000  1
  H  H205  1  0.90290000  0.23040000  0.00770000  1
  H  H206  1  0.26340000  0.22140000  0.43160000  1
  H  H207  1  0.95800000  0.22140000  0.93160000  1
  H  H208  1  0.15220000  0.21920000  0.87370000  1
  H  H209  1  0.06700000  0.21920000  0.37370000  1
  H  H210  1  0.29950000  0.21420000  0.99750000  1
  H  H211  1  0.91470000  0.21420000  0.49750000  1
  H  H212  1  0.15570000  0.20260000  0.62730000  1
  H  H213  1  0.04690000  0.20260000  0.12730000  1
  O  O214  1  0.84490000  0.91440000  0.49020000  1
  O  O215  1  0.06950000  0.91440000  0.99020000  1
  O  O216  1  0.93670000  0.91140000  0.42600000  1
  O  O217  1  0.97470000  0.91140000  0.92600000  1
  O  O218  1  0.86010000  0.90680000  0.00520000  1
  O  O219  1  0.04670000  0.90680000  0.50520000  1
  O  O220  1  0.73990000  0.90480000  0.81560000  1
  O  O221  1  0.16490000  0.90480000  0.31560000  1
  O  O222  1  0.92660000  0.89660000  0.08080000  1
  O  O223  1  0.97000000  0.89660000  0.58080000  1
  O  O224  1  0.77160000  0.89420000  0.69460000  1
  O  O225  1  0.12260000  0.89420000  0.19460000  1
  O  O226  1  0.84660000  0.89160000  0.62490000  1
  O  O227  1  0.04500000  0.89160000  0.12490000  1
  O  O228  1  0.83130000  0.89100000  0.87650000  1
  O  O229  1  0.05970000  0.89100000  0.37650000  1
  O  O230  1  0.24500000  0.10720000  0.19450000  1
  O  O231  1  0.86220000  0.10720000  0.69450000  1
  O  O232  1  0.25430000  0.10220000  0.30330000  1
  O  O233  1  0.84790000  0.10220000  0.80330000  1
  O  O234  1  0.17570000  0.09500000  0.50100000  1
  O  O235  1  0.91930000  0.09500000  0.00100000  1
  O  O236  1  0.06090000  0.09480000  0.92770000  1
  O  O237  1  0.03390000  0.09480000  0.42770000  1
  O  O238  1  0.17680000  0.09340000  0.11790000  1
  O  O239  1  0.91660000  0.09340000  0.61790000  1
  O  O240  1  0.14370000  0.09200000  0.99750000  1
  O  O241  1  0.94830000  0.09200000  0.49750000  1
  O  O242  1  0.19480000  0.08720000  0.38150000  1
  O  O243  1  0.89240000  0.08720000  0.88150000  1
  O  O244  1  0.08500000  0.08360000  0.56770000  1
  O  O245  1  0.99860000  0.08360000  0.06770000  1
