# generated using pymatgen
data_Co12H66C90N15O43
_symmetry_space_group_name_H-M   'P 1'
_cell_length_a   16.36930000
_cell_length_b   24.80300000
_cell_length_c   24.80300000
_cell_angle_alpha   120.00000000
_cell_angle_beta   90.00000000
_cell_angle_gamma   90.00000000
_symmetry_Int_Tables_number   1
_chemical_formula_structural   Co12H66C90N15O43
_chemical_formula_sum   'Co24 H132 C180 N30 O86'
_cell_volume   8721.05782968
_cell_formula_units_Z   2
loop_
 _symmetry_equiv_pos_site_id
 _symmetry_equiv_pos_as_xyz
  1  'x, y, z'
loop_
 _atom_site_type_symbol
 _atom_site_label
 _atom_site_symmetry_multiplicity
 _atom_site_fract_x
 _atom_site_fract_y
 _atom_site_fract_z
 _atom_site_occupancy
  Co  Co0  1  0.15362000  0.10763000  0.76418000  1
  Co  Co1  1  0.15362000  0.65655000  0.89237000  1
  Co  Co2  1  0.15362000  0.23582000  0.34345000  1
  Co  Co3  1  0.25000000  0.08008000  0.87851000  1
  Co  Co4  1  0.25000000  0.60080000  0.35898000  1
  Co  Co5  1  0.25000000  0.75818000  0.39920000  1
  Co  Co6  1  0.25000000  0.64102000  0.24182000  1
  Co  Co7  1  0.25000000  0.79843000  0.91992000  1
  Co  Co8  1  0.25000000  0.12149000  0.20157000  1
  Co  Co9  1  0.34638000  0.10763000  0.76418000  1
  Co  Co10  1  0.34638000  0.65655000  0.89237000  1
  Co  Co11  1  0.34638000  0.23582000  0.34345000  1
  Co  Co12  1  0.65362000  0.76418000  0.65655000  1
  Co  Co13  1  0.65362000  0.34345000  0.10763000  1
  Co  Co14  1  0.65362000  0.89237000  0.23582000  1
  Co  Co15  1  0.75000000  0.87851000  0.79843000  1
  Co  Co16  1  0.75000000  0.20157000  0.08008000  1
  Co  Co17  1  0.75000000  0.35898000  0.75818000  1
  Co  Co18  1  0.75000000  0.24182000  0.60080000  1
  Co  Co19  1  0.75000000  0.39920000  0.64102000  1
  Co  Co20  1  0.75000000  0.91992000  0.12149000  1
  Co  Co21  1  0.84638000  0.76418000  0.65655000  1
  Co  Co22  1  0.84638000  0.34345000  0.10763000  1
  Co  Co23  1  0.84638000  0.89237000  0.23582000  1
  H  H24  1  0.01450000  0.81430000  0.71480000  1
  H  H25  1  0.01450000  0.28520000  0.09950000  1
  H  H26  1  0.01450000  0.90050000  0.18570000  1
  H  H27  1  0.02340000  0.32370000  0.21680000  1
  H  H28  1  0.02340000  0.89310000  0.67630000  1
  H  H29  1  0.02340000  0.78320000  0.10690000  1
  H  H30  1  0.02460000  0.49430000  0.28650000  1
  H  H31  1  0.02460000  0.79220000  0.50570000  1
  H  H32  1  0.02460000  0.71350000  0.20780000  1
  H  H33  1  0.03490000  0.08340000  0.65800000  1
  H  H34  1  0.03490000  0.57460000  0.91660000  1
  H  H35  1  0.03490000  0.34200000  0.42540000  1
  H  H36  1  0.07040000  0.63350000  0.50560000  1
  H  H37  1  0.07040000  0.49440000  0.12790000  1
  H  H38  1  0.07040000  0.87210000  0.36650000  1
  H  H39  1  0.08030000  0.23850000  0.81120000  1
  H  H40  1  0.08030000  0.18880000  0.42730000  1
  H  H41  1  0.08030000  0.57270000  0.76150000  1
  H  H42  1  0.11550000  0.80430000  0.77150000  1
  H  H43  1  0.11550000  0.22850000  0.03280000  1
  H  H44  1  0.11550000  0.96720000  0.19570000  1
  H  H45  1  0.12010000  0.31020000  0.27550000  1
  H  H46  1  0.12010000  0.96530000  0.68980000  1
  H  H47  1  0.12010000  0.72450000  0.03470000  1
  H  H48  1  0.12590000  0.42850000  0.38590000  1
  H  H49  1  0.12590000  0.95740000  0.57150000  1
  H  H50  1  0.12590000  0.61410000  0.04260000  1
  H  H51  1  0.13160000  0.52000000  0.38450000  1
  H  H52  1  0.13160000  0.86450000  0.48000000  1
  H  H53  1  0.13160000  0.61550000  0.13550000  1
  H  H54  1  0.25000000  0.03050000  0.76570000  1
  H  H55  1  0.25000000  0.21240000  0.80290000  1
  H  H56  1  0.25000000  0.73520000  0.96950000  1
  H  H57  1  0.25000000  0.19710000  0.40950000  1
  H  H58  1  0.25000000  0.59050000  0.78760000  1
  H  H59  1  0.25000000  0.23430000  0.26480000  1
  H  H60  1  0.36840000  0.52000000  0.38450000  1
  H  H61  1  0.36840000  0.86450000  0.48000000  1
  H  H62  1  0.36840000  0.61550000  0.13550000  1
  H  H63  1  0.37410000  0.42850000  0.38590000  1
  H  H64  1  0.37410000  0.95740000  0.57150000  1
  H  H65  1  0.37410000  0.61410000  0.04260000  1
  H  H66  1  0.37990000  0.31020000  0.27550000  1
  H  H67  1  0.37990000  0.96530000  0.68980000  1
  H  H68  1  0.37990000  0.72450000  0.03470000  1
  H  H69  1  0.38450000  0.80430000  0.77150000  1
  H  H70  1  0.38450000  0.22850000  0.03280000  1
  H  H71  1  0.38450000  0.96720000  0.19570000  1
  H  H72  1  0.41970000  0.23850000  0.81120000  1
  H  H73  1  0.41970000  0.18880000  0.42730000  1
  H  H74  1  0.41970000  0.57270000  0.76150000  1
  H  H75  1  0.42960000  0.63350000  0.50560000  1
  H  H76  1  0.42960000  0.49440000  0.12790000  1
  H  H77  1  0.42960000  0.87210000  0.36650000  1
  H  H78  1  0.46510000  0.08340000  0.65800000  1
  H  H79  1  0.46510000  0.57460000  0.91660000  1
  H  H80  1  0.46510000  0.34200000  0.42540000  1
  H  H81  1  0.47540000  0.49430000  0.28650000  1
  H  H82  1  0.47540000  0.79220000  0.50570000  1
  H  H83  1  0.47540000  0.71350000  0.20780000  1
  H  H84  1  0.47660000  0.32370000  0.21680000  1
  H  H85  1  0.47660000  0.89310000  0.67630000  1
  H  H86  1  0.47660000  0.78320000  0.10690000  1
  H  H87  1  0.48550000  0.81430000  0.71480000  1
  H  H88  1  0.48550000  0.28520000  0.09950000  1
  H  H89  1  0.48550000  0.90050000  0.18570000  1
  H  H90  1  0.51450000  0.09950000  0.81430000  1
  H  H91  1  0.51450000  0.71480000  0.90050000  1
  H  H92  1  0.51450000  0.18570000  0.28520000  1
  H  H93  1  0.52340000  0.21680000  0.89310000  1
  H  H94  1  0.52340000  0.10690000  0.32370000  1
  H  H95  1  0.52340000  0.67630000  0.78320000  1
  H  H96  1  0.52460000  0.28650000  0.79220000  1
  H  H97  1  0.52460000  0.20780000  0.49430000  1
  H  H98  1  0.52460000  0.50570000  0.71350000  1
  H  H99  1  0.53490000  0.65800000  0.57460000  1
  H  H100  1  0.53490000  0.42540000  0.08340000  1
  H  H101  1  0.53490000  0.91660000  0.34200000  1
  H  H102  1  0.57040000  0.12790000  0.63350000  1
  H  H103  1  0.57040000  0.50560000  0.87210000  1
  H  H104  1  0.57040000  0.36650000  0.49440000  1
  H  H105  1  0.58030000  0.42730000  0.23850000  1
  H  H106  1  0.58030000  0.81120000  0.57270000  1
  H  H107  1  0.58030000  0.76150000  0.18880000  1
  H  H108  1  0.61550000  0.03280000  0.80430000  1
  H  H109  1  0.61550000  0.77150000  0.96720000  1
  H  H110  1  0.61550000  0.19570000  0.22850000  1
  H  H111  1  0.62010000  0.27550000  0.96530000  1
  H  H112  1  0.62010000  0.03470000  0.31020000  1
  H  H113  1  0.62010000  0.68980000  0.72450000  1
  H  H114  1  0.62590000  0.38590000  0.95740000  1
  H  H115  1  0.62590000  0.04260000  0.42850000  1
  H  H116  1  0.62590000  0.57150000  0.61410000  1
  H  H117  1  0.63160000  0.38450000  0.86450000  1
  H  H118  1  0.63160000  0.13550000  0.52000000  1
  H  H119  1  0.63160000  0.48000000  0.61550000  1
  H  H120  1  0.75000000  0.76570000  0.73520000  1
  H  H121  1  0.75000000  0.40950000  0.21240000  1
  H  H122  1  0.75000000  0.80290000  0.59050000  1
  H  H123  1  0.75000000  0.26480000  0.03050000  1
  H  H124  1  0.75000000  0.78760000  0.19710000  1
  H  H125  1  0.75000000  0.96950000  0.23430000  1
  H  H126  1  0.86840000  0.38450000  0.86450000  1
  H  H127  1  0.86840000  0.13550000  0.52000000  1
  H  H128  1  0.86840000  0.48000000  0.61550000  1
  H  H129  1  0.87410000  0.38590000  0.95740000  1
  H  H130  1  0.87410000  0.04260000  0.42850000  1
  H  H131  1  0.87410000  0.57150000  0.61410000  1
  H  H132  1  0.87990000  0.27550000  0.96530000  1
  H  H133  1  0.87990000  0.03470000  0.31020000  1
  H  H134  1  0.87990000  0.68980000  0.72450000  1
  H  H135  1  0.88450000  0.03280000  0.80430000  1
  H  H136  1  0.88450000  0.77150000  0.96720000  1
  H  H137  1  0.88450000  0.19570000  0.22850000  1
  H  H138  1  0.91970000  0.42730000  0.23850000  1
  H  H139  1  0.91970000  0.81120000  0.57270000  1
  H  H140  1  0.91970000  0.76150000  0.18880000  1
  H  H141  1  0.92960000  0.12790000  0.63350000  1
  H  H142  1  0.92960000  0.50560000  0.87210000  1
  H  H143  1  0.92960000  0.36650000  0.49440000  1
  H  H144  1  0.96510000  0.65800000  0.57460000  1
  H  H145  1  0.96510000  0.42540000  0.08340000  1
  H  H146  1  0.96510000  0.91660000  0.34200000  1
  H  H147  1  0.97540000  0.28650000  0.79220000  1
  H  H148  1  0.97540000  0.20780000  0.49430000  1
  H  H149  1  0.97540000  0.50570000  0.71350000  1
  H  H150  1  0.97660000  0.21680000  0.89310000  1
  H  H151  1  0.97660000  0.10690000  0.32370000  1
  H  H152  1  0.97660000  0.67630000  0.78320000  1
  H  H153  1  0.98550000  0.09950000  0.81430000  1
  H  H154  1  0.98550000  0.71480000  0.90050000  1
  H  H155  1  0.98550000  0.18570000  0.28520000  1
  C  C156  1  0.00790000  0.78570000  0.72830000  1
  C  C157  1  0.00790000  0.27170000  0.05740000  1
  C  C158  1  0.00790000  0.94260000  0.21430000  1
  C  C159  1  0.01350000  0.48110000  0.24490000  1
  C  C160  1  0.01350000  0.76380000  0.51890000  1
  C  C161  1  0.01350000  0.75510000  0.23620000  1
  C  C162  1  0.01410000  0.29530000  0.23020000  1
  C  C163  1  0.01410000  0.93490000  0.70470000  1
  C  C164  1  0.01410000  0.76980000  0.06510000  1
  C  C165  1  0.02210000  0.12480000  0.68560000  1
  C  C166  1  0.02210000  0.56080000  0.87520000  1
  C  C167  1  0.02210000  0.31440000  0.43920000  1
  C  C168  1  0.04100000  0.67010000  0.51890000  1
  C  C169  1  0.04100000  0.48110000  0.15120000  1
  C  C170  1  0.04100000  0.84880000  0.32990000  1
  C  C171  1  0.04860000  0.21590000  0.77570000  1
  C  C172  1  0.04860000  0.55980000  0.78410000  1
  C  C173  1  0.04860000  0.22430000  0.44020000  1
  C  C174  1  0.05530000  0.21440000  0.95210000  1
  C  C175  1  0.05530000  0.04790000  0.26230000  1
  C  C176  1  0.05530000  0.73770000  0.78560000  1
  C  C177  1  0.06020000  0.71080000  0.49660000  1
  C  C178  1  0.06020000  0.50340000  0.21420000  1
  C  C179  1  0.06020000  0.78580000  0.28920000  1
  C  C180  1  0.06780000  0.78100000  0.76270000  1
  C  C181  1  0.06780000  0.23730000  0.01830000  1
  C  C182  1  0.06780000  0.98170000  0.21900000  1
  C  C183  1  0.07200000  0.28740000  0.26620000  1
  C  C184  1  0.07200000  0.97880000  0.71260000  1
  C  C185  1  0.07200000  0.73380000  0.02120000  1
  C  C186  1  0.11720000  0.17050000  0.90480000  1
  C  C187  1  0.11720000  0.09520000  0.26570000  1
  C  C188  1  0.11720000  0.73430000  0.82950000  1
  C  C189  1  0.13260000  0.69750000  0.45330000  1
  C  C190  1  0.13260000  0.54670000  0.24420000  1
  C  C191  1  0.13260000  0.75580000  0.30250000  1
  C  C192  1  0.17600000  0.44580000  0.38550000  1
  C  C193  1  0.17600000  0.93970000  0.55420000  1
  C  C194  1  0.17600000  0.61450000  0.06030000  1
  C  C195  1  0.18030000  0.50020000  0.38360000  1
  C  C196  1  0.18030000  0.88340000  0.49980000  1
  C  C197  1  0.18030000  0.61640000  0.11660000  1
  C  C198  1  0.25000000  0.41700000  0.38670000  1
  C  C199  1  0.25000000  0.02830000  0.64560000  1
  C  C200  1  0.25000000  0.96970000  0.58300000  1
  C  C201  1  0.25000000  0.61330000  0.03030000  1
  C  C202  1  0.25000000  0.61730000  0.97170000  1
  C  C203  1  0.25000000  0.35440000  0.38270000  1
  C  C204  1  0.31970000  0.50020000  0.38360000  1
  C  C205  1  0.31970000  0.88340000  0.49980000  1
  C  C206  1  0.31970000  0.61640000  0.11660000  1
  C  C207  1  0.32400000  0.44580000  0.38550000  1
  C  C208  1  0.32400000  0.93970000  0.55420000  1
  C  C209  1  0.32400000  0.61450000  0.06030000  1
  C  C210  1  0.36740000  0.69750000  0.45330000  1
  C  C211  1  0.36740000  0.54670000  0.24420000  1
  C  C212  1  0.36740000  0.75580000  0.30250000  1
  C  C213  1  0.38280000  0.17050000  0.90480000  1
  C  C214  1  0.38280000  0.09520000  0.26570000  1
  C  C215  1  0.38280000  0.73430000  0.82950000  1
  C  C216  1  0.42800000  0.28740000  0.26620000  1
  C  C217  1  0.42800000  0.97880000  0.71260000  1
  C  C218  1  0.42800000  0.73380000  0.02120000  1
  C  C219  1  0.43220000  0.78100000  0.76270000  1
  C  C220  1  0.43220000  0.23730000  0.01830000  1
  C  C221  1  0.43220000  0.98170000  0.21900000  1
  C  C222  1  0.43980000  0.71080000  0.49660000  1
  C  C223  1  0.43980000  0.50340000  0.21420000  1
  C  C224  1  0.43980000  0.78580000  0.28920000  1
  C  C225  1  0.44470000  0.21440000  0.95210000  1
  C  C226  1  0.44470000  0.04790000  0.26230000  1
  C  C227  1  0.44470000  0.73770000  0.78560000  1
  C  C228  1  0.45140000  0.21590000  0.77570000  1
  C  C229  1  0.45140000  0.55980000  0.78410000  1
  C  C230  1  0.45140000  0.22430000  0.44020000  1
  C  C231  1  0.45900000  0.67010000  0.51890000  1
  C  C232  1  0.45900000  0.48110000  0.15120000  1
  C  C233  1  0.45900000  0.84880000  0.32990000  1
  C  C234  1  0.47790000  0.12480000  0.68560000  1
  C  C235  1  0.47790000  0.56080000  0.87520000  1
  C  C236  1  0.47790000  0.31440000  0.43920000  1
  C  C237  1  0.48590000  0.29530000  0.23020000  1
  C  C238  1  0.48590000  0.93490000  0.70470000  1
  C  C239  1  0.48590000  0.76980000  0.06510000  1
  C  C240  1  0.48650000  0.48110000  0.24490000  1
  C  C241  1  0.48650000  0.76380000  0.51890000  1
  C  C242  1  0.48650000  0.75510000  0.23620000  1
  C  C243  1  0.49210000  0.78570000  0.72830000  1
  C  C244  1  0.49210000  0.27170000  0.05740000  1
  C  C245  1  0.49210000  0.94260000  0.21430000  1
  C  C246  1  0.50790000  0.05740000  0.78570000  1
  C  C247  1  0.50790000  0.72830000  0.94260000  1
  C  C248  1  0.50790000  0.21430000  0.27170000  1
  C  C249  1  0.51350000  0.24490000  0.76380000  1
  C  C250  1  0.51350000  0.23620000  0.48110000  1
  C  C251  1  0.51350000  0.51890000  0.75510000  1
  C  C252  1  0.51410000  0.23020000  0.93490000  1
  C  C253  1  0.51410000  0.06510000  0.29530000  1
  C  C254  1  0.51410000  0.70470000  0.76980000  1
  C  C255  1  0.52210000  0.68560000  0.56080000  1
  C  C256  1  0.52210000  0.43920000  0.12480000  1
  C  C257  1  0.52210000  0.87520000  0.31440000  1
  C  C258  1  0.54100000  0.15120000  0.67010000  1
  C  C259  1  0.54100000  0.51890000  0.84880000  1
  C  C260  1  0.54100000  0.32990000  0.48110000  1
  C  C261  1  0.54860000  0.77570000  0.55980000  1
  C  C262  1  0.54860000  0.44020000  0.21590000  1
  C  C263  1  0.54860000  0.78410000  0.22430000  1
  C  C264  1  0.55530000  0.26230000  0.21440000  1
  C  C265  1  0.55530000  0.95210000  0.73770000  1
  C  C266  1  0.55530000  0.78560000  0.04790000  1
  C  C267  1  0.56020000  0.21420000  0.71080000  1
  C  C268  1  0.56020000  0.49660000  0.78580000  1
  C  C269  1  0.56020000  0.28920000  0.50340000  1
  C  C270  1  0.56780000  0.01830000  0.78100000  1
  C  C271  1  0.56780000  0.76270000  0.98170000  1
  C  C272  1  0.56780000  0.21900000  0.23730000  1
  C  C273  1  0.57200000  0.26620000  0.97880000  1
  C  C274  1  0.57200000  0.02120000  0.28740000  1
  C  C275  1  0.57200000  0.71260000  0.73380000  1
  C  C276  1  0.61720000  0.26570000  0.17050000  1
  C  C277  1  0.61720000  0.90480000  0.73430000  1
  C  C278  1  0.61720000  0.82950000  0.09520000  1
  C  C279  1  0.63260000  0.24420000  0.69750000  1
  C  C280  1  0.63260000  0.45330000  0.75580000  1
  C  C281  1  0.63260000  0.30250000  0.54670000  1
  C  C282  1  0.67600000  0.38550000  0.93970000  1
  C  C283  1  0.67600000  0.06030000  0.44580000  1
  C  C284  1  0.67600000  0.55420000  0.61450000  1
  C  C285  1  0.68030000  0.38360000  0.88340000  1
  C  C286  1  0.68030000  0.11660000  0.50020000  1
  C  C287  1  0.68030000  0.49980000  0.61640000  1
  C  C288  1  0.75000000  0.64560000  0.61730000  1
  C  C289  1  0.75000000  0.38270000  0.02830000  1
  C  C290  1  0.75000000  0.38670000  0.96970000  1
  C  C291  1  0.75000000  0.03030000  0.41700000  1
  C  C292  1  0.75000000  0.97170000  0.35440000  1
  C  C293  1  0.75000000  0.58300000  0.61330000  1
  C  C294  1  0.81970000  0.38360000  0.88340000  1
  C  C295  1  0.81970000  0.11660000  0.50020000  1
  C  C296  1  0.81970000  0.49980000  0.61640000  1
  C  C297  1  0.82400000  0.38550000  0.93970000  1
  C  C298  1  0.82400000  0.06030000  0.44580000  1
  C  C299  1  0.82400000  0.55420000  0.61450000  1
  C  C300  1  0.86740000  0.24420000  0.69750000  1
  C  C301  1  0.86740000  0.45330000  0.75580000  1
  C  C302  1  0.86740000  0.30250000  0.54670000  1
  C  C303  1  0.88280000  0.26570000  0.17050000  1
  C  C304  1  0.88280000  0.90480000  0.73430000  1
  C  C305  1  0.88280000  0.82950000  0.09520000  1
  C  C306  1  0.92800000  0.26620000  0.97880000  1
  C  C307  1  0.92800000  0.02120000  0.28740000  1
  C  C308  1  0.92800000  0.71260000  0.73380000  1
  C  C309  1  0.93220000  0.01830000  0.78100000  1
  C  C310  1  0.93220000  0.76270000  0.98170000  1
  C  C311  1  0.93220000  0.21900000  0.23730000  1
  C  C312  1  0.93980000  0.21420000  0.71080000  1
  C  C313  1  0.93980000  0.49660000  0.78580000  1
  C  C314  1  0.93980000  0.28920000  0.50340000  1
  C  C315  1  0.94470000  0.26230000  0.21440000  1
  C  C316  1  0.94470000  0.95210000  0.73770000  1
  C  C317  1  0.94470000  0.78560000  0.04790000  1
  C  C318  1  0.95140000  0.77570000  0.55980000  1
  C  C319  1  0.95140000  0.44020000  0.21590000  1
  C  C320  1  0.95140000  0.78410000  0.22430000  1
  C  C321  1  0.95900000  0.15120000  0.67010000  1
  C  C322  1  0.95900000  0.51890000  0.84880000  1
  C  C323  1  0.95900000  0.32990000  0.48110000  1
  C  C324  1  0.97790000  0.68560000  0.56080000  1
  C  C325  1  0.97790000  0.43920000  0.12480000  1
  C  C326  1  0.97790000  0.87520000  0.31440000  1
  C  C327  1  0.98590000  0.23020000  0.93490000  1
  C  C328  1  0.98590000  0.06510000  0.29530000  1
  C  C329  1  0.98590000  0.70470000  0.76980000  1
  C  C330  1  0.98650000  0.24490000  0.76380000  1
  C  C331  1  0.98650000  0.23620000  0.48110000  1
  C  C332  1  0.98650000  0.51890000  0.75510000  1
  C  C333  1  0.99210000  0.05740000  0.78570000  1
  C  C334  1  0.99210000  0.72830000  0.94260000  1
  C  C335  1  0.99210000  0.21430000  0.27170000  1
  N  N336  1  0.06210000  0.03950000  0.75150000  1
  N  N337  1  0.06210000  0.71200000  0.96050000  1
  N  N338  1  0.06210000  0.24850000  0.28800000  1
  N  N339  1  0.06550000  0.15430000  0.73670000  1
  N  N340  1  0.06550000  0.58240000  0.84570000  1
  N  N341  1  0.06550000  0.26330000  0.41760000  1
  N  N342  1  0.25000000  0.52640000  0.38040000  1
  N  N343  1  0.25000000  0.85400000  0.47360000  1
  N  N344  1  0.25000000  0.61960000  0.14600000  1
  N  N345  1  0.43450000  0.15430000  0.73670000  1
  N  N346  1  0.43450000  0.58240000  0.84570000  1
  N  N347  1  0.43450000  0.26330000  0.41760000  1
  N  N348  1  0.43790000  0.03950000  0.75150000  1
  N  N349  1  0.43790000  0.71200000  0.96050000  1
  N  N350  1  0.43790000  0.24850000  0.28800000  1
  N  N351  1  0.56210000  0.75150000  0.71200000  1
  N  N352  1  0.56210000  0.28800000  0.03950000  1
  N  N353  1  0.56210000  0.96050000  0.24850000  1
  N  N354  1  0.56550000  0.73670000  0.58240000  1
  N  N355  1  0.56550000  0.41760000  0.15430000  1
  N  N356  1  0.56550000  0.84570000  0.26330000  1
  N  N357  1  0.75000000  0.38040000  0.85400000  1
  N  N358  1  0.75000000  0.14600000  0.52640000  1
  N  N359  1  0.75000000  0.47360000  0.61960000  1
  N  N360  1  0.93450000  0.73670000  0.58240000  1
  N  N361  1  0.93450000  0.41760000  0.15430000  1
  N  N362  1  0.93450000  0.84570000  0.26330000  1
  N  N363  1  0.93790000  0.75150000  0.71200000  1
  N  N364  1  0.93790000  0.28800000  0.03950000  1
  N  N365  1  0.93790000  0.96050000  0.24850000  1
  O  O366  1  0.11580000  0.16680000  0.85370000  1
  O  O367  1  0.11580000  0.14630000  0.31310000  1
  O  O368  1  0.11580000  0.68690000  0.83320000  1
  O  O369  1  0.13430000  0.03600000  0.87020000  1
  O  O370  1  0.13430000  0.83420000  0.96400000  1
  O  O371  1  0.13430000  0.12980000  0.16580000  1
  O  O372  1  0.15040000  0.12840000  0.91710000  1
  O  O373  1  0.15040000  0.08290000  0.21130000  1
  O  O374  1  0.15040000  0.78870000  0.87160000  1
  O  O375  1  0.15550000  0.55230000  0.29420000  1
  O  O376  1  0.15550000  0.74190000  0.44770000  1
  O  O377  1  0.15550000  0.70580000  0.25810000  1
  O  O378  1  0.15830000  0.64440000  0.42630000  1
  O  O379  1  0.15830000  0.57370000  0.21810000  1
  O  O380  1  0.15830000  0.78190000  0.35560000  1
  O  O381  1  0.18150000  0.04890000  0.67000000  1
  O  O382  1  0.18150000  0.62110000  0.95110000  1
  O  O383  1  0.18150000  0.33000000  0.37890000  1
  O  O384  1  0.25000000  0.06930000  0.79150000  1
  O  O385  1  0.25000000  0.66666667  0.33333333  1
  O  O386  1  0.25000000  0.17400000  0.77520000  1
  O  O387  1  0.25000000  0.60120000  0.82600000  1
  O  O388  1  0.25000000  0.72220000  0.93070000  1
  O  O389  1  0.25000000  0.22480000  0.39880000  1
  O  O390  1  0.25000000  0.20850000  0.27780000  1
  O  O391  1  0.31850000  0.04890000  0.67000000  1
  O  O392  1  0.31850000  0.62110000  0.95110000  1
  O  O393  1  0.31850000  0.33000000  0.37890000  1
  O  O394  1  0.34170000  0.64440000  0.42630000  1
  O  O395  1  0.34170000  0.57370000  0.21810000  1
  O  O396  1  0.34170000  0.78190000  0.35560000  1
  O  O397  1  0.34450000  0.55230000  0.29420000  1
  O  O398  1  0.34450000  0.74190000  0.44770000  1
  O  O399  1  0.34450000  0.70580000  0.25810000  1
  O  O400  1  0.34960000  0.12840000  0.91710000  1
  O  O401  1  0.34960000  0.08290000  0.21130000  1
  O  O402  1  0.34960000  0.78870000  0.87160000  1
  O  O403  1  0.36570000  0.03600000  0.87020000  1
  O  O404  1  0.36570000  0.83420000  0.96400000  1
  O  O405  1  0.36570000  0.12980000  0.16580000  1
  O  O406  1  0.38420000  0.16680000  0.85370000  1
  O  O407  1  0.38420000  0.14630000  0.31310000  1
  O  O408  1  0.38420000  0.68690000  0.83320000  1
  O  O409  1  0.61580000  0.31310000  0.16680000  1
  O  O410  1  0.61580000  0.85370000  0.68690000  1
  O  O411  1  0.61580000  0.83320000  0.14630000  1
  O  O412  1  0.63430000  0.87020000  0.83420000  1
  O  O413  1  0.63430000  0.16580000  0.03600000  1
  O  O414  1  0.63430000  0.96400000  0.12980000  1
  O  O415  1  0.65040000  0.21130000  0.12840000  1
  O  O416  1  0.65040000  0.91710000  0.78870000  1
  O  O417  1  0.65040000  0.87160000  0.08290000  1
  O  O418  1  0.65550000  0.29420000  0.74190000  1
  O  O419  1  0.65550000  0.25810000  0.55230000  1
  O  O420  1  0.65550000  0.44770000  0.70580000  1
  O  O421  1  0.65830000  0.21810000  0.64440000  1
  O  O422  1  0.65830000  0.42630000  0.78190000  1
  O  O423  1  0.65830000  0.35560000  0.57370000  1
  O  O424  1  0.68150000  0.67000000  0.62110000  1
  O  O425  1  0.68150000  0.37890000  0.04890000  1
  O  O426  1  0.68150000  0.95110000  0.33000000  1
  O  O427  1  0.75000000  0.79150000  0.72220000  1
  O  O428  1  0.75000000  0.77520000  0.60120000  1
  O  O429  1  0.75000000  0.27780000  0.06930000  1
  O  O430  1  0.75000000  0.39880000  0.17400000  1
  O  O431  1  0.75000000  0.82600000  0.22480000  1
  O  O432  1  0.75000000  0.33333333  0.66666667  1
  O  O433  1  0.75000000  0.93070000  0.20850000  1
  O  O434  1  0.81850000  0.67000000  0.62110000  1
  O  O435  1  0.81850000  0.37890000  0.04890000  1
  O  O436  1  0.81850000  0.95110000  0.33000000  1
  O  O437  1  0.84170000  0.21810000  0.64440000  1
  O  O438  1  0.84170000  0.42630000  0.78190000  1
  O  O439  1  0.84170000  0.35560000  0.57370000  1
  O  O440  1  0.84450000  0.29420000  0.74190000  1
  O  O441  1  0.84450000  0.25810000  0.55230000  1
  O  O442  1  0.84450000  0.44770000  0.70580000  1
  O  O443  1  0.84960000  0.21130000  0.12840000  1
  O  O444  1  0.84960000  0.91710000  0.78870000  1
  O  O445  1  0.84960000  0.87160000  0.08290000  1
  O  O446  1  0.86570000  0.87020000  0.83420000  1
  O  O447  1  0.86570000  0.16580000  0.03600000  1
  O  O448  1  0.86570000  0.96400000  0.12980000  1
  O  O449  1  0.88420000  0.31310000  0.16680000  1
  O  O450  1  0.88420000  0.85370000  0.68690000  1
  O  O451  1  0.88420000  0.83320000  0.14630000  1
