# generated using pymatgen
data_SmH25C28(NO4)2
_symmetry_space_group_name_H-M   'P 1'
_cell_length_a   9.15600000
_cell_length_b   16.70936815
_cell_length_c   25.79677515
_cell_angle_alpha   75.00857784
_cell_angle_beta   79.77791784
_cell_angle_gamma   74.09887849
_symmetry_Int_Tables_number   1
_chemical_formula_structural   SmH25C28(NO4)2
_chemical_formula_sum   'Sm4 H100 C112 N8 O32'
_cell_volume   3642.25655573
_cell_formula_units_Z   4
loop_
 _symmetry_equiv_pos_site_id
 _symmetry_equiv_pos_as_xyz
  1  'x, y, z'
loop_
 _atom_site_type_symbol
 _atom_site_label
 _atom_site_symmetry_multiplicity
 _atom_site_fract_x
 _atom_site_fract_y
 _atom_site_fract_z
 _atom_site_occupancy
  C  C0  1  0.72220000  0.36350000  0.61090000  1
  C  C1  1  0.30340000  0.86350000  0.11090000  1
  C  C2  1  0.72070000  0.09180000  0.84300000  1
  C  C3  1  0.34450000  0.59180000  0.34300000  1
  C  C4  1  0.80580000  0.11760000  0.79400000  1
  C  C5  1  0.28260000  0.61760000  0.29400000  1
  C  C6  1  0.64230000  0.02830000  0.84790000  1
  C  C7  1  0.48150000  0.52830000  0.34790000  1
  C  C8  1  0.81300000  0.08170000  0.75090000  1
  C  C9  1  0.35440000  0.58170000  0.25090000  1
  C  C10  1  0.89330000  0.11100000  0.69740000  1
  C  C11  1  0.29830000  0.61100000  0.19740000  1
  C  C12  1  0.64940000  0.99110000  0.80570000  1
  C  C13  1  0.55380000  0.49110000  0.30570000  1
  C  C14  1  0.73220000  0.01930000  0.75570000  1
  C  C15  1  0.49280000  0.51930000  0.25570000  1
  C  C16  1  0.67270000  0.20570000  0.52870000  1
  C  C17  1  0.59290000  0.70570000  0.02870000  1
  C  C18  1  0.06380000  0.44470000  0.25110000  1
  C  C19  1  0.24040000  0.94470000  0.75110000  1
  C  C20  1  0.84570000  0.68700000  0.97540000  1
  C  C21  1  0.49190000  0.18700000  0.47540000  1
  C  C22  1  0.77700000  0.38680000  0.27100000  1
  C  C23  1  0.56520000  0.88680000  0.77100000  1
  C  C24  1  0.72030000  0.65380000  0.99920000  1
  C  C25  1  0.62670000  0.15380000  0.49920000  1
  C  C26  1  0.05540000  0.35670000  0.28470000  1
  C  C27  1  0.30320000  0.85670000  0.78470000  1
  C  C28  1  0.03420000  0.83070000  0.80110000  1
  C  C29  1  0.33400000  0.33070000  0.30110000  1
  C  C30  1  0.92340000  0.32760000  0.29260000  1
  C  C31  1  0.45640000  0.82760000  0.79260000  1
  C  C32  1  0.18520000  0.30190000  0.30790000  1
  C  C33  1  0.20500000  0.80190000  0.80790000  1
  C  C34  1  0.19980000  0.04050000  0.55790000  1
  C  C35  1  0.20180000  0.54050000  0.05790000  1
  C  C36  1  0.95530000  0.64550000  0.93930000  1
  C  C37  1  0.45990000  0.14550000  0.43930000  1
  C  C38  1  0.91680000  0.24820000  0.32300000  1
  C  C39  1  0.51200000  0.74820000  0.82300000  1
  C  C40  1  0.72570000  0.07810000  0.49110000  1
  C  C41  1  0.70510000  0.57810000  0.99110000  1
  C  C42  1  0.17740000  0.21940000  0.33820000  1
  C  C43  1  0.26500000  0.71940000  0.83820000  1
  C  C44  1  0.76780000  0.21790000  0.33570000  1
  C  C45  1  0.67860000  0.71790000  0.83570000  1
  C  C46  1  0.04440000  0.19190000  0.34650000  1
  C  C47  1  0.41720000  0.69190000  0.84650000  1
  C  C48  1  0.15790000  0.65970000  0.86350000  1
  C  C49  1  0.31890000  0.15970000  0.36350000  1
  C  C50  1  0.96130000  0.89490000  0.61970000  1
  C  C51  1  0.52410000  0.39490000  0.11970000  1
  C  C52  1  0.18430000  0.46360000  0.04440000  1
  C  C53  1  0.30770000  0.96360000  0.54440000  1
  C  C54  1  0.93540000  0.57230000  0.92910000  1
  C  C55  1  0.56320000  0.07230000  0.42910000  1
  C  C56  1  0.06460000  0.42770000  0.07090000  1
  C  C57  1  0.43680000  0.92770000  0.57090000  1
  C  C58  1  0.81570000  0.53640000  0.95560000  1
  C  C59  1  0.69230000  0.03640000  0.45560000  1
  C  C60  1  0.03870000  0.10510000  0.38030000  1
  C  C61  1  0.47590000  0.60510000  0.88030000  1
  C  C62  1  0.84210000  0.34030000  0.13650000  1
  C  C63  1  0.68110000  0.84030000  0.63650000  1
  C  C64  1  0.95560000  0.80810000  0.65350000  1
  C  C65  1  0.58280000  0.30810000  0.15350000  1
  C  C66  1  0.23220000  0.78210000  0.66430000  1
  C  C67  1  0.32140000  0.28210000  0.16430000  1
  C  C68  1  0.82260000  0.78060000  0.66180000  1
  C  C69  1  0.73500000  0.28060000  0.16180000  1
  C  C70  1  0.27430000  0.92190000  0.50890000  1
  C  C71  1  0.29490000  0.42190000  0.00890000  1
  C  C72  1  0.08320000  0.75180000  0.67700000  1
  C  C73  1  0.48800000  0.25180000  0.17700000  1
  C  C74  1  0.04470000  0.35450000  0.06070000  1
  C  C75  1  0.54010000  0.85450000  0.56070000  1
  C  C76  1  0.80020000  0.95950000  0.44210000  1
  C  C77  1  0.79820000  0.45950000  0.94210000  1
  C  C78  1  0.81480000  0.69810000  0.69210000  1
  C  C79  1  0.79500000  0.19810000  0.19210000  1
  C  C80  1  0.07660000  0.67240000  0.70740000  1
  C  C81  1  0.54360000  0.17240000  0.20740000  1
  C  C82  1  0.96580000  0.16930000  0.19890000  1
  C  C83  1  0.66600000  0.66930000  0.69890000  1
  C  C84  1  0.94460000  0.64330000  0.71530000  1
  C  C85  1  0.69680000  0.14330000  0.21530000  1
  C  C86  1  0.27970000  0.34620000  0.00080000  1
  C  C87  1  0.37330000  0.84620000  0.50080000  1
  C  C88  1  0.22300000  0.61320000  0.72900000  1
  C  C89  1  0.43480000  0.11320000  0.22900000  1
  C  C90  1  0.15430000  0.31300000  0.02460000  1
  C  C91  1  0.50810000  0.81300000  0.52460000  1
  C  C92  1  0.93620000  0.55530000  0.74890000  1
  C  C93  1  0.75960000  0.05530000  0.24890000  1
  C  C94  1  0.32730000  0.79430000  0.47130000  1
  C  C95  1  0.40710000  0.29430000  0.97130000  1
  C  C96  1  0.26780000  0.98070000  0.24430000  1
  C  C97  1  0.50720000  0.48070000  0.74430000  1
  C  C98  1  0.35060000  0.00890000  0.19430000  1
  C  C99  1  0.44620000  0.50890000  0.69430000  1
  C  C100  1  0.10670000  0.88900000  0.30260000  1
  C  C101  1  0.70170000  0.38900000  0.80260000  1
  C  C102  1  0.18700000  0.91830000  0.24910000  1
  C  C103  1  0.64560000  0.41830000  0.74910000  1
  C  C104  1  0.35770000  0.97170000  0.15210000  1
  C  C105  1  0.51850000  0.47170000  0.65210000  1
  C  C106  1  0.19420000  0.88240000  0.20600000  1
  C  C107  1  0.71740000  0.38240000  0.70600000  1
  C  C108  1  0.27930000  0.90820000  0.15700000  1
  C  C109  1  0.65550000  0.40820000  0.65700000  1
  C  C110  1  0.27780000  0.63650000  0.38910000  1
  C  C111  1  0.69660000  0.13650000  0.88910000  1
  H  H112  1  0.85841667  0.15940000  0.79040000  1
  H  H113  1  0.19178333  0.65940000  0.29040000  1
  H  H114  1  0.58470000  0.01100000  0.88040000  1
  H  H115  1  0.52390000  0.51100000  0.38040000  1
  H  H116  1  0.62780000  0.31180000  0.53680000  1
  H  H117  1  0.52360000  0.81180000  0.03680000  1
  H  H118  1  0.72630000  0.41860000  0.34220000  1
  H  H119  1  0.51290000  0.91860000  0.84220000  1
  H  H120  1  0.03050000  0.48530000  0.27370000  1
  H  H121  1  0.21050000  0.98530000  0.77370000  1
  H  H122  1  0.73330000  0.99670000  0.72610000  1
  H  H123  1  0.54390000  0.49670000  0.22610000  1
  H  H124  1  0.85740000  0.73590000  0.98330000  1
  H  H125  1  0.42340000  0.23590000  0.48330000  1
  H  H126  1  0.98400000  0.87120000  0.82300000  1
  H  H127  1  0.32180000  0.37120000  0.32300000  1
  H  H128  1  0.99890000  0.46050000  0.22290000  1
  H  H129  1  0.31770000  0.96050000  0.72290000  1
  H  H130  1  0.15310000  0.94410000  0.73550000  1
  H  H131  1  0.16730000  0.44410000  0.23550000  1
  H  H132  1  0.80230000  0.42780000  0.23860000  1
  H  H133  1  0.53130000  0.92780000  0.73860000  1
  H  H134  1  0.09580000  0.72090000  0.92550000  1
  H  H135  1  0.25780000  0.22090000  0.42550000  1
  H  H136  1  0.02150000  0.85700000  0.76380000  1
  H  H137  1  0.35770000  0.35700000  0.26380000  1
  H  H138  1  0.71710000  0.35370000  0.26190000  1
  H  H139  1  0.66730000  0.85370000  0.76190000  1
  H  H140  1  0.99020000  0.78220000  0.81200000  1
  H  H141  1  0.41560000  0.28220000  0.31200000  1
  H  H142  1  0.73780000  0.20750000  0.37390000  1
  H  H143  1  0.68080000  0.70750000  0.87390000  1
  H  H144  1  0.73230000  0.76120000  0.81760000  1
  H  H145  1  0.68890000  0.26120000  0.31760000  1
  H  H146  1  0.86990000  0.93550000  0.62910000  1
  H  H147  1  0.56550000  0.43550000  0.12910000  1
  H  H148  1  0.81270000  0.05530000  0.50890000  1
  H  H149  1  0.62310000  0.55530000  0.00890000  1
  H  H150  1  0.99560000  0.45360000  0.09620000  1
  H  H151  1  0.45460000  0.95360000  0.59620000  1
  H  H152  1  0.04860000  0.91060000  0.62620000  1
  H  H153  1  0.41460000  0.41060000  0.12620000  1
  H  H154  1  0.78290000  0.39890000  0.12830000  1
  H  H155  1  0.68990000  0.89890000  0.62830000  1
  H  H156  1  0.03100000  0.10580000  0.41780000  1
  H  H157  1  0.44540000  0.60580000  0.91780000  1
  H  H158  1  0.21640000  0.83360000  0.67660000  1
  H  H159  1  0.27340000  0.33360000  0.17660000  1
  H  H160  1  0.08750000  0.66430000  0.83830000  1
  H  H161  1  0.40990000  0.16430000  0.33830000  1
  H  H162  1  0.91250000  0.33570000  0.16170000  1
  H  H163  1  0.59010000  0.83570000  0.66170000  1
  H  H164  1  0.78360000  0.16640000  0.32340000  1
  H  H165  1  0.72660000  0.66640000  0.82340000  1
  H  H166  1  0.96900000  0.89420000  0.58220000  1
  H  H167  1  0.55460000  0.39420000  0.08220000  1
  H  H168  1  0.21710000  0.60110000  0.87170000  1
  H  H169  1  0.31010000  0.10110000  0.37170000  1
  H  H170  1  0.95140000  0.08940000  0.37380000  1
  H  H171  1  0.58540000  0.58940000  0.87380000  1
  H  H172  1  0.00440000  0.54640000  0.90380000  1
  H  H173  1  0.54540000  0.04640000  0.40380000  1
  H  H174  1  0.18730000  0.94470000  0.49110000  1
  H  H175  1  0.37690000  0.44470000  0.99110000  1
  H  H176  1  0.13010000  0.06450000  0.37090000  1
  H  H177  1  0.43450000  0.56450000  0.87090000  1
  H  H178  1  0.26770000  0.23880000  0.18240000  1
  H  H179  1  0.31110000  0.73880000  0.68240000  1
  H  H180  1  0.26220000  0.79250000  0.62610000  1
  H  H181  1  0.31920000  0.29250000  0.12610000  1
  H  H182  1  0.00980000  0.21780000  0.18800000  1
  H  H183  1  0.58440000  0.71780000  0.68800000  1
  H  H184  1  0.28290000  0.64630000  0.73810000  1
  H  H185  1  0.33270000  0.14630000  0.23810000  1
  H  H186  1  0.97850000  0.14300000  0.23620000  1
  H  H187  1  0.64230000  0.64300000  0.73620000  1
  H  H188  1  0.90420000  0.27910000  0.07450000  1
  H  H189  1  0.74220000  0.77910000  0.57450000  1
  H  H190  1  0.19770000  0.57220000  0.76140000  1
  H  H191  1  0.46870000  0.07220000  0.26140000  1
  H  H192  1  0.84690000  0.05590000  0.26450000  1
  H  H193  1  0.83270000  0.55590000  0.76450000  1
  H  H194  1  0.00110000  0.53950000  0.77710000  1
  H  H195  1  0.68230000  0.03950000  0.27710000  1
  H  H196  1  0.01600000  0.12880000  0.17700000  1
  H  H197  1  0.67820000  0.62880000  0.67700000  1
  H  H198  1  0.14260000  0.26410000  0.01670000  1
  H  H199  1  0.57660000  0.76410000  0.51670000  1
  H  H200  1  0.26670000  0.00330000  0.27390000  1
  H  H201  1  0.45610000  0.50330000  0.77390000  1
  H  H202  1  0.96950000  0.51470000  0.72630000  1
  H  H203  1  0.78950000  0.01470000  0.22630000  1
  H  H204  1  0.27370000  0.58140000  0.65780000  1
  H  H205  1  0.48710000  0.08140000  0.15780000  1
  H  H206  1  0.37220000  0.68820000  0.46320000  1
  H  H207  1  0.47640000  0.18820000  0.96320000  1
  H  H208  1  0.41530000  0.98900000  0.11960000  1
  H  H209  1  0.47610000  0.48900000  0.61960000  1
  H  H210  1  0.14158333  0.84060000  0.20960000  1
  H  H211  1  0.80821667  0.34060000  0.70960000  1
  N  N212  1  0.69040000  0.43070000  0.31170000  1
  N  N213  1  0.56720000  0.93070000  0.81170000  1
  N  N214  1  0.07290000  0.68350000  0.91290000  1
  N  N215  1  0.33070000  0.18350000  0.41290000  1
  N  N216  1  0.92710000  0.31650000  0.08710000  1
  N  N217  1  0.66930000  0.81650000  0.58710000  1
  N  N218  1  0.30960000  0.56930000  0.68830000  1
  N  N219  1  0.43280000  0.06930000  0.18830000  1
  O  O220  1  0.64760000  0.38410000  0.57070000  1
  O  O221  1  0.39760000  0.88410000  0.07070000  1
  O  O222  1  0.84500000  0.30850000  0.61590000  1
  O  O223  1  0.23060000  0.80850000  0.11590000  1
  O  O224  1  0.99320000  0.15320000  0.69280000  1
  O  O225  1  0.16080000  0.65320000  0.19280000  1
  O  O226  1  0.60810000  0.78090000  0.03010000  1
  O  O227  1  0.58090000  0.28090000  0.53010000  1
  O  O228  1  0.85990000  0.09690000  0.65650000  1
  O  O229  1  0.38670000  0.59690000  0.15650000  1
  O  O230  1  0.79110000  0.18540000  0.54960000  1
  O  O231  1  0.47390000  0.68540000  0.04960000  1
  O  O232  1  0.13800000  0.55510000  0.10270000  1
  O  O233  1  0.20420000  0.05510000  0.60270000  1
  O  O234  1  0.10650000  0.08750000  0.52810000  1
  O  O235  1  0.27790000  0.58750000  0.02810000  1
  O  O236  1  0.89350000  0.91250000  0.47190000  1
  O  O237  1  0.72210000  0.41250000  0.97190000  1
  O  O238  1  0.86200000  0.44490000  0.89730000  1
  O  O239  1  0.79580000  0.94490000  0.39730000  1
  O  O240  1  0.20890000  0.81460000  0.45040000  1
  O  O241  1  0.52610000  0.31460000  0.95040000  1
  O  O242  1  0.14010000  0.90310000  0.34350000  1
  O  O243  1  0.61330000  0.40310000  0.84350000  1
  O  O244  1  0.39190000  0.21910000  0.96990000  1
  O  O245  1  0.41910000  0.71910000  0.46990000  1
  O  O246  1  0.00680000  0.84680000  0.30720000  1
  O  O247  1  0.83920000  0.34680000  0.80720000  1
  O  O248  1  0.15500000  0.69150000  0.38410000  1
  O  O249  1  0.76940000  0.19150000  0.88410000  1
  O  O250  1  0.35240000  0.61590000  0.42930000  1
  O  O251  1  0.60240000  0.11590000  0.92930000  1
  Sm  Sm252  1  0.00655000  0.18549000  0.59119000  1
  Sm  Sm253  1  0.21677000  0.68549000  0.09119000  1
  Sm  Sm254  1  0.99345000  0.81451000  0.40881000  1
  Sm  Sm255  1  0.78323000  0.31451000  0.90881000  1
