# generated using pymatgen
data_Zn3H28C40(N3O7)2
_symmetry_space_group_name_H-M   'P 1'
_cell_length_a   13.43500000
_cell_length_b   14.15962255
_cell_length_c   14.78763450
_cell_angle_alpha   109.92238883
_cell_angle_beta   107.98704165
_cell_angle_gamma   107.68771518
_symmetry_Int_Tables_number   1
_chemical_formula_structural   Zn3H28C40(N3O7)2
_chemical_formula_sum   'Zn6 H56 C80 N12 O28'
_cell_volume   2236.88265421
_cell_formula_units_Z   2
loop_
 _symmetry_equiv_pos_site_id
 _symmetry_equiv_pos_as_xyz
  1  'x, y, z'
loop_
 _atom_site_type_symbol
 _atom_site_label
 _atom_site_symmetry_multiplicity
 _atom_site_fract_x
 _atom_site_fract_y
 _atom_site_fract_z
 _atom_site_occupancy
  C  C0  1  0.68820000  0.64230000  0.24320000  1
  C  C1  1  0.94500000  0.39910000  0.75680000  1
  C  C2  1  0.79390000  0.72030000  0.33260000  1
  C  C3  1  0.96130000  0.38770000  0.66740000  1
  C  C4  1  0.76330000  0.66050000  0.12720000  1
  C  C5  1  0.13610000  0.53330000  0.87280000  1
  C  C6  1  0.77750000  0.94320000  0.68660000  1
  C  C7  1  0.59090000  0.25660000  0.31340000  1
  C  C8  1  0.66540000  0.92610000  0.62920000  1
  C  C9  1  0.53620000  0.29690000  0.37080000  1
  C  C10  1  0.89150000  0.77150000  0.31800000  1
  C  C11  1  0.07350000  0.45350000  0.68200000  1
  C  C12  1  0.87170000  0.73840000  0.21140000  1
  C  C13  1  0.16030000  0.52700000  0.78860000  1
  C  C14  1  0.04360000  0.89130000  0.51040000  1
  C  C15  1  0.03320000  0.38090000  0.48960000  1
  C  C16  1  0.85970000  0.04140000  0.78080000  1
  C  C17  1  0.57890000  0.26060000  0.21920000  1
  C  C18  1  0.00920000  0.85450000  0.40660000  1
  C  C19  1  0.10260000  0.44790000  0.59340000  1
  C  C20  1  0.18470000  0.01570000  0.70460000  1
  C  C21  1  0.98010000  0.31110000  0.29540000  1
  C  C22  1  0.63690000  0.01280000  0.66820000  1
  C  C23  1  0.46870000  0.34460000  0.33180000  1
  C  C24  1  0.16200000  0.97800000  0.59840000  1
  C  C25  1  0.06360000  0.37960000  0.40160000  1
  C  C26  1  0.32360000  0.80020000  0.19940000  1
  C  C27  1  0.62420000  0.60080000  0.80060000  1
  C  C28  1  0.29430000  0.09840000  0.78600000  1
  C  C29  1  0.00830000  0.31240000  0.21400000  1
  C  C30  1  0.83170000  0.12820000  0.81940000  1
  C  C31  1  0.51230000  0.30880000  0.18060000  1
  C  C32  1  0.07650000  0.76190000  0.08080000  1
  C  C33  1  0.49570000  0.68110000  0.91920000  1
  C  C34  1  0.63850000  0.88940000  0.33420000  1
  C  C35  1  0.80430000  0.55520000  0.66580000  1
  C  C36  1  0.71790000  0.11370000  0.76400000  1
  C  C37  1  0.45390000  0.34970000  0.23600000  1
  C  C38  1  0.25490000  0.02690000  0.57920000  1
  C  C39  1  0.17570000  0.44770000  0.42080000  1
  C  C40  1  0.74510000  0.97310000  0.42080000  1
  C  C41  1  0.82430000  0.55230000  0.57920000  1
  C  C42  1  0.28210000  0.88630000  0.23600000  1
  C  C43  1  0.54610000  0.65030000  0.76400000  1
  C  C44  1  0.36150000  0.11060000  0.66580000  1
  C  C45  1  0.19570000  0.44480000  0.33420000  1
  C  C46  1  0.92350000  0.23810000  0.91920000  1
  C  C47  1  0.50430000  0.31890000  0.08080000  1
  C  C48  1  0.16830000  0.87180000  0.18060000  1
  C  C49  1  0.48770000  0.69120000  0.81940000  1
  C  C50  1  0.70570000  0.90160000  0.21400000  1
  C  C51  1  0.99170000  0.68760000  0.78600000  1
  C  C52  1  0.67640000  0.19980000  0.80060000  1
  C  C53  1  0.37580000  0.39920000  0.19940000  1
  C  C54  1  0.83800000  0.02200000  0.40160000  1
  C  C55  1  0.93640000  0.62040000  0.59840000  1
  C  C56  1  0.36310000  0.98720000  0.33180000  1
  C  C57  1  0.53130000  0.65540000  0.66820000  1
  C  C58  1  0.81530000  0.98430000  0.29540000  1
  C  C59  1  0.01990000  0.68890000  0.70460000  1
  C  C60  1  0.99080000  0.14550000  0.59340000  1
  C  C61  1  0.89740000  0.55210000  0.40660000  1
  C  C62  1  0.14030000  0.95860000  0.21920000  1
  C  C63  1  0.42110000  0.73940000  0.78080000  1
  C  C64  1  0.95640000  0.10870000  0.48960000  1
  C  C65  1  0.96680000  0.61910000  0.51040000  1
  C  C66  1  0.12830000  0.26160000  0.78860000  1
  C  C67  1  0.83970000  0.47300000  0.21140000  1
  C  C68  1  0.10850000  0.22850000  0.68200000  1
  C  C69  1  0.92650000  0.54650000  0.31800000  1
  C  C70  1  0.33460000  0.07390000  0.37080000  1
  C  C71  1  0.46380000  0.70310000  0.62920000  1
  C  C72  1  0.22250000  0.05680000  0.31340000  1
  C  C73  1  0.40910000  0.74340000  0.68660000  1
  C  C74  1  0.23670000  0.33950000  0.87280000  1
  C  C75  1  0.86390000  0.46670000  0.12720000  1
  C  C76  1  0.20610000  0.27970000  0.66740000  1
  C  C77  1  0.03870000  0.61230000  0.33260000  1
  C  C78  1  0.31180000  0.35770000  0.75680000  1
  C  C79  1  0.05500000  0.60090000  0.24320000  1
  H  H80  1  0.40880000  0.56350000  0.12400000  1
  H  H81  1  0.78480000  0.43950000  0.87600000  1
  H  H82  1  0.12920000  0.64500000  0.25400000  1
  H  H83  1  0.37520000  0.39100000  0.74600000  1
  H  H84  1  0.80140000  0.73940000  0.40200000  1
  H  H85  1  0.89940000  0.33740000  0.59800000  1
  H  H86  1  0.61070000  0.85870000  0.56640000  1
  H  H87  1  0.54430000  0.29230000  0.43360000  1
  H  H88  1  0.98840000  0.85980000  0.53060000  1
  H  H89  1  0.95780000  0.32920000  0.46940000  1
  H  H90  1  0.75260000  0.64030000  0.05680000  1
  H  H91  1  0.19580000  0.58350000  0.94320000  1
  H  H92  1  0.12580000  0.98530000  0.72160000  1
  H  H93  1  0.90420000  0.26370000  0.27840000  1
  H  H94  1  0.93400000  0.04940000  0.81840000  1
  H  H95  1  0.61560000  0.23100000  0.18160000  1
  H  H96  1  0.93310000  0.76970000  0.19740000  1
  H  H97  1  0.23570000  0.57230000  0.80260000  1
  H  H98  1  0.57800000  0.85660000  0.34860000  1
  H  H99  1  0.72940000  0.50800000  0.65140000  1
  H  H100  1  0.56210000  0.00350000  0.62960000  1
  H  H101  1  0.43250000  0.37390000  0.37040000  1
  H  H102  1  0.06570000  0.88450000  0.38700000  1
  H  H103  1  0.17870000  0.49750000  0.61300000  1
  H  H104  1  0.30730000  0.12150000  0.85720000  1
  H  H105  1  0.95010000  0.26430000  0.14280000  1
  H  H106  1  0.24500000  0.00330000  0.50880000  1
  H  H107  1  0.23620000  0.49450000  0.49120000  1
  H  H108  1  0.75500000  0.99670000  0.49120000  1
  H  H109  1  0.76380000  0.50550000  0.50880000  1
  H  H110  1  0.69270000  0.87850000  0.14280000  1
  H  H111  1  0.04990000  0.73570000  0.85720000  1
  H  H112  1  0.93430000  0.11550000  0.61300000  1
  H  H113  1  0.82130000  0.50250000  0.38700000  1
  H  H114  1  0.43790000  0.99650000  0.37040000  1
  H  H115  1  0.56750000  0.62610000  0.62960000  1
  H  H116  1  0.42200000  0.14340000  0.65140000  1
  H  H117  1  0.27060000  0.49200000  0.34860000  1
  H  H118  1  0.06690000  0.23030000  0.80260000  1
  H  H119  1  0.76430000  0.42770000  0.19740000  1
  H  H120  1  0.06600000  0.95060000  0.18160000  1
  H  H121  1  0.38440000  0.76900000  0.81840000  1
  H  H122  1  0.87420000  0.01470000  0.27840000  1
  H  H123  1  0.09580000  0.73630000  0.72160000  1
  H  H124  1  0.24740000  0.35970000  0.94320000  1
  H  H125  1  0.80420000  0.41650000  0.05680000  1
  H  H126  1  0.01160000  0.14020000  0.46940000  1
  H  H127  1  0.04220000  0.67080000  0.53060000  1
  H  H128  1  0.38930000  0.14130000  0.43360000  1
  H  H129  1  0.45570000  0.70770000  0.56640000  1
  H  H130  1  0.19860000  0.26060000  0.59800000  1
  H  H131  1  0.10060000  0.66260000  0.40200000  1
  H  H132  1  0.87080000  0.35500000  0.74600000  1
  H  H133  1  0.62480000  0.60900000  0.25400000  1
  H  H134  1  0.59120000  0.43650000  0.87600000  1
  H  H135  1  0.21520000  0.56050000  0.12400000  1
  N  N136  1  0.80910000  0.85410000  0.64440000  1
  N  N137  1  0.66470000  0.20970000  0.35560000  1
  N  N138  1  0.67050000  0.61130000  0.14200000  1
  N  N139  1  0.02850000  0.46930000  0.85800000  1
  N  N140  1  0.61720000  0.85280000  0.23120000  1
  N  N141  1  0.88600000  0.62160000  0.76880000  1
  N  N142  1  0.38280000  0.14720000  0.76880000  1
  N  N143  1  0.11400000  0.37840000  0.23120000  1
  N  N144  1  0.32950000  0.38870000  0.85800000  1
  N  N145  1  0.97150000  0.53070000  0.14200000  1
  N  N146  1  0.19090000  0.14590000  0.35560000  1
  N  N147  1  0.33530000  0.79030000  0.64440000  1
  O  O148  1  0.33130000  0.80160000  0.56720000  1
  O  O149  1  0.26410000  0.23440000  0.43280000  1
  O  O150  1  0.91030000  0.87420000  0.68640000  1
  O  O151  1  0.72390000  0.18780000  0.31360000  1
  O  O152  1  0.42477000  0.57917000  0.07794000  1
  O  O153  1  0.84683000  0.50123000  0.92206000  1
  O  O154  1  0.33180000  0.74230000  0.24460000  1
  O  O155  1  0.58720000  0.49770000  0.75540000  1
  O  O156  1  0.09720000  0.68070000  0.05960000  1
  O  O157  1  0.53760000  0.62110000  0.94040000  1
  O  O158  1  0.35590000  0.79950000  0.12680000  1
  O  O159  1  0.72910000  0.67270000  0.87320000  1
  O  O160  1  0.01660000  0.23630000  0.97420000  1
  O  O161  1  0.54240000  0.26210000  0.02580000  1
  O  O162  1  0.98340000  0.76370000  0.02580000  1
  O  O163  1  0.45760000  0.73790000  0.97420000  1
  O  O164  1  0.64410000  0.20050000  0.87320000  1
  O  O165  1  0.27090000  0.32730000  0.12680000  1
  O  O166  1  0.90280000  0.31930000  0.94040000  1
  O  O167  1  0.46240000  0.37890000  0.05960000  1
  O  O168  1  0.66820000  0.25770000  0.75540000  1
  O  O169  1  0.41280000  0.50230000  0.24460000  1
  O  O170  1  0.57523000  0.42083000  0.92206000  1
  O  O171  1  0.15317000  0.49877000  0.07794000  1
  O  O172  1  0.08970000  0.12580000  0.31360000  1
  O  O173  1  0.27610000  0.81220000  0.68640000  1
  O  O174  1  0.66870000  0.19840000  0.43280000  1
  O  O175  1  0.73590000  0.76560000  0.56720000  1
  Zn  Zn176  1  0.50000000  0.50000000  0.00000000  1
  Zn  Zn177  1  0.00000000  0.50000000  0.00000000  1
  Zn  Zn178  1  0.45632000  0.72729000  0.10476000  1
  Zn  Zn179  1  0.85156000  0.62253000  0.89524000  1
  Zn  Zn180  1  0.54368000  0.27271000  0.89524000  1
  Zn  Zn181  1  0.14844000  0.37747000  0.10476000  1
