# generated using pymatgen
data_NiGe7H8C4(NO8)2
_symmetry_space_group_name_H-M   'P 1'
_cell_length_a   9.87070000
_cell_length_b   16.47220000
_cell_length_c   16.50870000
_cell_angle_alpha   90.00000000
_cell_angle_beta   90.00000000
_cell_angle_gamma   90.00000000
_symmetry_Int_Tables_number   1
_chemical_formula_structural   NiGe7H8C4(NO8)2
_chemical_formula_sum   'Ni4 Ge28 H32 C16 N8 O64'
_cell_volume   2684.18493657
_cell_formula_units_Z   4
loop_
 _symmetry_equiv_pos_site_id
 _symmetry_equiv_pos_as_xyz
  1  'x, y, z'
loop_
 _atom_site_type_symbol
 _atom_site_label
 _atom_site_symmetry_multiplicity
 _atom_site_fract_x
 _atom_site_fract_y
 _atom_site_fract_z
 _atom_site_occupancy
  Ni  Ni0  1  0.62884000  0.96445000  0.44796000  1
  Ni  Ni1  1  0.62884000  0.46445000  0.05204000  1
  Ni  Ni2  1  0.37116000  0.96445000  0.94796000  1
  Ni  Ni3  1  0.37116000  0.46445000  0.55204000  1
  Ge  Ge4  1  0.97565000  0.27756000  0.44186000  1
  Ge  Ge5  1  0.97565000  0.77756000  0.05814000  1
  Ge  Ge6  1  0.95452000  0.08576000  0.92708000  1
  Ge  Ge7  1  0.95452000  0.58576000  0.57292000  1
  Ge  Ge8  1  0.93623000  0.93992000  0.33682000  1
  Ge  Ge9  1  0.93623000  0.43992000  0.16318000  1
  Ge  Ge10  1  0.90946000  0.44774000  0.97498000  1
  Ge  Ge11  1  0.90946000  0.94774000  0.52502000  1
  Ge  Ge12  1  0.86759000  0.42257000  0.34875000  1
  Ge  Ge13  1  0.86759000  0.92257000  0.15125000  1
  Ge  Ge14  1  0.82667000  0.83606000  0.90456000  1
  Ge  Ge15  1  0.82667000  0.33606000  0.59544000  1
  Ge  Ge16  1  0.72958000  0.97798000  0.99479000  1
  Ge  Ge17  1  0.72958000  0.47798000  0.50521000  1
  Ge  Ge18  1  0.27042000  0.97798000  0.49479000  1
  Ge  Ge19  1  0.27042000  0.47798000  0.00521000  1
  Ge  Ge20  1  0.17333000  0.83606000  0.40456000  1
  Ge  Ge21  1  0.17333000  0.33606000  0.09544000  1
  Ge  Ge22  1  0.13241000  0.42257000  0.84875000  1
  Ge  Ge23  1  0.13241000  0.92257000  0.65125000  1
  Ge  Ge24  1  0.09054000  0.44774000  0.47498000  1
  Ge  Ge25  1  0.09054000  0.94774000  0.02502000  1
  Ge  Ge26  1  0.06377000  0.93992000  0.83682000  1
  Ge  Ge27  1  0.06377000  0.43992000  0.66318000  1
  Ge  Ge28  1  0.04548000  0.08576000  0.42708000  1
  Ge  Ge29  1  0.04548000  0.58576000  0.07292000  1
  Ge  Ge30  1  0.02435000  0.27756000  0.94186000  1
  Ge  Ge31  1  0.02435000  0.77756000  0.55814000  1
  H  H32  1  0.73710000  0.40200000  0.84580000  1
  H  H33  1  0.73710000  0.90200000  0.65420000  1
  H  H34  1  0.61270000  0.46110000  0.84620000  1
  H  H35  1  0.61270000  0.96110000  0.65380000  1
  H  H36  1  0.60070000  0.30770000  0.88740000  1
  H  H37  1  0.60070000  0.80770000  0.61260000  1
  H  H38  1  0.59840000  0.62040000  0.45920000  1
  H  H39  1  0.59840000  0.12040000  0.04080000  1
  H  H40  1  0.58720000  0.18890000  0.47920000  1
  H  H41  1  0.58720000  0.68890000  0.02080000  1
  H  H42  1  0.54290000  0.58800000  0.92930000  1
  H  H43  1  0.54290000  0.08800000  0.57070000  1
  H  H44  1  0.51540000  0.37080000  0.40310000  1
  H  H45  1  0.51540000  0.87080000  0.09690000  1
  H  H46  1  0.51290000  0.15070000  0.91570000  1
  H  H47  1  0.51290000  0.65070000  0.58430000  1
  H  H48  1  0.48710000  0.15070000  0.41570000  1
  H  H49  1  0.48710000  0.65070000  0.08430000  1
  H  H50  1  0.48460000  0.37080000  0.90310000  1
  H  H51  1  0.48460000  0.87080000  0.59690000  1
  H  H52  1  0.45710000  0.58800000  0.42930000  1
  H  H53  1  0.45710000  0.08800000  0.07070000  1
  H  H54  1  0.41280000  0.18890000  0.97920000  1
  H  H55  1  0.41280000  0.68890000  0.52080000  1
  H  H56  1  0.40160000  0.62040000  0.95920000  1
  H  H57  1  0.40160000  0.12040000  0.54080000  1
  H  H58  1  0.39930000  0.30770000  0.38740000  1
  H  H59  1  0.39930000  0.80770000  0.11260000  1
  H  H60  1  0.38730000  0.46110000  0.34620000  1
  H  H61  1  0.38730000  0.96110000  0.15380000  1
  H  H62  1  0.26290000  0.40200000  0.34580000  1
  H  H63  1  0.26290000  0.90200000  0.15420000  1
  C  C64  1  0.66780000  0.42590000  0.87990000  1
  C  C65  1  0.66780000  0.92590000  0.62010000  1
  C  C66  1  0.57880000  0.35840000  0.91430000  1
  C  C67  1  0.57880000  0.85840000  0.58570000  1
  C  C68  1  0.55170000  0.13820000  0.45810000  1
  C  C69  1  0.55170000  0.63820000  0.04190000  1
  C  C70  1  0.51670000  0.59220000  0.47580000  1
  C  C71  1  0.51670000  0.09220000  0.02420000  1
  C  C72  1  0.48330000  0.59220000  0.97580000  1
  C  C73  1  0.48330000  0.09220000  0.52420000  1
  C  C74  1  0.44830000  0.13820000  0.95810000  1
  C  C75  1  0.44830000  0.63820000  0.54190000  1
  C  C76  1  0.42120000  0.35840000  0.41430000  1
  C  C77  1  0.42120000  0.85840000  0.08570000  1
  C  C78  1  0.33220000  0.42590000  0.37990000  1
  C  C79  1  0.33220000  0.92590000  0.12010000  1
  N  N80  1  0.66520000  0.08770000  0.42440000  1
  N  N81  1  0.66520000  0.58770000  0.07560000  1
  N  N82  1  0.59770000  0.84760000  0.49250000  1
  N  N83  1  0.59770000  0.34760000  0.00750000  1
  N  N84  1  0.40230000  0.84760000  0.99250000  1
  N  N85  1  0.40230000  0.34760000  0.50750000  1
  N  N86  1  0.33480000  0.08770000  0.92440000  1
  N  N87  1  0.33480000  0.58770000  0.57560000  1
  O  O88  1  0.98610000  0.03500000  0.83470000  1
  O  O89  1  0.98610000  0.53500000  0.66530000  1
  O  O90  1  0.97660000  0.46540000  0.87110000  1
  O  O91  1  0.97660000  0.96540000  0.62890000  1
  O  O92  1  0.97200000  0.18600000  0.89990000  1
  O  O93  1  0.97200000  0.68600000  0.60010000  1
  O  O94  1  0.94350000  0.86360000  0.82880000  1
  O  O95  1  0.94350000  0.36360000  0.67120000  1
  O  O96  1  0.93170000  0.55980000  0.99770000  1
  O  O97  1  0.93170000  0.05980000  0.50230000  1
  O  O98  1  0.91090000  0.92650000  0.98230000  1
  O  O99  1  0.91090000  0.42650000  0.51770000  1
  O  O100  1  0.88470000  0.75740000  0.96880000  1
  O  O101  1  0.88470000  0.25740000  0.53120000  1
  O  O102  1  0.88270000  0.33750000  0.95570000  1
  O  O103  1  0.88270000  0.83750000  0.54430000  1
  O  O104  1  0.86430000  0.31870000  0.36850000  1
  O  O105  1  0.86430000  0.81870000  0.13150000  1
  O  O106  1  0.83250000  0.93160000  0.42050000  1
  O  O107  1  0.83250000  0.43160000  0.07950000  1
  O  O108  1  0.82860000  0.93320000  0.25360000  1
  O  O109  1  0.82860000  0.43320000  0.24640000  1
  O  O110  1  0.78670000  0.07190000  0.95290000  1
  O  O111  1  0.78670000  0.57190000  0.54710000  1
  O  O112  1  0.73380000  0.47080000  0.39770000  1
  O  O113  1  0.73380000  0.97080000  0.10230000  1
  O  O114  1  0.73140000  0.47340000  0.94160000  1
  O  O115  1  0.73140000  0.97340000  0.55840000  1
  O  O116  1  0.68270000  0.89590000  0.93170000  1
  O  O117  1  0.68270000  0.39590000  0.56830000  1
  O  O118  1  0.55060000  0.01190000  0.99490000  1
  O  O119  1  0.55060000  0.51190000  0.50510000  1
  O  O120  1  0.44940000  0.01190000  0.49490000  1
  O  O121  1  0.44940000  0.51190000  0.00510000  1
  O  O122  1  0.31730000  0.89590000  0.43170000  1
  O  O123  1  0.31730000  0.39590000  0.06830000  1
  O  O124  1  0.26860000  0.47340000  0.44160000  1
  O  O125  1  0.26860000  0.97340000  0.05840000  1
  O  O126  1  0.26620000  0.47080000  0.89770000  1
  O  O127  1  0.26620000  0.97080000  0.60230000  1
  O  O128  1  0.21330000  0.07190000  0.45290000  1
  O  O129  1  0.21330000  0.57190000  0.04710000  1
  O  O130  1  0.17140000  0.93320000  0.75360000  1
  O  O131  1  0.17140000  0.43320000  0.74640000  1
  O  O132  1  0.16750000  0.93160000  0.92050000  1
  O  O133  1  0.16750000  0.43160000  0.57950000  1
  O  O134  1  0.13570000  0.31870000  0.86850000  1
  O  O135  1  0.13570000  0.81870000  0.63150000  1
  O  O136  1  0.11730000  0.33750000  0.45570000  1
  O  O137  1  0.11730000  0.83750000  0.04430000  1
  O  O138  1  0.11530000  0.75740000  0.46880000  1
  O  O139  1  0.11530000  0.25740000  0.03120000  1
  O  O140  1  0.08910000  0.92650000  0.48230000  1
  O  O141  1  0.08910000  0.42650000  0.01770000  1
  O  O142  1  0.06830000  0.55980000  0.49770000  1
  O  O143  1  0.06830000  0.05980000  0.00230000  1
  O  O144  1  0.05650000  0.86360000  0.32880000  1
  O  O145  1  0.05650000  0.36360000  0.17120000  1
  O  O146  1  0.02800000  0.18600000  0.39990000  1
  O  O147  1  0.02800000  0.68600000  0.10010000  1
  O  O148  1  0.02340000  0.46540000  0.37110000  1
  O  O149  1  0.02340000  0.96540000  0.12890000  1
  O  O150  1  0.01390000  0.03500000  0.33470000  1
  O  O151  1  0.01390000  0.53500000  0.16530000  1
