# generated using pymatgen
data_Cd4In16H4C6S31N4
_symmetry_space_group_name_H-M   'P 1'
_cell_length_a   16.61600000
_cell_length_b   23.31630000
_cell_length_c   23.31629932
_cell_angle_alpha   82.70602094
_cell_angle_beta   69.12580441
_cell_angle_gamma   69.12590000
_symmetry_Int_Tables_number   1
_chemical_formula_structural   Cd4In16H4C6S31N4
_chemical_formula_sum   'Cd8 In32 H8 C12 S62 N8'
_cell_volume   7886.40691178
_cell_formula_units_Z   2
loop_
 _symmetry_equiv_pos_site_id
 _symmetry_equiv_pos_as_xyz
  1  'x, y, z'
loop_
 _atom_site_type_symbol
 _atom_site_label
 _atom_site_symmetry_multiplicity
 _atom_site_fract_x
 _atom_site_fract_y
 _atom_site_fract_z
 _atom_site_occupancy
  Cd  Cd0  1  0.84977000  0.04440000  0.08312000  1
  Cd  Cd1  1  0.97729000  0.95560000  0.91688000  1
  Cd  Cd2  1  0.40023000  0.41688000  0.45560000  1
  Cd  Cd3  1  0.27271000  0.58312000  0.54440000  1
  Cd  Cd4  1  0.14417000  0.45560000  0.58312000  1
  Cd  Cd5  1  0.18289000  0.54440000  0.41688000  1
  Cd  Cd6  1  0.10583000  0.91688000  0.04440000  1
  Cd  Cd7  1  0.06711000  0.08312000  0.95560000  1
  In  In8  1  0.18843000  0.99618000  0.79342000  1
  In  In9  1  0.36007000  0.33144000  0.61842000  1
  In  In10  1  0.52498000  0.54089000  0.41971000  1
  In  In11  1  0.23185000  0.49618000  0.70658000  1
  In  In12  1  0.81278000  0.76841000  0.12123000  1
  In  In13  1  0.54758000  0.62123000  0.26841000  1
  In  In14  1  0.81539000  0.20658000  0.99618000  1
  In  In15  1  0.76442000  0.91971000  0.04089000  1
  In  In16  1  0.94007000  0.11842000  0.83144000  1
  In  In17  1  0.27197000  0.29342000  0.49618000  1
  In  In18  1  0.43461000  0.50382000  0.29342000  1
  In  In19  1  0.30993000  0.66856000  0.38158000  1
  In  In20  1  0.02151000  0.61842000  0.66856000  1
  In  In21  1  0.72502000  0.08029000  0.95911000  1
  In  In22  1  0.30849000  0.38158000  0.33144000  1
  In  In23  1  0.70242000  0.23159000  0.87877000  1
  In  In24  1  0.06157000  0.70658000  0.50382000  1
  In  In25  1  0.18401000  0.26841000  0.37877000  1
  In  In26  1  0.05531000  0.41971000  0.45911000  1
  In  In27  1  0.93413000  0.58029000  0.54089000  1
  In  In28  1  0.83119000  0.73159000  0.62123000  1
  In  In29  1  0.06599000  0.12123000  0.23159000  1
  In  In30  1  0.19469000  0.04089000  0.08029000  1
  In  In31  1  0.31587000  0.95911000  0.91971000  1
  In  In32  1  0.41881000  0.87877000  0.76841000  1
  In  In33  1  0.97803000  0.00382000  0.20658000  1
  In  In34  1  0.43722000  0.37877000  0.73159000  1
  In  In35  1  0.22849000  0.83144000  0.88158000  1
  In  In36  1  0.48558000  0.45911000  0.58029000  1
  In  In37  1  0.94151000  0.16856000  0.11842000  1
  In  In38  1  0.88993000  0.88158000  0.16856000  1
  In  In39  1  0.01815000  0.79342000  0.00382000  1
  H  H40  1  0.81180000  0.64260000  0.07500000  1
  H  H41  1  0.72060000  0.57500000  0.14260000  1
  H  H42  1  0.13680000  0.14260000  0.42500000  1
  H  H43  1  0.11320000  0.07500000  0.35740000  1
  H  H44  1  0.52940000  0.35740000  0.92500000  1
  H  H45  1  0.43820000  0.42500000  0.85740000  1
  H  H46  1  0.70440000  0.85740000  0.57500000  1
  H  H47  1  0.54560000  0.92500000  0.64260000  1
  C  C48  1  0.77100000  0.65150000  0.11450000  1
  C  C49  1  0.68200000  0.69300000  0.19300000  1
  C  C50  1  0.71300000  0.61450000  0.15150000  1
  C  C51  1  0.13550000  0.15150000  0.38550000  1
  C  C52  1  0.11450000  0.11450000  0.34850000  1
  C  C53  1  0.12500000  0.19300000  0.30700000  1
  C  C54  1  0.53700000  0.34850000  0.88550000  1
  C  C55  1  0.56800000  0.30700000  0.80700000  1
  C  C56  1  0.47900000  0.38550000  0.84850000  1
  C  C57  1  0.62500000  0.80700000  0.69300000  1
  C  C58  1  0.67250000  0.84850000  0.61450000  1
  C  C59  1  0.57750000  0.88550000  0.65150000  1
  S  S60  1  0.00000000  0.00000000  0.00000000  1
  S  S61  1  0.62840000  0.58180000  0.34020000  1
  S  S62  1  0.33730000  0.54170000  0.62770000  1
  S  S63  1  0.12480000  0.91220000  0.83420000  1
  S  S64  1  0.83970000  0.24940000  0.07520000  1
  S  S65  1  0.33910000  0.25060000  0.57520000  1
  S  S66  1  0.78010000  0.96320000  0.12740000  1
  S  S67  1  0.50670000  0.45830000  0.37230000  1
  S  S68  1  0.96300000  0.16580000  0.91220000  1
  S  S69  1  0.20900000  0.41220000  0.66580000  1
  S  S70  1  0.91270000  0.87230000  0.95830000  1
  S  S71  1  0.37930000  0.62740000  0.46320000  1
  S  S72  1  0.08510000  0.07520000  0.75060000  1
  S  S73  1  0.08570000  0.57520000  0.74940000  1
  S  S74  1  0.37880000  0.33420000  0.41220000  1
  S  S75  1  0.74330000  0.12770000  0.04170000  1
  S  S76  1  0.69960000  0.84020000  0.08180000  1
  S  S77  1  0.25000000  0.50000000  0.50000000  1
  S  S78  1  0.53610000  0.54570000  0.21190000  1
  S  S79  1  0.87070000  0.03680000  0.87260000  1
  S  S80  1  0.41230000  0.71140000  0.30120000  1
  S  S81  1  0.12520000  0.66580000  0.58780000  1
  S  S82  1  0.25200000  0.21190000  0.45430000  1
  S  S83  1  0.71390000  0.28810000  0.95430000  1
  S  S84  1  0.12100000  0.37230000  0.54170000  1
  S  S85  1  0.41030000  0.42480000  0.25060000  1
  S  S86  1  0.65920000  0.00000000  0.00000000  1
  S  S87  1  0.83770000  0.19880000  0.78860000  1
  S  S88  1  0.28700000  0.58780000  0.33420000  1
  S  S89  1  0.99330000  0.53680000  0.62740000  1
  S  S90  1  0.16490000  0.74940000  0.42480000  1
  S  S91  1  0.87630000  0.69880000  0.71140000  1
  S  S92  1  0.28650000  0.30120000  0.28860000  1
  S  S93  1  0.62160000  0.15980000  0.91820000  1
  S  S94  1  0.15750000  0.46320000  0.37260000  1
  S  S95  1  0.03500000  0.62770000  0.45830000  1
  S  S96  1  0.91820000  0.78810000  0.54570000  1
  S  S97  1  0.03140000  0.34020000  0.41820000  1
  S  S98  1  0.90920000  0.50000000  0.50000000  1
  S  S99  1  0.21860000  0.08180000  0.15980000  1
  S  S100  1  0.78980000  0.65980000  0.58180000  1
  S  S101  1  0.34080000  0.00000000  0.00000000  1
  S  S102  1  0.46020000  0.91820000  0.84020000  1
  S  S103  1  0.99800000  0.04570000  0.28810000  1
  S  S104  1  0.12900000  0.95830000  0.12770000  1
  S  S105  1  0.25670000  0.87260000  0.96320000  1
  S  S106  1  0.55040000  0.41820000  0.65980000  1
  S  S107  1  0.37370000  0.78860000  0.80120000  1
  S  S108  1  0.96350000  0.21140000  0.19880000  1
  S  S109  1  0.91090000  0.92480000  0.24940000  1
  S  S110  1  0.09250000  0.12740000  0.03680000  1
  S  S111  1  0.04100000  0.83420000  0.08780000  1
  S  S112  1  0.42490000  0.28860000  0.69880000  1
  S  S113  1  0.59080000  0.50000000  0.50000000  1
  S  S114  1  0.16430000  0.75060000  0.92480000  1
  S  S115  1  0.21500000  0.04170000  0.87230000  1
  S  S116  1  0.29370000  0.45430000  0.78810000  1
  S  S117  1  0.33180000  0.95430000  0.71190000  1
  S  S118  1  0.87120000  0.08780000  0.16580000  1
  S  S119  1  0.82510000  0.80120000  0.21140000  1
  S  S120  1  0.46990000  0.37260000  0.53680000  1
  S  S121  1  0.95630000  0.71190000  0.04570000  1
  N  N122  1  0.75270000  0.69940000  0.14720000  1
  N  N123  1  0.65070000  0.64720000  0.19940000  1
  N  N124  1  0.14990000  0.19940000  0.35280000  1
  N  N125  1  0.59930000  0.30060000  0.85280000  1
  N  N126  1  0.10010000  0.14720000  0.30060000  1
  N  N127  1  0.70210000  0.80060000  0.64720000  1
  N  N128  1  0.49730000  0.35280000  0.80060000  1
  N  N129  1  0.54790000  0.85280000  0.69940000  1
