# generated using pymatgen
data_AgH6(C2N)4
_symmetry_space_group_name_H-M   'P 1'
_cell_length_a   9.74820000
_cell_length_b   10.81610000
_cell_length_c   10.81610000
_cell_angle_alpha   120.00000000
_cell_angle_beta   90.00000000
_cell_angle_gamma   90.00000000
_symmetry_Int_Tables_number   1
_chemical_formula_structural   AgH6(C2N)4
_chemical_formula_sum   'Ag3 H18 C24 N12'
_cell_volume   987.63495033
_cell_formula_units_Z   3
loop_
 _symmetry_equiv_pos_site_id
 _symmetry_equiv_pos_as_xyz
  1  'x, y, z'
loop_
 _atom_site_type_symbol
 _atom_site_label
 _atom_site_symmetry_multiplicity
 _atom_site_fract_x
 _atom_site_fract_y
 _atom_site_fract_z
 _atom_site_occupancy
  Ag  Ag0  1  0.66666667  0.51502000  0.51502000  1
  Ag  Ag1  1  1.00000000  0.48498000  0.00000000  1
  Ag  Ag2  1  0.33333333  0.00000000  0.48498000  1
  H  H3  1  0.64193000  0.89490000  0.35700000  1
  H  H4  1  0.14727000  0.82780000  0.60210000  1
  H  H5  1  0.81393000  0.77430000  0.17220000  1
  H  H6  1  0.53207000  0.76270000  0.49940000  1
  H  H7  1  0.19873000  0.73670000  0.23730000  1
  H  H8  1  0.97527000  0.64300000  0.53790000  1
  H  H9  1  0.18607000  0.60210000  0.82780000  1
  H  H10  1  0.35807000  0.53790000  0.64300000  1
  H  H11  1  0.86540000  0.50060000  0.26330000  1
  H  H12  1  0.80127000  0.49940000  0.76270000  1
  H  H13  1  0.30860000  0.46210000  0.10510000  1
  H  H14  1  0.48060000  0.39790000  0.22570000  1
  H  H15  1  0.69140000  0.35700000  0.89490000  1
  H  H16  1  0.46793000  0.26330000  0.50060000  1
  H  H17  1  0.13460000  0.23730000  0.73670000  1
  H  H18  1  0.85273000  0.22570000  0.39790000  1
  H  H19  1  0.51940000  0.17220000  0.77430000  1
  H  H20  1  0.02473000  0.10510000  0.46210000  1
  C  C21  1  0.64713000  0.99090000  0.38320000  1
  C  C22  1  0.89643000  0.95530000  0.32520000  1
  C  C23  1  0.89523000  0.81380000  0.22130000  1
  C  C24  1  0.12053000  0.79330000  0.26010000  1
  C  C25  1  0.22857000  0.77870000  0.59250000  1
  C  C26  1  0.45387000  0.73990000  0.53320000  1
  C  C27  1  0.22977000  0.67480000  0.63010000  1
  C  C28  1  0.10357000  0.63010000  0.67480000  1
  C  C29  1  0.98047000  0.61680000  0.60770000  1
  C  C30  1  0.35287000  0.60770000  0.61680000  1
  C  C31  1  0.10477000  0.59250000  0.77870000  1
  C  C32  1  0.87947000  0.53320000  0.73990000  1
  C  C33  1  0.78720000  0.46680000  0.20670000  1
  C  C34  1  0.56190000  0.40750000  0.18620000  1
  C  C35  1  0.31380000  0.39230000  0.00910000  1
  C  C36  1  0.68620000  0.38320000  0.99090000  1
  C  C37  1  0.56310000  0.36990000  0.04470000  1
  C  C38  1  0.43690000  0.32520000  0.95530000  1
  C  C39  1  0.21280000  0.26010000  0.79330000  1
  C  C40  1  0.43810000  0.22130000  0.81380000  1
  C  C41  1  0.54613000  0.20670000  0.46680000  1
  C  C42  1  0.77143000  0.18620000  0.40750000  1
  C  C43  1  0.77023000  0.04470000  0.36990000  1
  C  C44  1  0.01953000  0.00910000  0.39230000  1
  N  N45  1  0.13303000  0.92800000  0.36080000  1
  N  N46  1  0.34037000  0.81210000  0.54250000  1
  N  N47  1  0.00703000  0.73040000  0.18790000  1
  N  N48  1  0.46637000  0.63920000  0.56720000  1
  N  N49  1  0.86697000  0.56720000  0.63920000  1
  N  N50  1  0.99297000  0.54250000  0.81210000  1
  N  N51  1  0.67370000  0.45750000  0.26960000  1
  N  N52  1  0.79970000  0.43280000  0.07200000  1
  N  N53  1  0.20030000  0.36080000  0.92800000  1
  N  N54  1  0.65963000  0.26960000  0.45750000  1
  N  N55  1  0.32630000  0.18790000  0.73040000  1
  N  N56  1  0.53363000  0.07200000  0.43280000  1
