# generated using pymatgen
data_CuH16C18(NO2)2
_symmetry_space_group_name_H-M   'P 1'
_cell_length_a   7.74100000
_cell_length_b   15.59670000
_cell_length_c   15.59670967
_cell_angle_alpha   117.31897430
_cell_angle_beta   99.52295258
_cell_angle_gamma   99.52280000
_symmetry_Int_Tables_number   1
_chemical_formula_structural   CuH16C18(NO2)2
_chemical_formula_sum   'Cu3 H48 C54 N6 O12'
_cell_volume   1586.13687350
_cell_formula_units_Z   3
loop_
 _symmetry_equiv_pos_site_id
 _symmetry_equiv_pos_as_xyz
  1  'x, y, z'
loop_
 _atom_site_type_symbol
 _atom_site_label
 _atom_site_symmetry_multiplicity
 _atom_site_fract_x
 _atom_site_fract_y
 _atom_site_fract_z
 _atom_site_occupancy
  Cu  Cu0  1  0.50000000  1.00000000  0.50000000  1
  Cu  Cu1  1  0.00000000  0.50000000  0.50000000  1
  Cu  Cu2  1  0.50000000  0.50000000  0.00000000  1
  H  H3  1  0.54760000  0.23290000  0.53150000  1
  H  H4  1  0.85990000  0.48020000  0.81600000  1
  H  H5  1  0.19480000  0.66780000  0.12490000  1
  H  H6  1  0.64370000  0.53080000  0.55930000  1
  H  H7  1  0.08440000  0.44070000  0.97150000  1
  H  H8  1  0.45930000  0.27750000  0.32130000  1
  H  H9  1  0.62030000  0.66420000  0.48020000  1
  H  H10  1  0.13800000  0.67870000  0.95620000  1
  H  H11  1  0.52700000  0.45710000  0.33220000  1
  H  H12  1  0.40870000  0.80060000  0.19790000  1
  H  H13  1  0.52190000  0.18080000  0.30070000  1
  H  H14  1  0.01610000  0.46850000  0.70140000  1
  H  H15  1  0.55260000  0.23060000  0.23500000  1
  H  H16  1  0.31760000  0.76500000  0.99560000  1
  H  H17  1  0.22120000  0.69930000  0.88010000  1
  H  H18  1  0.88710000  0.97150000  0.53080000  1
  H  H19  1  0.04390000  0.18400000  0.66420000  1
  H  H20  1  0.78920000  0.19790000  0.39730000  1
  H  H21  1  0.60810000  0.39730000  0.19940000  1
  H  H22  1  0.67800000  0.99560000  0.23060000  1
  H  H23  1  0.68530000  0.70140000  0.23290000  1
  H  H24  1  0.18180000  0.04380000  0.72250000  1
  H  H25  1  0.93010000  0.12490000  0.45710000  1
  H  H26  1  0.65890000  0.88010000  0.18080000  1
  H  H27  1  0.34110000  0.11990000  0.81920000  1
  H  H28  1  0.06990000  0.87510000  0.54290000  1
  H  H29  1  0.81820000  0.95620000  0.27750000  1
  H  H30  1  0.31470000  0.29860000  0.76710000  1
  H  H31  1  0.32200000  0.00440000  0.76940000  1
  H  H32  1  0.39190000  0.60270000  0.80060000  1
  H  H33  1  0.21080000  0.80210000  0.60270000  1
  H  H34  1  0.95610000  0.81600000  0.33580000  1
  H  H35  1  0.11290000  0.02850000  0.46920000  1
  H  H36  1  0.77880000  0.30070000  0.11990000  1
  H  H37  1  0.68240000  0.23500000  0.00440000  1
  H  H38  1  0.44740000  0.76940000  0.76500000  1
  H  H39  1  0.98390000  0.53150000  0.29860000  1
  H  H40  1  0.47810000  0.81920000  0.69930000  1
  H  H41  1  0.59130000  0.19940000  0.80210000  1
  H  H42  1  0.47300000  0.54290000  0.66780000  1
  H  H43  1  0.86200000  0.32130000  0.04380000  1
  H  H44  1  0.37970000  0.33580000  0.51980000  1
  H  H45  1  0.54070000  0.72250000  0.67870000  1
  H  H46  1  0.91560000  0.55930000  0.02850000  1
  H  H47  1  0.35630000  0.46920000  0.44070000  1
  H  H48  1  0.80520000  0.33220000  0.87510000  1
  H  H49  1  0.14010000  0.51980000  0.18400000  1
  H  H50  1  0.45240000  0.76710000  0.46850000  1
  C  C51  1  0.71652000  0.16246000  0.69330000  1
  C  C52  1  0.81315000  0.49163000  0.76452000  1
  C  C53  1  0.90717000  0.32267000  0.85154000  1
  C  C54  1  0.68820000  0.52085000  0.61215000  1
  C  C55  1  0.41550000  0.47113000  0.32267000  1
  C  C56  1  0.57850000  0.78960000  0.48470000  1
  C  C57  1  0.35178000  0.48404000  0.24250000  1
  C  C58  1  0.89072000  0.24250000  0.75846000  1
  C  C59  1  0.42028000  0.85091000  0.26273000  1
  C  C60  1  0.07605000  0.38785000  0.90870000  1
  C  C61  1  0.67848000  0.72711000  0.49163000  1
  C  C62  1  0.90620000  0.48470000  0.69510000  1
  C  C63  1  0.55030000  0.24340000  0.30110000  1
  C  C64  1  0.57389000  0.93379000  0.30768000  1
  C  C65  1  0.44594000  0.46916000  0.16246000  1
  C  C66  1  0.24920000  0.69890000  0.94230000  1
  C  C67  1  0.83265000  0.90870000  0.52085000  1
  C  C68  1  0.04863000  0.23548000  0.72711000  1
  C  C69  1  0.86774000  0.75846000  0.51596000  1
  C  C70  1  0.73379000  0.30768000  0.37389000  1
  C  C71  1  0.94437000  0.85154000  0.52887000  1
  C  C72  1  0.56937000  0.41182000  0.14909000  1
  C  C73  1  0.21110000  0.30490000  0.78960000  1
  C  C74  1  0.35990000  0.62611000  0.93379000  1
  C  C75  1  0.84245000  0.26273000  0.41182000  1
  C  C76  1  0.97678000  0.69330000  0.53084000  1
  C  C77  1  0.69310000  0.94230000  0.24340000  1
  C  C78  1  0.30690000  0.05770000  0.75660000  1
  C  C79  1  0.02322000  0.30670000  0.46916000  1
  C  C80  1  0.15755000  0.73727000  0.58818000  1
  C  C81  1  0.64010000  0.37389000  0.06621000  1
  C  C82  1  0.78890000  0.69510000  0.21040000  1
  C  C83  1  0.43063000  0.58818000  0.85091000  1
  C  C84  1  0.05563000  0.14846000  0.47113000  1
  C  C85  1  0.26621000  0.69232000  0.62611000  1
  C  C86  1  0.13226000  0.24154000  0.48404000  1
  C  C87  1  0.95137000  0.76452000  0.27289000  1
  C  C88  1  0.16735000  0.09130000  0.47915000  1
  C  C89  1  0.75080000  0.30110000  0.05770000  1
  C  C90  1  0.55406000  0.53084000  0.83754000  1
  C  C91  1  0.42611000  0.06621000  0.69232000  1
  C  C92  1  0.44970000  0.75660000  0.69890000  1
  C  C93  1  0.09380000  0.51530000  0.30490000  1
  C  C94  1  0.32152000  0.27289000  0.50837000  1
  C  C95  1  0.92395000  0.61215000  0.09130000  1
  C  C96  1  0.57972000  0.14909000  0.73727000  1
  C  C97  1  0.10928000  0.75750000  0.24154000  1
  C  C98  1  0.64822000  0.51596000  0.75750000  1
  C  C99  1  0.42150000  0.21040000  0.51530000  1
  C  C100  1  0.58450000  0.52887000  0.67733000  1
  C  C101  1  0.31180000  0.47915000  0.38785000  1
  C  C102  1  0.09283000  0.67733000  0.14846000  1
  C  C103  1  0.18685000  0.50837000  0.23548000  1
  C  C104  1  0.28348000  0.83754000  0.30670000  1
  N  N105  1  0.65163000  0.88065000  0.49994000  1
  N  N106  1  0.84831000  0.49994000  0.61929000  1
  N  N107  1  0.22902000  0.38071000  0.88065000  1
  N  N108  1  0.77098000  0.61929000  0.11935000  1
  N  N109  1  0.15169000  0.50006000  0.38071000  1
  N  N110  1  0.34837000  0.11935000  0.50006000  1
  O  O111  1  0.71126000  0.10861000  0.60207000  1
  O  O112  1  0.62054000  0.00248000  0.39784000  1
  O  O113  1  0.39735000  0.50654000  0.10861000  1
  O  O114  1  0.38194000  0.60464000  0.00248000  1
  O  O115  1  0.77730000  0.39784000  0.39536000  1
  O  O116  1  0.89081000  0.60207000  0.49346000  1
  O  O117  1  0.10919000  0.39793000  0.50654000  1
  O  O118  1  0.22270000  0.60216000  0.60464000  1
  O  O119  1  0.61806000  0.39536000  0.99752000  1
  O  O120  1  0.60265000  0.49346000  0.89139000  1
  O  O121  1  0.37946000  0.99752000  0.60216000  1
  O  O122  1  0.28874000  0.89139000  0.39793000  1
