# generated using pymatgen
data_CuH28C28(N2O)4
_symmetry_space_group_name_H-M   'P 1'
_cell_length_a   9.38200000
_cell_length_b   18.80300000
_cell_length_c   21.29600000
_cell_angle_alpha   90.00000000
_cell_angle_beta   90.00000000
_cell_angle_gamma   90.00000000
_symmetry_Int_Tables_number   1
_chemical_formula_structural   CuH28C28(N2O)4
_chemical_formula_sum   'Cu4 H112 C112 N32 O16'
_cell_volume   3756.82195082
_cell_formula_units_Z   4
loop_
 _symmetry_equiv_pos_site_id
 _symmetry_equiv_pos_as_xyz
  1  'x, y, z'
loop_
 _atom_site_type_symbol
 _atom_site_label
 _atom_site_symmetry_multiplicity
 _atom_site_fract_x
 _atom_site_fract_y
 _atom_site_fract_z
 _atom_site_occupancy
  Cu  Cu0  1  0.98117000  0.38200000  0.11209000  1
  Cu  Cu1  1  0.98117000  0.88200000  0.38791000  1
  Cu  Cu2  1  0.01883000  0.38200000  0.61209000  1
  Cu  Cu3  1  0.01883000  0.88200000  0.88791000  1
  H  H4  1  0.71900000  0.72340000  0.00370000  1
  H  H5  1  0.56710000  0.10900000  0.01670000  1
  H  H6  1  0.88270000  0.49350000  0.02100000  1
  H  H7  1  0.95120000  0.86890000  0.02590000  1
  H  H8  1  0.68070000  0.61280000  0.04520000  1
  H  H9  1  0.34720000  0.17660000  0.04970000  1
  H  H10  1  0.52860000  0.25270000  0.05340000  1
  H  H11  1  0.27770000  0.01040000  0.05680000  1
  H  H12  1  0.71980000  0.30900000  0.06210000  1
  H  H13  1  0.64360000  0.00370000  0.07130000  1
  H  H14  1  0.57140000  0.66430000  0.07750000  1
  H  H15  1  0.42650000  0.91880000  0.08280000  1
  H  H16  1  0.81240000  0.91960000  0.09900000  1
  H  H17  1  0.24620000  0.47090000  0.10870000  1
  H  H18  1  0.24560000  0.29410000  0.13780000  1
  H  H19  1  0.72370000  0.44860000  0.17120000  1
  H  H20  1  0.63550000  0.84200000  0.17200000  1
  H  H21  1  0.19850000  0.91680000  0.17880000  1
  H  H22  1  0.36100000  0.82510000  0.18310000  1
  H  H23  1  0.51720000  0.49130000  0.18830000  1
  H  H24  1  0.56560000  0.62850000  0.18900000  1
  H  H25  1  0.39110000  0.70850000  0.19820000  1
  H  H26  1  0.78670000  0.75090000  0.20460000  1
  H  H27  1  0.92100000  0.26850000  0.20680000  1
  H  H28  1  0.34230000  0.56880000  0.21280000  1
  H  H29  1  0.39150000  0.06570000  0.21670000  1
  H  H30  1  0.05820000  0.44400000  0.23690000  1
  H  H31  1  0.59280000  0.13380000  0.23840000  1
  H  H32  1  0.59280000  0.63380000  0.26160000  1
  H  H33  1  0.05820000  0.94400000  0.26310000  1
  H  H34  1  0.39150000  0.56570000  0.28330000  1
  H  H35  1  0.34230000  0.06880000  0.28720000  1
  H  H36  1  0.92100000  0.76850000  0.29320000  1
  H  H37  1  0.78670000  0.25090000  0.29540000  1
  H  H38  1  0.39110000  0.20850000  0.30180000  1
  H  H39  1  0.56560000  0.12850000  0.31100000  1
  H  H40  1  0.51720000  0.99130000  0.31170000  1
  H  H41  1  0.36100000  0.32510000  0.31690000  1
  H  H42  1  0.19850000  0.41680000  0.32120000  1
  H  H43  1  0.63550000  0.34200000  0.32800000  1
  H  H44  1  0.72370000  0.94860000  0.32880000  1
  H  H45  1  0.24560000  0.79410000  0.36220000  1
  H  H46  1  0.24620000  0.97090000  0.39130000  1
  H  H47  1  0.81240000  0.41960000  0.40100000  1
  H  H48  1  0.42650000  0.41880000  0.41720000  1
  H  H49  1  0.57140000  0.16430000  0.42250000  1
  H  H50  1  0.64360000  0.50370000  0.42870000  1
  H  H51  1  0.71980000  0.80900000  0.43790000  1
  H  H52  1  0.27770000  0.51040000  0.44320000  1
  H  H53  1  0.52860000  0.75270000  0.44660000  1
  H  H54  1  0.34720000  0.67660000  0.45030000  1
  H  H55  1  0.68070000  0.11280000  0.45480000  1
  H  H56  1  0.95120000  0.36890000  0.47410000  1
  H  H57  1  0.88270000  0.99350000  0.47900000  1
  H  H58  1  0.56710000  0.60900000  0.48330000  1
  H  H59  1  0.71900000  0.22340000  0.49630000  1
  H  H60  1  0.28100000  0.72340000  0.50370000  1
  H  H61  1  0.43290000  0.10900000  0.51670000  1
  H  H62  1  0.11730000  0.49350000  0.52100000  1
  H  H63  1  0.04880000  0.86890000  0.52590000  1
  H  H64  1  0.31930000  0.61280000  0.54520000  1
  H  H65  1  0.65280000  0.17660000  0.54970000  1
  H  H66  1  0.47140000  0.25270000  0.55340000  1
  H  H67  1  0.72230000  0.01040000  0.55680000  1
  H  H68  1  0.28020000  0.30900000  0.56210000  1
  H  H69  1  0.35640000  0.00370000  0.57130000  1
  H  H70  1  0.42860000  0.66430000  0.57750000  1
  H  H71  1  0.57350000  0.91880000  0.58280000  1
  H  H72  1  0.18760000  0.91960000  0.59900000  1
  H  H73  1  0.75380000  0.47090000  0.60870000  1
  H  H74  1  0.75440000  0.29410000  0.63780000  1
  H  H75  1  0.27630000  0.44860000  0.67120000  1
  H  H76  1  0.36450000  0.84200000  0.67200000  1
  H  H77  1  0.80150000  0.91680000  0.67880000  1
  H  H78  1  0.63900000  0.82510000  0.68310000  1
  H  H79  1  0.48280000  0.49130000  0.68830000  1
  H  H80  1  0.43440000  0.62850000  0.68900000  1
  H  H81  1  0.60890000  0.70850000  0.69820000  1
  H  H82  1  0.21330000  0.75090000  0.70460000  1
  H  H83  1  0.07900000  0.26850000  0.70680000  1
  H  H84  1  0.65770000  0.56880000  0.71280000  1
  H  H85  1  0.60850000  0.06570000  0.71670000  1
  H  H86  1  0.94180000  0.44400000  0.73690000  1
  H  H87  1  0.40720000  0.13380000  0.73840000  1
  H  H88  1  0.40720000  0.63380000  0.76160000  1
  H  H89  1  0.94180000  0.94400000  0.76310000  1
  H  H90  1  0.60850000  0.56570000  0.78330000  1
  H  H91  1  0.65770000  0.06880000  0.78720000  1
  H  H92  1  0.07900000  0.76850000  0.79320000  1
  H  H93  1  0.21330000  0.25090000  0.79540000  1
  H  H94  1  0.60890000  0.20850000  0.80180000  1
  H  H95  1  0.43440000  0.12850000  0.81100000  1
  H  H96  1  0.48280000  0.99130000  0.81170000  1
  H  H97  1  0.63900000  0.32510000  0.81690000  1
  H  H98  1  0.80150000  0.41680000  0.82120000  1
  H  H99  1  0.36450000  0.34200000  0.82800000  1
  H  H100  1  0.27630000  0.94860000  0.82880000  1
  H  H101  1  0.75440000  0.79410000  0.86220000  1
  H  H102  1  0.75380000  0.97090000  0.89130000  1
  H  H103  1  0.18760000  0.41960000  0.90100000  1
  H  H104  1  0.57350000  0.41880000  0.91720000  1
  H  H105  1  0.42860000  0.16430000  0.92250000  1
  H  H106  1  0.35640000  0.50370000  0.92870000  1
  H  H107  1  0.28020000  0.80900000  0.93790000  1
  H  H108  1  0.72230000  0.51040000  0.94320000  1
  H  H109  1  0.47140000  0.75270000  0.94660000  1
  H  H110  1  0.65280000  0.67660000  0.95030000  1
  H  H111  1  0.31930000  0.11280000  0.95480000  1
  H  H112  1  0.04880000  0.36890000  0.97410000  1
  H  H113  1  0.11730000  0.99350000  0.97900000  1
  H  H114  1  0.43290000  0.60900000  0.98330000  1
  H  H115  1  0.28100000  0.22340000  0.99630000  1
  C  C116  1  0.37470000  0.85460000  0.00940000  1
  C  C117  1  0.36710000  0.19920000  0.00970000  1
  C  C118  1  0.88160000  0.90110000  0.01330000  1
  C  C119  1  0.81650000  0.45770000  0.01340000  1
  C  C120  1  0.32130000  0.49460000  0.02330000  1
  C  C121  1  0.48810000  0.80030000  0.02440000  1
  C  C122  1  0.27680000  0.96810000  0.03420000  1
  C  C123  1  0.72150000  0.34960000  0.03720000  1
  C  C124  1  0.59730000  0.64210000  0.03800000  1
  C  C125  1  0.69790000  0.98070000  0.04090000  1
  C  C126  1  0.44170000  0.53740000  0.04720000  1
  C  C127  1  0.36770000  0.91530000  0.04780000  1
  C  C128  1  0.79990000  0.93170000  0.05710000  1
  C  C129  1  0.23400000  0.46110000  0.06620000  1
  C  C130  1  0.23270000  0.31770000  0.17570000  1
  C  C131  1  0.73780000  0.40910000  0.19680000  1
  C  C132  1  0.68310000  0.84520000  0.21020000  1
  C  C133  1  0.20760000  0.89040000  0.21550000  1
  C  C134  1  0.41490000  0.23720000  0.21720000  1
  C  C135  1  0.30480000  0.83640000  0.21770000  1
  C  C136  1  0.85270000  0.30210000  0.21780000  1
  C  C137  1  0.31600000  0.29900000  0.22600000  1
  C  C138  1  0.56640000  0.96130000  0.22820000  1
  C  C139  1  0.77630000  0.79210000  0.22830000  1
  C  C140  1  0.51930000  0.63190000  0.22960000  1
  C  C141  1  0.12300000  0.40680000  0.23390000  1
  C  C142  1  0.42480000  0.56660000  0.24020000  1
  C  C143  1  0.66110000  0.90270000  0.24890000  1
  C  C144  1  0.66110000  0.40270000  0.25110000  1
  C  C145  1  0.42480000  0.06660000  0.25980000  1
  C  C146  1  0.12300000  0.90680000  0.26610000  1
  C  C147  1  0.51930000  0.13190000  0.27040000  1
  C  C148  1  0.77630000  0.29210000  0.27170000  1
  C  C149  1  0.56640000  0.46130000  0.27180000  1
  C  C150  1  0.31600000  0.79900000  0.27400000  1
  C  C151  1  0.85270000  0.80210000  0.28220000  1
  C  C152  1  0.30480000  0.33640000  0.28230000  1
  C  C153  1  0.41490000  0.73720000  0.28280000  1
  C  C154  1  0.20760000  0.39040000  0.28450000  1
  C  C155  1  0.68310000  0.34520000  0.28980000  1
  C  C156  1  0.73780000  0.90910000  0.30320000  1
  C  C157  1  0.23270000  0.81770000  0.32430000  1
  C  C158  1  0.23400000  0.96110000  0.43380000  1
  C  C159  1  0.79990000  0.43170000  0.44290000  1
  C  C160  1  0.36770000  0.41530000  0.45220000  1
  C  C161  1  0.44170000  0.03740000  0.45280000  1
  C  C162  1  0.69790000  0.48070000  0.45910000  1
  C  C163  1  0.59730000  0.14210000  0.46200000  1
  C  C164  1  0.72150000  0.84960000  0.46280000  1
  C  C165  1  0.27680000  0.46810000  0.46580000  1
  C  C166  1  0.48810000  0.30030000  0.47560000  1
  C  C167  1  0.32130000  0.99460000  0.47670000  1
  C  C168  1  0.81650000  0.95770000  0.48660000  1
  C  C169  1  0.88160000  0.40110000  0.48670000  1
  C  C170  1  0.36710000  0.69920000  0.49030000  1
  C  C171  1  0.37470000  0.35460000  0.49060000  1
  C  C172  1  0.62530000  0.85460000  0.50940000  1
  C  C173  1  0.63290000  0.19920000  0.50970000  1
  C  C174  1  0.11840000  0.90110000  0.51330000  1
  C  C175  1  0.18350000  0.45770000  0.51340000  1
  C  C176  1  0.67870000  0.49460000  0.52330000  1
  C  C177  1  0.51190000  0.80030000  0.52440000  1
  C  C178  1  0.72320000  0.96810000  0.53420000  1
  C  C179  1  0.27850000  0.34960000  0.53720000  1
  C  C180  1  0.40270000  0.64210000  0.53800000  1
  C  C181  1  0.30210000  0.98070000  0.54090000  1
  C  C182  1  0.55830000  0.53740000  0.54720000  1
  C  C183  1  0.63230000  0.91530000  0.54780000  1
  C  C184  1  0.20010000  0.93170000  0.55710000  1
  C  C185  1  0.76600000  0.46110000  0.56620000  1
  C  C186  1  0.76730000  0.31770000  0.67570000  1
  C  C187  1  0.26220000  0.40910000  0.69680000  1
  C  C188  1  0.31690000  0.84520000  0.71020000  1
  C  C189  1  0.79240000  0.89040000  0.71550000  1
  C  C190  1  0.58510000  0.23720000  0.71720000  1
  C  C191  1  0.69520000  0.83640000  0.71770000  1
  C  C192  1  0.14730000  0.30210000  0.71780000  1
  C  C193  1  0.68400000  0.29900000  0.72600000  1
  C  C194  1  0.43360000  0.96130000  0.72820000  1
  C  C195  1  0.22370000  0.79210000  0.72830000  1
  C  C196  1  0.48070000  0.63190000  0.72960000  1
  C  C197  1  0.87700000  0.40680000  0.73390000  1
  C  C198  1  0.57520000  0.56660000  0.74020000  1
  C  C199  1  0.33890000  0.90270000  0.74890000  1
  C  C200  1  0.33890000  0.40270000  0.75110000  1
  C  C201  1  0.57520000  0.06660000  0.75980000  1
  C  C202  1  0.87700000  0.90680000  0.76610000  1
  C  C203  1  0.48070000  0.13190000  0.77040000  1
  C  C204  1  0.22370000  0.29210000  0.77170000  1
  C  C205  1  0.43360000  0.46130000  0.77180000  1
  C  C206  1  0.68400000  0.79900000  0.77400000  1
  C  C207  1  0.14730000  0.80210000  0.78220000  1
  C  C208  1  0.69520000  0.33640000  0.78230000  1
  C  C209  1  0.58510000  0.73720000  0.78280000  1
  C  C210  1  0.79240000  0.39040000  0.78450000  1
  C  C211  1  0.31690000  0.34520000  0.78980000  1
  C  C212  1  0.26220000  0.90910000  0.80320000  1
  C  C213  1  0.76730000  0.81770000  0.82430000  1
  C  C214  1  0.76600000  0.96110000  0.93380000  1
  C  C215  1  0.20010000  0.43170000  0.94290000  1
  C  C216  1  0.63230000  0.41530000  0.95220000  1
  C  C217  1  0.55830000  0.03740000  0.95280000  1
  C  C218  1  0.30210000  0.48070000  0.95910000  1
  C  C219  1  0.40270000  0.14210000  0.96200000  1
  C  C220  1  0.27850000  0.84960000  0.96280000  1
  C  C221  1  0.72320000  0.46810000  0.96580000  1
  C  C222  1  0.51190000  0.30030000  0.97560000  1
  C  C223  1  0.67870000  0.99460000  0.97670000  1
  C  C224  1  0.18350000  0.95770000  0.98660000  1
  C  C225  1  0.11840000  0.40110000  0.98670000  1
  C  C226  1  0.63290000  0.69920000  0.99030000  1
  C  C227  1  0.62530000  0.35460000  0.99060000  1
  N  N228  1  0.47930000  0.59700000  0.01640000  1
  N  N229  1  0.48120000  0.25270000  0.01880000  1
  N  N230  1  0.13300000  0.41520000  0.04900000  1
  N  N231  1  0.82140000  0.40030000  0.05060000  1
  N  N232  1  0.13280000  0.36910000  0.17940000  1
  N  N233  1  0.83290000  0.35950000  0.17950000  1
  N  N234  1  0.50610000  0.50330000  0.22700000  1
  N  N235  1  0.43370000  0.69590000  0.23220000  1
  N  N236  1  0.43370000  0.19590000  0.26780000  1
  N  N237  1  0.50610000  0.00330000  0.27300000  1
  N  N238  1  0.83290000  0.85950000  0.32050000  1
  N  N239  1  0.13280000  0.86910000  0.32060000  1
  N  N240  1  0.82140000  0.90030000  0.44940000  1
  N  N241  1  0.13300000  0.91520000  0.45100000  1
  N  N242  1  0.48120000  0.75270000  0.48120000  1
  N  N243  1  0.47930000  0.09700000  0.48360000  1
  N  N244  1  0.52070000  0.59700000  0.51640000  1
  N  N245  1  0.51880000  0.25270000  0.51880000  1
  N  N246  1  0.86700000  0.41520000  0.54900000  1
  N  N247  1  0.17860000  0.40030000  0.55060000  1
  N  N248  1  0.86720000  0.36910000  0.67940000  1
  N  N249  1  0.16710000  0.35950000  0.67950000  1
  N  N250  1  0.49390000  0.50330000  0.72700000  1
  N  N251  1  0.56630000  0.69590000  0.73220000  1
  N  N252  1  0.56630000  0.19590000  0.76780000  1
  N  N253  1  0.49390000  0.00330000  0.77300000  1
  N  N254  1  0.16710000  0.85950000  0.82050000  1
  N  N255  1  0.86720000  0.86910000  0.82060000  1
  N  N256  1  0.17860000  0.90030000  0.94940000  1
  N  N257  1  0.86700000  0.91520000  0.95100000  1
  N  N258  1  0.51880000  0.75270000  0.98120000  1
  N  N259  1  0.52070000  0.09700000  0.98360000  1
  O  O260  1  0.54990000  0.80060000  0.07530000  1
  O  O261  1  0.50400000  0.52130000  0.09680000  1
  O  O262  1  0.47780000  0.22880000  0.16750000  1
  O  O263  1  0.53790000  0.96950000  0.17160000  1
  O  O264  1  0.53790000  0.46950000  0.32840000  1
  O  O265  1  0.47780000  0.72880000  0.33250000  1
  O  O266  1  0.50400000  0.02130000  0.40320000  1
  O  O267  1  0.54990000  0.30060000  0.42470000  1
  O  O268  1  0.45010000  0.80060000  0.57530000  1
  O  O269  1  0.49600000  0.52130000  0.59680000  1
  O  O270  1  0.52220000  0.22880000  0.66750000  1
  O  O271  1  0.46210000  0.96950000  0.67160000  1
  O  O272  1  0.46210000  0.46950000  0.82840000  1
  O  O273  1  0.52220000  0.72880000  0.83250000  1
  O  O274  1  0.49600000  0.02130000  0.90320000  1
  O  O275  1  0.45010000  0.30060000  0.92470000  1
