# generated using pymatgen
data_MnH4(C2O)4
_symmetry_space_group_name_H-M   'P 1'
_cell_length_a   11.28670000
_cell_length_b   13.06960000
_cell_length_c   13.06960000
_cell_angle_alpha   90.00000000
_cell_angle_beta   90.00000000
_cell_angle_gamma   90.00000000
_symmetry_Int_Tables_number   1
_chemical_formula_structural   MnH4(C2O)4
_chemical_formula_sum   'Mn8 H32 C64 O32'
_cell_volume   1927.93138690
_cell_formula_units_Z   8
loop_
 _symmetry_equiv_pos_site_id
 _symmetry_equiv_pos_as_xyz
  1  'x, y, z'
loop_
 _atom_site_type_symbol
 _atom_site_label
 _atom_site_symmetry_multiplicity
 _atom_site_fract_x
 _atom_site_fract_y
 _atom_site_fract_z
 _atom_site_occupancy
  Mn  Mn0  1  0.35474000  0.01037000  0.74303000  1
  Mn  Mn1  1  0.70790000  0.21927000  0.25006000  1
  Mn  Mn2  1  0.45790000  0.25006000  0.78073000  1
  Mn  Mn3  1  0.60474000  0.25697000  0.01037000  1
  Mn  Mn4  1  0.10474000  0.74303000  0.98963000  1
  Mn  Mn5  1  0.95790000  0.74994000  0.21927000  1
  Mn  Mn6  1  0.20790000  0.78073000  0.74994000  1
  Mn  Mn7  1  0.85474000  0.98963000  0.25697000  1
  H  H8  1  0.96440000  0.00140000  0.98900000  1
  H  H9  1  0.21440000  0.01100000  0.00140000  1
  H  H10  1  0.14640000  0.07740000  0.29490000  1
  H  H11  1  0.10130000  0.12100000  0.49930000  1
  H  H12  1  0.08250000  0.12120000  0.72540000  1
  H  H13  1  0.24510000  0.23270000  0.27540000  1
  H  H14  1  0.33250000  0.27460000  0.12120000  1
  H  H15  1  0.99510000  0.27540000  0.76730000  1
  H  H16  1  0.89640000  0.29490000  0.92260000  1
  H  H17  1  0.76980000  0.34280000  0.62380000  1
  H  H18  1  0.30160000  0.37400000  0.52860000  1
  H  H19  1  0.01980000  0.37620000  0.34280000  1
  H  H20  1  0.93000000  0.41170000  0.54120000  1
  H  H21  1  0.18000000  0.45880000  0.41170000  1
  H  H22  1  0.55160000  0.47140000  0.37400000  1
  H  H23  1  0.85130000  0.49930000  0.87900000  1
  H  H24  1  0.35130000  0.50070000  0.12100000  1
  H  H25  1  0.05160000  0.52860000  0.62600000  1
  H  H26  1  0.68000000  0.54120000  0.58830000  1
  H  H27  1  0.43000000  0.58830000  0.45880000  1
  H  H28  1  0.51980000  0.62380000  0.65720000  1
  H  H29  1  0.80160000  0.62600000  0.47140000  1
  H  H30  1  0.26980000  0.65720000  0.37620000  1
  H  H31  1  0.39640000  0.70510000  0.07740000  1
  H  H32  1  0.49510000  0.72460000  0.23270000  1
  H  H33  1  0.83250000  0.72540000  0.87880000  1
  H  H34  1  0.74510000  0.76730000  0.72460000  1
  H  H35  1  0.58250000  0.87880000  0.27460000  1
  H  H36  1  0.60130000  0.87900000  0.50070000  1
  H  H37  1  0.64640000  0.92260000  0.70510000  1
  H  H38  1  0.71440000  0.98900000  0.99860000  1
  H  H39  1  0.46440000  0.99860000  0.01100000  1
  C  C40  1  0.16960000  0.02880000  0.15080000  1
  C  C41  1  0.03160000  0.04540000  0.85190000  1
  C  C42  1  0.58870000  0.05520000  0.17240000  1
  C  C43  1  0.22080000  0.05540000  0.05670000  1
  C  C44  1  0.97080000  0.05670000  0.94460000  1
  C  C45  1  0.60910000  0.07250000  0.84110000  1
  C  C46  1  0.17960000  0.09460000  0.23200000  1
  C  C47  1  0.04130000  0.12780000  0.78660000  1
  C  C48  1  0.28160000  0.14810000  0.04540000  1
  C  C49  1  0.91960000  0.15080000  0.97120000  1
  C  C50  1  0.85910000  0.15890000  0.07250000  1
  C  C51  1  0.33870000  0.17240000  0.94480000  1
  C  C52  1  0.29290000  0.18660000  0.60260000  1
  C  C53  1  0.23980000  0.18780000  0.22050000  1
  C  C54  1  0.11660000  0.18890000  0.48250000  1
  C  C55  1  0.93740000  0.18980000  0.36490000  1
  C  C56  1  0.29130000  0.21340000  0.12780000  1
  C  C57  1  0.98980000  0.22050000  0.81220000  1
  C  C58  1  0.92960000  0.23200000  0.90540000  1
  C  C59  1  0.21330000  0.23920000  0.52520000  1
  C  C60  1  0.04250000  0.24100000  0.41440000  1
  C  C61  1  0.23720000  0.34040000  0.49960000  1
  C  C62  1  0.06840000  0.34180000  0.38880000  1
  C  C63  1  0.68740000  0.36490000  0.81020000  1
  C  C64  1  0.81840000  0.38880000  0.65820000  1
  C  C65  1  0.16390000  0.39140000  0.42990000  1
  C  C66  1  0.54290000  0.39740000  0.18660000  1
  C  C67  1  0.79250000  0.41440000  0.75900000  1
  C  C68  1  0.91390000  0.42990000  0.60860000  1
  C  C69  1  0.46330000  0.47480000  0.23920000  1
  C  C70  1  0.86660000  0.48250000  0.81110000  1
  C  C71  1  0.98720000  0.49960000  0.65960000  1
  C  C72  1  0.48720000  0.50040000  0.34040000  1
  C  C73  1  0.36660000  0.51750000  0.18890000  1
  C  C74  1  0.96330000  0.52520000  0.76080000  1
  C  C75  1  0.41390000  0.57010000  0.39140000  1
  C  C76  1  0.29250000  0.58560000  0.24100000  1
  C  C77  1  0.04290000  0.60260000  0.81340000  1
  C  C78  1  0.66390000  0.60860000  0.57010000  1
  C  C79  1  0.31840000  0.61120000  0.34180000  1
  C  C80  1  0.18740000  0.63510000  0.18980000  1
  C  C81  1  0.56840000  0.65820000  0.61120000  1
  C  C82  1  0.73720000  0.65960000  0.50040000  1
  C  C83  1  0.54250000  0.75900000  0.58560000  1
  C  C84  1  0.71330000  0.76080000  0.47480000  1
  C  C85  1  0.42960000  0.76800000  0.09460000  1
  C  C86  1  0.48980000  0.77950000  0.18780000  1
  C  C87  1  0.79130000  0.78660000  0.87220000  1
  C  C88  1  0.43740000  0.81020000  0.63510000  1
  C  C89  1  0.61660000  0.81110000  0.51750000  1
  C  C90  1  0.73980000  0.81220000  0.77950000  1
  C  C91  1  0.79290000  0.81340000  0.39740000  1
  C  C92  1  0.83870000  0.82760000  0.05520000  1
  C  C93  1  0.35910000  0.84110000  0.92750000  1
  C  C94  1  0.41960000  0.84920000  0.02880000  1
  C  C95  1  0.78160000  0.85190000  0.95460000  1
  C  C96  1  0.54130000  0.87220000  0.21340000  1
  C  C97  1  0.67960000  0.90540000  0.76800000  1
  C  C98  1  0.10910000  0.92750000  0.15890000  1
  C  C99  1  0.47080000  0.94330000  0.05540000  1
  C  C100  1  0.72080000  0.94460000  0.94330000  1
  C  C101  1  0.08870000  0.94480000  0.82760000  1
  C  C102  1  0.53160000  0.95460000  0.14810000  1
  C  C103  1  0.66960000  0.97120000  0.84920000  1
  O  O104  1  0.66930000  0.05650000  0.23990000  1
  O  O105  1  0.53090000  0.08750000  0.77210000  1
  O  O106  1  0.92880000  0.09480000  0.36760000  1
  O  O107  1  0.27560000  0.09510000  0.62280000  1
  O  O108  1  0.88840000  0.09630000  0.14030000  1
  O  O109  1  0.30730000  0.12760000  0.86460000  1
  O  O110  1  0.55730000  0.13540000  0.12760000  1
  O  O111  1  0.63840000  0.14030000  0.90370000  1
  O  O112  1  0.78090000  0.22790000  0.08750000  1
  O  O113  1  0.41930000  0.23990000  0.94350000  1
  O  O114  1  0.37220000  0.24080000  0.64300000  1
  O  O115  1  0.86610000  0.25000000  0.32180000  1
  O  O116  1  0.61610000  0.32180000  0.75000000  1
  O  O117  1  0.62220000  0.35700000  0.24080000  1
  O  O118  1  0.67880000  0.36760000  0.90520000  1
  O  O119  1  0.52560000  0.37720000  0.09510000  1
  O  O120  1  0.02560000  0.62280000  0.90490000  1
  O  O121  1  0.17880000  0.63240000  0.09480000  1
  O  O122  1  0.12220000  0.64300000  0.75920000  1
  O  O123  1  0.11610000  0.67820000  0.25000000  1
  O  O124  1  0.36610000  0.75000000  0.67820000  1
  O  O125  1  0.87220000  0.75920000  0.35700000  1
  O  O126  1  0.91930000  0.76010000  0.05650000  1
  O  O127  1  0.28090000  0.77210000  0.91250000  1
  O  O128  1  0.13840000  0.85970000  0.09630000  1
  O  O129  1  0.05730000  0.86460000  0.87240000  1
  O  O130  1  0.80730000  0.87240000  0.13540000  1
  O  O131  1  0.38840000  0.90370000  0.85970000  1
  O  O132  1  0.77560000  0.90490000  0.37720000  1
  O  O133  1  0.42880000  0.90520000  0.63240000  1
  O  O134  1  0.03090000  0.91250000  0.22790000  1
  O  O135  1  0.16930000  0.94350000  0.76010000  1
