# generated using pymatgen
data_MnH16(C11O4)2
_symmetry_space_group_name_H-M   'P 1'
_cell_length_a   13.43190000
_cell_length_b   16.21600000
_cell_length_c   16.29110000
_cell_angle_alpha   108.09900000
_cell_angle_beta   102.65200000
_cell_angle_gamma   106.18800000
_symmetry_Int_Tables_number   1
_chemical_formula_structural   MnH16(C11O4)2
_chemical_formula_sum   'Mn3 H48 C66 O24'
_cell_volume   3052.13964861
_cell_formula_units_Z   3
loop_
 _symmetry_equiv_pos_site_id
 _symmetry_equiv_pos_as_xyz
  1  'x, y, z'
loop_
 _atom_site_type_symbol
 _atom_site_label
 _atom_site_symmetry_multiplicity
 _atom_site_fract_x
 _atom_site_fract_y
 _atom_site_fract_z
 _atom_site_occupancy
  Mn  Mn0  1  0.20488000  0.37799000  0.39936000  1
  Mn  Mn1  1  0.50000000  0.50000000  0.50000000  1
  Mn  Mn2  1  0.79512000  0.62201000  0.60064000  1
  H  H3  1  0.08520000  0.59430000  0.80730000  1
  H  H4  1  0.11770000  0.85580000  0.83040000  1
  H  H5  1  0.18830000  0.19850000  0.55420000  1
  H  H6  1  0.20310000  0.64160000  0.63060000  1
  H  H7  1  0.20950000  0.10700000  0.63710000  1
  H  H8  1  0.21550000  0.19890000  0.15710000  1
  H  H9  1  0.22410000  0.09540000  0.02720000  1
  H  H10  1  0.24740000  0.65630000  0.93180000  1
  H  H11  1  0.26620000  0.79930000  0.72590000  1
  H  H12  1  0.27310000  0.91760000  0.95990000  1
  H  H13  1  0.31910000  0.96060000  0.76830000  1
  H  H14  1  0.32980000  0.10800000  0.87460000  1
  H  H15  1  0.38620000  0.93740000  0.84710000  1
  H  H16  1  0.38900000  0.94580000  0.11780000  1
  H  H17  1  0.44020000  0.94630000  0.03760000  1
  H  H18  1  0.44550000  0.18880000  0.94310000  1
  H  H19  1  0.44860000  0.77610000  0.88090000  1
  H  H20  1  0.45950000  0.67010000  0.74940000  1
  H  H21  1  0.46010000  0.69520000  0.53760000  1
  H  H22  1  0.46210000  0.78230000  0.29610000  1
  H  H23  1  0.47470000  0.14930000  0.36430000  1
  H  H24  1  0.47470000  0.90460000  0.24250000  1
  H  H25  1  0.47500000  0.81080000  0.17060000  1
  H  H26  1  0.48230000  0.69490000  0.38280000  1
  H  H27  1  0.51770000  0.30510000  0.61720000  1
  H  H28  1  0.52500000  0.18920000  0.82940000  1
  H  H29  1  0.52530000  0.09540000  0.75750000  1
  H  H30  1  0.52530000  0.85070000  0.63570000  1
  H  H31  1  0.53790000  0.21770000  0.70390000  1
  H  H32  1  0.53990000  0.30480000  0.46240000  1
  H  H33  1  0.54050000  0.32990000  0.25060000  1
  H  H34  1  0.55140000  0.22390000  0.11910000  1
  H  H35  1  0.55450000  0.81120000  0.05690000  1
  H  H36  1  0.55980000  0.05370000  0.96240000  1
  H  H37  1  0.61100000  0.05420000  0.88220000  1
  H  H38  1  0.61380000  0.06260000  0.15290000  1
  H  H39  1  0.67020000  0.89200000  0.12540000  1
  H  H40  1  0.68090000  0.03940000  0.23170000  1
  H  H41  1  0.72690000  0.08240000  0.04010000  1
  H  H42  1  0.73380000  0.20070000  0.27410000  1
  H  H43  1  0.75260000  0.34370000  0.06820000  1
  H  H44  1  0.77590000  0.90460000  0.97280000  1
  H  H45  1  0.78450000  0.80110000  0.84290000  1
  H  H46  1  0.79050000  0.89300000  0.36290000  1
  H  H47  1  0.79690000  0.35840000  0.36940000  1
  H  H48  1  0.81170000  0.80150000  0.44580000  1
  H  H49  1  0.88230000  0.14420000  0.16960000  1
  H  H50  1  0.91480000  0.40570000  0.19270000  1
  C  C51  1  0.01770000  0.32000000  0.27480000  1
  C  C52  1  0.08630000  0.72010000  0.80600000  1
  C  C53  1  0.12420000  0.66010000  0.83700000  1
  C  C54  1  0.14310000  0.81460000  0.85180000  1
  C  C55  1  0.21970000  0.69730000  0.91200000  1
  C  C56  1  0.23600000  0.85180000  0.92810000  1
  C  C57  1  0.25970000  0.20260000  0.58430000  1
  C  C58  1  0.26860000  0.68420000  0.63140000  1
  C  C59  1  0.27270000  0.14970000  0.63490000  1
  C  C60  1  0.27450000  0.79130000  0.95760000  1
  C  C61  1  0.28490000  0.20520000  0.14940000  1
  C  C62  1  0.28630000  0.55210000  0.51610000  1
  C  C63  1  0.28990000  0.14300000  0.07260000  1
  C  C64  1  0.30630000  0.77770000  0.68850000  1
  C  C65  1  0.32590000  0.65150000  0.57450000  1
  C  C66  1  0.34000000  0.32270000  0.52630000  1
  C  C67  1  0.35240000  0.26210000  0.57790000  1
  C  C68  1  0.36890000  0.34510000  0.29970000  1
  C  C69  1  0.37490000  0.15770000  0.68180000  1
  C  C70  1  0.37810000  0.27690000  0.21570000  1
  C  C71  1  0.38850000  0.14890000  0.06120000  1
  C  C72  1  0.39350000  0.96940000  0.80460000  1
  C  C73  1  0.40230000  0.83930000  0.69100000  1
  C  C74  1  0.40400000  0.12030000  0.91460000  1
  C  C75  1  0.42110000  0.71570000  0.57670000  1
  C  C76  1  0.42840000  0.91600000  0.08070000  1
  C  C77  1  0.45420000  0.26580000  0.62230000  1
  C  C78  1  0.45950000  0.80790000  0.63440000  1
  C  C79  1  0.46290000  0.07280000  0.85800000  1
  C  C80  1  0.46680000  0.21430000  0.67400000  1
  C  C81  1  0.47500000  0.28230000  0.20480000  1
  C  C82  1  0.48190000  0.21840000  0.12640000  1
  C  C83  1  0.48270000  0.12140000  0.79380000  1
  C  C84  1  0.51730000  0.87860000  0.20620000  1
  C  C85  1  0.51810000  0.78160000  0.87360000  1
  C  C86  1  0.52500000  0.71770000  0.79520000  1
  C  C87  1  0.53320000  0.78570000  0.32600000  1
  C  C88  1  0.53710000  0.92720000  0.14200000  1
  C  C89  1  0.54050000  0.19210000  0.36560000  1
  C  C90  1  0.54580000  0.73420000  0.37770000  1
  C  C91  1  0.57160000  0.08400000  0.91930000  1
  C  C92  1  0.57890000  0.28430000  0.42330000  1
  C  C93  1  0.59600000  0.87970000  0.08540000  1
  C  C94  1  0.59770000  0.16070000  0.30900000  1
  C  C95  1  0.60650000  0.03060000  0.19540000  1
  C  C96  1  0.61150000  0.85110000  0.93880000  1
  C  C97  1  0.62190000  0.72310000  0.78430000  1
  C  C98  1  0.62510000  0.84230000  0.31820000  1
  C  C99  1  0.63110000  0.65490000  0.70030000  1
  C  C100  1  0.64760000  0.73790000  0.42210000  1
  C  C101  1  0.66000000  0.67730000  0.47370000  1
  C  C102  1  0.67410000  0.34850000  0.42550000  1
  C  C103  1  0.69370000  0.22230000  0.31150000  1
  C  C104  1  0.71010000  0.85700000  0.92740000  1
  C  C105  1  0.71370000  0.44790000  0.48390000  1
  C  C106  1  0.71510000  0.79480000  0.85060000  1
  C  C107  1  0.72550000  0.20870000  0.04240000  1
  C  C108  1  0.72730000  0.85030000  0.36510000  1
  C  C109  1  0.73140000  0.31580000  0.36860000  1
  C  C110  1  0.74030000  0.79740000  0.41570000  1
  C  C111  1  0.76400000  0.14820000  0.07190000  1
  C  C112  1  0.78030000  0.30270000  0.08800000  1
  C  C113  1  0.85690000  0.18540000  0.14820000  1
  C  C114  1  0.87580000  0.33990000  0.16300000  1
  C  C115  1  0.91370000  0.27990000  0.19400000  1
  C  C116  1  0.98230000  0.68000000  0.72520000  1
  O  O117  1  0.03820000  0.26880000  0.31463000  1
  O  O118  1  0.08420000  0.40280000  0.29838000  1
  O  O119  1  0.19660000  0.49606000  0.50984000  1
  O  O120  1  0.24300000  0.30890000  0.48304000  1
  O  O121  1  0.27590000  0.33140000  0.30401000  1
  O  O122  1  0.34120000  0.52166000  0.46698000  1
  O  O123  1  0.36520000  0.81839000  0.03119000  1
  O  O124  1  0.37770000  0.10607000  0.73426000  1
  O  O125  1  0.39410000  0.08509000  0.98599000  1
  O  O126  1  0.42570000  0.38263000  0.53183000  1
  O  O127  1  0.44830000  0.93179000  0.74545000  1
  O  O128  1  0.45640000  0.40794000  0.35825000  1
  O  O129  1  0.54360000  0.59206000  0.64175000  1
  O  O130  1  0.55170000  0.06821000  0.25455000  1
  O  O131  1  0.57430000  0.61737000  0.46817000  1
  O  O132  1  0.60590000  0.91491000  0.01401000  1
  O  O133  1  0.62230000  0.89393000  0.26574000  1
  O  O134  1  0.63480000  0.18161000  0.96881000  1
  O  O135  1  0.65880000  0.47834000  0.53302000  1
  O  O136  1  0.72410000  0.66860000  0.69599000  1
  O  O137  1  0.75700000  0.69110000  0.51696000  1
  O  O138  1  0.80340000  0.50394000  0.49016000  1
  O  O139  1  0.91580000  0.59720000  0.70162000  1
  O  O140  1  0.96180000  0.73120000  0.68537000  1
