# generated using pymatgen
data_LuH4(CO2)4
_symmetry_space_group_name_H-M   'P 1'
_cell_length_a   6.61740000
_cell_length_b   8.37770000
_cell_length_c   9.68284543
_cell_angle_alpha   90.00000000
_cell_angle_beta   109.98093268
_cell_angle_gamma   90.00000000
_symmetry_Int_Tables_number   1
_chemical_formula_structural   LuH4(CO2)4
_chemical_formula_sum   'Lu2 H8 C8 O16'
_cell_volume   504.49118702
_cell_formula_units_Z   2
loop_
 _symmetry_equiv_pos_site_id
 _symmetry_equiv_pos_as_xyz
  1  'x, y, z'
loop_
 _atom_site_type_symbol
 _atom_site_label
 _atom_site_symmetry_multiplicity
 _atom_site_fract_x
 _atom_site_fract_y
 _atom_site_fract_z
 _atom_site_occupancy
  C  C0  1  0.62600000  0.25000000  0.25200000  1
  C  C1  1  0.37400000  0.75000000  0.74800000  1
  C  C2  1  0.92350000  0.50000000  1.00000000  1
  C  C3  1  0.51990000  0.02270000  0.51200000  1
  C  C4  1  0.00790000  0.97730000  0.48800000  1
  C  C5  1  0.48010000  0.52270000  0.48800000  1
  C  C6  1  0.99210000  0.47730000  0.51200000  1
  C  C7  1  0.07650000  0.00000000  0.00000000  1
  H  H8  1  0.67710000  0.25000000  0.35420000  1
  H  H9  1  0.32290000  0.75000000  0.64580000  1
  H  H10  1  0.78300000  0.50000000  1.00000000  1
  H  H11  1  0.49780000  0.95140000  0.43460000  1
  H  H12  1  0.06320000  0.04860000  0.56540000  1
  H  H13  1  0.50220000  0.45140000  0.56540000  1
  H  H14  1  0.93680000  0.54860000  0.43460000  1
  H  H15  1  0.21700000  0.00000000  0.00000000  1
  Lu  Lu16  1  0.85722000  0.75000000  0.71444000  1
  Lu  Lu17  1  0.14278000  0.25000000  0.28556000  1
  O  O18  1  0.93400000  0.92860000  0.89880000  1
  O  O19  1  0.03520000  0.07140000  0.10120000  1
  O  O20  1  0.42920000  0.22970000  0.19100000  1
  O  O21  1  0.23820000  0.77030000  0.80900000  1
  O  O22  1  0.64220000  0.97970000  0.63180000  1
  O  O23  1  0.01040000  0.02030000  0.36820000  1
  O  O24  1  0.57920000  0.65300000  0.51780000  1
  O  O25  1  0.06140000  0.34700000  0.48220000  1
  O  O26  1  0.42080000  0.15300000  0.48220000  1
  O  O27  1  0.93860000  0.84700000  0.51780000  1
  O  O28  1  0.35780000  0.47970000  0.36820000  1
  O  O29  1  0.98960000  0.52030000  0.63180000  1
  O  O30  1  0.57080000  0.72970000  0.80900000  1
  O  O31  1  0.76180000  0.27030000  0.19100000  1
  O  O32  1  0.06600000  0.42860000  0.10120000  1
  O  O33  1  0.96480000  0.57140000  0.89880000  1
