# generated using pymatgen
data_Ni2H28C40N3O8
_symmetry_space_group_name_H-M   'P 1'
_cell_length_a   23.22333723
_cell_length_b   23.22333723
_cell_length_c   23.22333723
_cell_angle_alpha   109.47122063
_cell_angle_beta   109.47122063
_cell_angle_gamma   109.47122063
_symmetry_Int_Tables_number   1
_chemical_formula_structural   Ni2H28C40N3O8
_chemical_formula_sum   'Ni12 H168 C240 N18 O48'
_cell_volume   9641.66405325
_cell_formula_units_Z   6
loop_
 _symmetry_equiv_pos_site_id
 _symmetry_equiv_pos_as_xyz
  1  'x, y, z'
loop_
 _atom_site_type_symbol
 _atom_site_label
 _atom_site_symmetry_multiplicity
 _atom_site_fract_x
 _atom_site_fract_y
 _atom_site_fract_z
 _atom_site_occupancy
  C  C0  1  0.32240000  0.58310000  0.90550000  1
  C  C1  1  0.32240000  0.41690000  0.73930000  1
  C  C2  1  0.32690000  0.53520000  0.86210000  1
  C  C3  1  0.32690000  0.46480000  0.79170000  1
  C  C4  1  0.67310000  0.53520000  0.20830000  1
  C  C5  1  0.67310000  0.46480000  0.13790000  1
  C  C6  1  0.67760000  0.58310000  0.26070000  1
  C  C7  1  0.67760000  0.41690000  0.09450000  1
  C  C8  1  0.53520000  0.86210000  0.32690000  1
  C  C9  1  0.53520000  0.20830000  0.67310000  1
  C  C10  1  0.23420000  0.63400000  0.74020000  1
  C  C11  1  0.23420000  0.49400000  0.60020000  1
  C  C12  1  0.89380000  0.63400000  0.39980000  1
  C  C13  1  0.89380000  0.49400000  0.25980000  1
  C  C14  1  0.50600000  0.74020000  0.10620000  1
  C  C15  1  0.50600000  0.39980000  0.76580000  1
  C  C16  1  0.63400000  0.74020000  0.23420000  1
  C  C17  1  0.63400000  0.39980000  0.89380000  1
  C  C18  1  0.58310000  0.90550000  0.32240000  1
  C  C19  1  0.58310000  0.26070000  0.67760000  1
  C  C20  1  0.26980000  0.71040000  0.79040000  1
  C  C21  1  0.26980000  0.47940000  0.55940000  1
  C  C22  1  0.92000000  0.71040000  0.44060000  1
  C  C23  1  0.92000000  0.47940000  0.20960000  1
  C  C24  1  0.32790000  0.73810000  0.85520000  1
  C  C25  1  0.32790000  0.47270000  0.58980000  1
  C  C26  1  0.88290000  0.73810000  0.41020000  1
  C  C27  1  0.88290000  0.47270000  0.14480000  1
  C  C28  1  0.24660000  0.75490000  0.77590000  1
  C  C29  1  0.24660000  0.47070000  0.49170000  1
  C  C30  1  0.97900000  0.75490000  0.50830000  1
  C  C31  1  0.97900000  0.47070000  0.22410000  1
  C  C32  1  0.52060000  0.79040000  0.08000000  1
  C  C33  1  0.52060000  0.44060000  0.73020000  1
  C  C34  1  0.71040000  0.79040000  0.26980000  1
  C  C35  1  0.71040000  0.44060000  0.92000000  1
  C  C36  1  0.36040000  0.80860000  0.90580000  1
  C  C37  1  0.36040000  0.45460000  0.55180000  1
  C  C38  1  0.90280000  0.80860000  0.44820000  1
  C  C39  1  0.90280000  0.45460000  0.09420000  1
  C  C40  1  0.52730000  0.85520000  0.11710000  1
  C  C41  1  0.52730000  0.41020000  0.67210000  1
  C  C42  1  0.73810000  0.85520000  0.32790000  1
  C  C43  1  0.73810000  0.41020000  0.88290000  1
  C  C44  1  0.49170000  0.02100000  0.24510000  1
  C  C45  1  0.49170000  0.24660000  0.47070000  1
  C  C46  1  0.77590000  0.02100000  0.52930000  1
  C  C47  1  0.77590000  0.24660000  0.75490000  1
  C  C48  1  0.28090000  0.82520000  0.82610000  1
  C  C49  1  0.28090000  0.45480000  0.45570000  1
  C  C50  1  0.99910000  0.82520000  0.54430000  1
  C  C51  1  0.99910000  0.45480000  0.17390000  1
  C  C52  1  0.45570000  0.00090000  0.17480000  1
  C  C53  1  0.45570000  0.28090000  0.45480000  1
  C  C54  1  0.82610000  0.00090000  0.54520000  1
  C  C55  1  0.82610000  0.28090000  0.82520000  1
  C  C56  1  0.52930000  0.77590000  0.02100000  1
  C  C57  1  0.52930000  0.50830000  0.75340000  1
  C  C58  1  0.75490000  0.77590000  0.24660000  1
  C  C59  1  0.75490000  0.50830000  0.97900000  1
  C  C60  1  0.33700000  0.85300000  0.89280000  1
  C  C61  1  0.33700000  0.44420000  0.48400000  1
  C  C62  1  0.96020000  0.85300000  0.51600000  1
  C  C63  1  0.96020000  0.44420000  0.10720000  1
  C  C64  1  0.40480000  0.94830000  0.01870000  1
  C  C65  1  0.40480000  0.38610000  0.45650000  1
  C  C66  1  0.92960000  0.94830000  0.54350000  1
  C  C67  1  0.92960000  0.38610000  0.98130000  1
  C  C68  1  0.60020000  0.10620000  0.36600000  1
  C  C69  1  0.60020000  0.23420000  0.49400000  1
  C  C70  1  0.74020000  0.10620000  0.50600000  1
  C  C71  1  0.74020000  0.23420000  0.63400000  1
  C  C72  1  0.20830000  0.67310000  0.53520000  1
  C  C73  1  0.13790000  0.67310000  0.46480000  1
  C  C74  1  0.55940000  0.08000000  0.28960000  1
  C  C75  1  0.55940000  0.26980000  0.47940000  1
  C  C76  1  0.79040000  0.08000000  0.52060000  1
  C  C77  1  0.79040000  0.26980000  0.71040000  1
  C  C78  1  0.54540000  0.90580000  0.09720000  1
  C  C79  1  0.54540000  0.44820000  0.63960000  1
  C  C80  1  0.80860000  0.90580000  0.36040000  1
  C  C81  1  0.80860000  0.44820000  0.90280000  1
  C  C82  1  0.26070000  0.67760000  0.58310000  1
  C  C83  1  0.09450000  0.67760000  0.41690000  1
  C  C84  1  0.37520000  0.92850000  0.94830000  1
  C  C85  1  0.37520000  0.42690000  0.44670000  1
  C  C86  1  0.98020000  0.92850000  0.55330000  1
  C  C87  1  0.98020000  0.42690000  0.05170000  1
  C  C88  1  0.54520000  0.82610000  0.00090000  1
  C  C89  1  0.54520000  0.54430000  0.71910000  1
  C  C90  1  0.82520000  0.82610000  0.28090000  1
  C  C91  1  0.82520000  0.54430000  0.99910000  1
  C  C92  1  0.48400000  0.03980000  0.14700000  1
  C  C93  1  0.48400000  0.33700000  0.44420000  1
  C  C94  1  0.89280000  0.03980000  0.55580000  1
  C  C95  1  0.89280000  0.33700000  0.85300000  1
  C  C96  1  0.44670000  0.01980000  0.07150000  1
  C  C97  1  0.44670000  0.37520000  0.42690000  1
  C  C98  1  0.94830000  0.01980000  0.57310000  1
  C  C99  1  0.94830000  0.37520000  0.92850000  1
  C  C100  1  0.55580000  0.89280000  0.03980000  1
  C  C101  1  0.55580000  0.51600000  0.66300000  1
  C  C102  1  0.85300000  0.89280000  0.33700000  1
  C  C103  1  0.85300000  0.51600000  0.96020000  1
  C  C104  1  0.38610000  0.98130000  0.92960000  1
  C  C105  1  0.38610000  0.45650000  0.40480000  1
  C  C106  1  0.05170000  0.98130000  0.59520000  1
  C  C107  1  0.05170000  0.45650000  0.07040000  1
  C  C108  1  0.58980000  0.11710000  0.26190000  1
  C  C109  1  0.58980000  0.32790000  0.47270000  1
  C  C110  1  0.85520000  0.11710000  0.52730000  1
  C  C111  1  0.85520000  0.32790000  0.73810000  1
  C  C112  1  0.55180000  0.09720000  0.19140000  1
  C  C113  1  0.55180000  0.36040000  0.45460000  1
  C  C114  1  0.90580000  0.09720000  0.54540000  1
  C  C115  1  0.90580000  0.36040000  0.80860000  1
  C  C116  1  0.45650000  0.07040000  0.05170000  1
  C  C117  1  0.45650000  0.40480000  0.38610000  1
  C  C118  1  0.01870000  0.07040000  0.61390000  1
  C  C119  1  0.01870000  0.40480000  0.94830000  1
  C  C120  1  0.42690000  0.05170000  0.98020000  1
  C  C121  1  0.42690000  0.44670000  0.37520000  1
  C  C122  1  0.07150000  0.05170000  0.62480000  1
  C  C123  1  0.07150000  0.44670000  0.01980000  1
  C  C124  1  0.57310000  0.94830000  0.01980000  1
  C  C125  1  0.57310000  0.55330000  0.62480000  1
  C  C126  1  0.92850000  0.94830000  0.37520000  1
  C  C127  1  0.92850000  0.55330000  0.98020000  1
  C  C128  1  0.54350000  0.92960000  0.94830000  1
  C  C129  1  0.54350000  0.59520000  0.61390000  1
  C  C130  1  0.98130000  0.92960000  0.38610000  1
  C  C131  1  0.98130000  0.59520000  0.05170000  1
  C  C132  1  0.44820000  0.90280000  0.80860000  1
  C  C133  1  0.44820000  0.63960000  0.54540000  1
  C  C134  1  0.09420000  0.90280000  0.45460000  1
  C  C135  1  0.09420000  0.63960000  0.19140000  1
  C  C136  1  0.41020000  0.88290000  0.73810000  1
  C  C137  1  0.41020000  0.67210000  0.52730000  1
  C  C138  1  0.14480000  0.88290000  0.47270000  1
  C  C139  1  0.14480000  0.67210000  0.26190000  1
  C  C140  1  0.61390000  0.01870000  0.07040000  1
  C  C141  1  0.61390000  0.54350000  0.59520000  1
  C  C142  1  0.94830000  0.01870000  0.40480000  1
  C  C143  1  0.94830000  0.54350000  0.92960000  1
  C  C144  1  0.44420000  0.10720000  0.96020000  1
  C  C145  1  0.44420000  0.48400000  0.33700000  1
  C  C146  1  0.14700000  0.10720000  0.66300000  1
  C  C147  1  0.14700000  0.48400000  0.03980000  1
  C  C148  1  0.55330000  0.98020000  0.92850000  1
  C  C149  1  0.55330000  0.62480000  0.57310000  1
  C  C150  1  0.05170000  0.98020000  0.42690000  1
  C  C151  1  0.05170000  0.62480000  0.07150000  1
  C  C152  1  0.51600000  0.96020000  0.85300000  1
  C  C153  1  0.51600000  0.66300000  0.55580000  1
  C  C154  1  0.10720000  0.96020000  0.44420000  1
  C  C155  1  0.10720000  0.66300000  0.14700000  1
  C  C156  1  0.45480000  0.17390000  0.99910000  1
  C  C157  1  0.45480000  0.45570000  0.28090000  1
  C  C158  1  0.17480000  0.17390000  0.71910000  1
  C  C159  1  0.17480000  0.45570000  0.00090000  1
  C  C160  1  0.62480000  0.07150000  0.05170000  1
  C  C161  1  0.62480000  0.57310000  0.55330000  1
  C  C162  1  0.01980000  0.07150000  0.44670000  1
  C  C163  1  0.01980000  0.57310000  0.94830000  1
  C  C164  1  0.73930000  0.32240000  0.41690000  1
  C  C165  1  0.90550000  0.32240000  0.58310000  1
  C  C166  1  0.45460000  0.09420000  0.90280000  1
  C  C167  1  0.45460000  0.55180000  0.36040000  1
  C  C168  1  0.19140000  0.09420000  0.63960000  1
  C  C169  1  0.19140000  0.55180000  0.09720000  1
  C  C170  1  0.44060000  0.92000000  0.71040000  1
  C  C171  1  0.44060000  0.73020000  0.52060000  1
  C  C172  1  0.20960000  0.92000000  0.47940000  1
  C  C173  1  0.20960000  0.73020000  0.28960000  1
  C  C174  1  0.79170000  0.32690000  0.46480000  1
  C  C175  1  0.86210000  0.32690000  0.53520000  1
  C  C176  1  0.39980000  0.89380000  0.63400000  1
  C  C177  1  0.39980000  0.76580000  0.50600000  1
  C  C178  1  0.25980000  0.89380000  0.49400000  1
  C  C179  1  0.25980000  0.76580000  0.36600000  1
  C  C180  1  0.59520000  0.05170000  0.98130000  1
  C  C181  1  0.59520000  0.61390000  0.54350000  1
  C  C182  1  0.07040000  0.05170000  0.45650000  1
  C  C183  1  0.07040000  0.61390000  0.01870000  1
  C  C184  1  0.66300000  0.14700000  0.10720000  1
  C  C185  1  0.66300000  0.55580000  0.51600000  1
  C  C186  1  0.03980000  0.14700000  0.48400000  1
  C  C187  1  0.03980000  0.55580000  0.89280000  1
  C  C188  1  0.47070000  0.22410000  0.97900000  1
  C  C189  1  0.47070000  0.49170000  0.24660000  1
  C  C190  1  0.24510000  0.22410000  0.75340000  1
  C  C191  1  0.24510000  0.49170000  0.02100000  1
  C  C192  1  0.54430000  0.99910000  0.82520000  1
  C  C193  1  0.54430000  0.71910000  0.54520000  1
  C  C194  1  0.17390000  0.99910000  0.45480000  1
  C  C195  1  0.17390000  0.71910000  0.17480000  1
  C  C196  1  0.71910000  0.17480000  0.17390000  1
  C  C197  1  0.71910000  0.54520000  0.54430000  1
  C  C198  1  0.00090000  0.17480000  0.45570000  1
  C  C199  1  0.00090000  0.54520000  0.82610000  1
  C  C200  1  0.50830000  0.97900000  0.75490000  1
  C  C201  1  0.50830000  0.75340000  0.52930000  1
  C  C202  1  0.22410000  0.97900000  0.47070000  1
  C  C203  1  0.22410000  0.75340000  0.24510000  1
  C  C204  1  0.47270000  0.14480000  0.88290000  1
  C  C205  1  0.47270000  0.58980000  0.32790000  1
  C  C206  1  0.26190000  0.14480000  0.67210000  1
  C  C207  1  0.26190000  0.58980000  0.11710000  1
  C  C208  1  0.63960000  0.19140000  0.09420000  1
  C  C209  1  0.63960000  0.54540000  0.44820000  1
  C  C210  1  0.09720000  0.19140000  0.55180000  1
  C  C211  1  0.09720000  0.54540000  0.90580000  1
  C  C212  1  0.47940000  0.20960000  0.92000000  1
  C  C213  1  0.47940000  0.55940000  0.26980000  1
  C  C214  1  0.28960000  0.20960000  0.73020000  1
  C  C215  1  0.28960000  0.55940000  0.08000000  1
  C  C216  1  0.75340000  0.24510000  0.22410000  1
  C  C217  1  0.75340000  0.52930000  0.50830000  1
  C  C218  1  0.02100000  0.24510000  0.49170000  1
  C  C219  1  0.02100000  0.52930000  0.77590000  1
  C  C220  1  0.67210000  0.26190000  0.14480000  1
  C  C221  1  0.67210000  0.52730000  0.41020000  1
  C  C222  1  0.11710000  0.26190000  0.58980000  1
  C  C223  1  0.11710000  0.52730000  0.85520000  1
  C  C224  1  0.73020000  0.28960000  0.20960000  1
  C  C225  1  0.73020000  0.52060000  0.44060000  1
  C  C226  1  0.08000000  0.28960000  0.55940000  1
  C  C227  1  0.08000000  0.52060000  0.79040000  1
  C  C228  1  0.41690000  0.09450000  0.67760000  1
  C  C229  1  0.41690000  0.73930000  0.32240000  1
  C  C230  1  0.49400000  0.25980000  0.89380000  1
  C  C231  1  0.49400000  0.60020000  0.23420000  1
  C  C232  1  0.36600000  0.25980000  0.76580000  1
  C  C233  1  0.36600000  0.60020000  0.10620000  1
  C  C234  1  0.76580000  0.36600000  0.25980000  1
  C  C235  1  0.76580000  0.50600000  0.39980000  1
  C  C236  1  0.10620000  0.36600000  0.60020000  1
  C  C237  1  0.10620000  0.50600000  0.74020000  1
  C  C238  1  0.46480000  0.13790000  0.67310000  1
  C  C239  1  0.46480000  0.79170000  0.32690000  1
  H  H240  1  0.35490000  0.59810000  0.95300000  1
  H  H241  1  0.35490000  0.40190000  0.75680000  1
  H  H242  1  0.39780000  0.54340000  0.94120000  1
  H  H243  1  0.39780000  0.45660000  0.85440000  1
  H  H244  1  0.60220000  0.54340000  0.14560000  1
  H  H245  1  0.60220000  0.45660000  0.05880000  1
  H  H246  1  0.64510000  0.59810000  0.24320000  1
  H  H247  1  0.64510000  0.40190000  0.04700000  1
  H  H248  1  0.33370000  0.62260000  0.89790000  1
  H  H249  1  0.33370000  0.43580000  0.71110000  1
  H  H250  1  0.72470000  0.62260000  0.28890000  1
  H  H251  1  0.72470000  0.43580000  0.10210000  1
  H  H252  1  0.54340000  0.94120000  0.39780000  1
  H  H253  1  0.54340000  0.14560000  0.60220000  1
  H  H254  1  0.56420000  0.89790000  0.27530000  1
  H  H255  1  0.56420000  0.28890000  0.66630000  1
  H  H256  1  0.62260000  0.89790000  0.33370000  1
  H  H257  1  0.62260000  0.28890000  0.72470000  1
  H  H258  1  0.34500000  0.70950000  0.86490000  1
  H  H259  1  0.34500000  0.48010000  0.63550000  1
  H  H260  1  0.84460000  0.70950000  0.36450000  1
  H  H261  1  0.84460000  0.48010000  0.13510000  1
  H  H262  1  0.59810000  0.95300000  0.35490000  1
  H  H263  1  0.59810000  0.24320000  0.64510000  1
  H  H264  1  0.47100000  0.99540000  0.26300000  1
  H  H265  1  0.47100000  0.20800000  0.47560000  1
  H  H266  1  0.73240000  0.99540000  0.52440000  1
  H  H267  1  0.73240000  0.20800000  0.73700000  1
  H  H268  1  0.14560000  0.60220000  0.54340000  1
  H  H269  1  0.05880000  0.60220000  0.45660000  1
  H  H270  1  0.20800000  0.73700000  0.73240000  1
  H  H271  1  0.20800000  0.47560000  0.47100000  1
  H  H272  1  0.00460000  0.73700000  0.52900000  1
  H  H273  1  0.00460000  0.47560000  0.26760000  1
  H  H274  1  0.41150000  0.96030000  0.14520000  1
  H  H275  1  0.41150000  0.26630000  0.45120000  1
  H  H276  1  0.81510000  0.96030000  0.54880000  1
  H  H277  1  0.81510000  0.26630000  0.85480000  1
  H  H278  1  0.51990000  0.86490000  0.15540000  1
  H  H279  1  0.51990000  0.36450000  0.65500000  1
  H  H280  1  0.70950000  0.86490000  0.34500000  1
  H  H281  1  0.70950000  0.36450000  0.84460000  1
  H  H282  1  0.52440000  0.73240000  0.99540000  1
  H  H283  1  0.52440000  0.52900000  0.79200000  1
  H  H284  1  0.73700000  0.73240000  0.20800000  1
  H  H285  1  0.73700000  0.52900000  0.00460000  1
  H  H286  1  0.39890000  0.82650000  0.94940000  1
  H  H287  1  0.39890000  0.44950000  0.57240000  1
  H  H288  1  0.87710000  0.82650000  0.42760000  1
  H  H289  1  0.87710000  0.44950000  0.05060000  1
  H  H290  1  0.39690000  0.91370000  0.03160000  1
  H  H291  1  0.39690000  0.36530000  0.48320000  1
  H  H292  1  0.88210000  0.91370000  0.51680000  1
  H  H293  1  0.88210000  0.36530000  0.96840000  1
  H  H294  1  0.24320000  0.64510000  0.59810000  1
  H  H295  1  0.04700000  0.64510000  0.40190000  1
  H  H296  1  0.26630000  0.85480000  0.81510000  1
  H  H297  1  0.26630000  0.45120000  0.41150000  1
  H  H298  1  0.03970000  0.85480000  0.58850000  1
  H  H299  1  0.03970000  0.45120000  0.18490000  1
  H  H300  1  0.55050000  0.94940000  0.12290000  1
  H  H301  1  0.55050000  0.42760000  0.60110000  1
  H  H302  1  0.82650000  0.94940000  0.39890000  1
  H  H303  1  0.82650000  0.42760000  0.87710000  1
  H  H304  1  0.28890000  0.72470000  0.62260000  1
  H  H305  1  0.28890000  0.66630000  0.56420000  1
  H  H306  1  0.10210000  0.72470000  0.43580000  1
  H  H307  1  0.10210000  0.66630000  0.37740000  1
  H  H308  1  0.54880000  0.81510000  0.96030000  1
  H  H309  1  0.54880000  0.58850000  0.73370000  1
  H  H310  1  0.85480000  0.81510000  0.26630000  1
  H  H311  1  0.85480000  0.58850000  0.03970000  1
  H  H312  1  0.36530000  0.96840000  0.88210000  1
  H  H313  1  0.36530000  0.48320000  0.39690000  1
  H  H314  1  0.08630000  0.96840000  0.60310000  1
  H  H315  1  0.08630000  0.48320000  0.11790000  1
  H  H316  1  0.42760000  0.87710000  0.82650000  1
  H  H317  1  0.42760000  0.60110000  0.55050000  1
  H  H318  1  0.05060000  0.87710000  0.44950000  1
  H  H319  1  0.05060000  0.60110000  0.17350000  1
  H  H320  1  0.51680000  0.88210000  0.91370000  1
  H  H321  1  0.51680000  0.60310000  0.63470000  1
  H  H322  1  0.96840000  0.88210000  0.36530000  1
  H  H323  1  0.96840000  0.60310000  0.08630000  1
  H  H324  1  0.36450000  0.84460000  0.70950000  1
  H  H325  1  0.36450000  0.65500000  0.51990000  1
  H  H326  1  0.13510000  0.84460000  0.48010000  1
  H  H327  1  0.13510000  0.65500000  0.29050000  1
  H  H328  1  0.63550000  0.15540000  0.29050000  1
  H  H329  1  0.63550000  0.34500000  0.48010000  1
  H  H330  1  0.86490000  0.15540000  0.51990000  1
  H  H331  1  0.86490000  0.34500000  0.70950000  1
  H  H332  1  0.48320000  0.11790000  0.08630000  1
  H  H333  1  0.48320000  0.39690000  0.36530000  1
  H  H334  1  0.03160000  0.11790000  0.63470000  1
  H  H335  1  0.03160000  0.39690000  0.91370000  1
  H  H336  1  0.57240000  0.12290000  0.17350000  1
  H  H337  1  0.57240000  0.39890000  0.44950000  1
  H  H338  1  0.94940000  0.12290000  0.55050000  1
  H  H339  1  0.94940000  0.39890000  0.82650000  1
  H  H340  1  0.63470000  0.03160000  0.11790000  1
  H  H341  1  0.63470000  0.51680000  0.60310000  1
  H  H342  1  0.91370000  0.03160000  0.39690000  1
  H  H343  1  0.91370000  0.51680000  0.88210000  1
  H  H344  1  0.45120000  0.18490000  0.03970000  1
  H  H345  1  0.45120000  0.41150000  0.26630000  1
  H  H346  1  0.14520000  0.18490000  0.73370000  1
  H  H347  1  0.14520000  0.41150000  0.96030000  1
  H  H348  1  0.71110000  0.27530000  0.37740000  1
  H  H349  1  0.71110000  0.33370000  0.43580000  1
  H  H350  1  0.89790000  0.27530000  0.56420000  1
  H  H351  1  0.89790000  0.33370000  0.62260000  1
  H  H352  1  0.44950000  0.05060000  0.87710000  1
  H  H353  1  0.44950000  0.57240000  0.39890000  1
  H  H354  1  0.17350000  0.05060000  0.60110000  1
  H  H355  1  0.17350000  0.57240000  0.12290000  1
  H  H356  1  0.73370000  0.14520000  0.18490000  1
  H  H357  1  0.73370000  0.54880000  0.58850000  1
  H  H358  1  0.96030000  0.14520000  0.41150000  1
  H  H359  1  0.96030000  0.54880000  0.81510000  1
  H  H360  1  0.75680000  0.35490000  0.40190000  1
  H  H361  1  0.95300000  0.35490000  0.59810000  1
  H  H362  1  0.60310000  0.08630000  0.96840000  1
  H  H363  1  0.60310000  0.63470000  0.51680000  1
  H  H364  1  0.11790000  0.08630000  0.48320000  1
  H  H365  1  0.11790000  0.63470000  0.03160000  1
  H  H366  1  0.60110000  0.17350000  0.05060000  1
  H  H367  1  0.60110000  0.55050000  0.42760000  1
  H  H368  1  0.12290000  0.17350000  0.57240000  1
  H  H369  1  0.12290000  0.55050000  0.94940000  1
  H  H370  1  0.47560000  0.26760000  0.00460000  1
  H  H371  1  0.47560000  0.47100000  0.20800000  1
  H  H372  1  0.26300000  0.26760000  0.79200000  1
  H  H373  1  0.26300000  0.47100000  0.99540000  1
  H  H374  1  0.48010000  0.13510000  0.84460000  1
  H  H375  1  0.48010000  0.63550000  0.34500000  1
  H  H376  1  0.29050000  0.13510000  0.65500000  1
  H  H377  1  0.29050000  0.63550000  0.15540000  1
  H  H378  1  0.58850000  0.03970000  0.85480000  1
  H  H379  1  0.58850000  0.73370000  0.54880000  1
  H  H380  1  0.18490000  0.03970000  0.45120000  1
  H  H381  1  0.18490000  0.73370000  0.14520000  1
  H  H382  1  0.79200000  0.26300000  0.26760000  1
  H  H383  1  0.79200000  0.52440000  0.52900000  1
  H  H384  1  0.99540000  0.26300000  0.47100000  1
  H  H385  1  0.99540000  0.52440000  0.73240000  1
  H  H386  1  0.85440000  0.39780000  0.45660000  1
  H  H387  1  0.94120000  0.39780000  0.54340000  1
  H  H388  1  0.52900000  0.00460000  0.73700000  1
  H  H389  1  0.52900000  0.79200000  0.52440000  1
  H  H390  1  0.26760000  0.00460000  0.47560000  1
  H  H391  1  0.26760000  0.79200000  0.26300000  1
  H  H392  1  0.40190000  0.04700000  0.64510000  1
  H  H393  1  0.40190000  0.75680000  0.35490000  1
  H  H394  1  0.65500000  0.29050000  0.13510000  1
  H  H395  1  0.65500000  0.51990000  0.36450000  1
  H  H396  1  0.15540000  0.29050000  0.63550000  1
  H  H397  1  0.15540000  0.51990000  0.86490000  1
  H  H398  1  0.43580000  0.10210000  0.72470000  1
  H  H399  1  0.43580000  0.71110000  0.33370000  1
  H  H400  1  0.37740000  0.10210000  0.66630000  1
  H  H401  1  0.37740000  0.71110000  0.27530000  1
  H  H402  1  0.45660000  0.05880000  0.60220000  1
  H  H403  1  0.45660000  0.85440000  0.39780000  1
  H  H404  1  0.66630000  0.37740000  0.10210000  1
  H  H405  1  0.66630000  0.56420000  0.28890000  1
  H  H406  1  0.27530000  0.37740000  0.71110000  1
  H  H407  1  0.27530000  0.56420000  0.89790000  1
  N  N408  1  0.29620000  0.50000000  0.79620000  1
  N  N409  1  0.37250000  0.52370000  0.89620000  1
  N  N410  1  0.37250000  0.47630000  0.84880000  1
  N  N411  1  0.50000000  0.79620000  0.29620000  1
  N  N412  1  0.50000000  0.20380000  0.70380000  1
  N  N413  1  0.62750000  0.52370000  0.15120000  1
  N  N414  1  0.62750000  0.47630000  0.10380000  1
  N  N415  1  0.70380000  0.50000000  0.20380000  1
  N  N416  1  0.52370000  0.89620000  0.37250000  1
  N  N417  1  0.52370000  0.15120000  0.62750000  1
  N  N418  1  0.15120000  0.62750000  0.52370000  1
  N  N419  1  0.10380000  0.62750000  0.47630000  1
  N  N420  1  0.20380000  0.70380000  0.50000000  1
  N  N421  1  0.79620000  0.29620000  0.50000000  1
  N  N422  1  0.84880000  0.37250000  0.47630000  1
  N  N423  1  0.89620000  0.37250000  0.52370000  1
  N  N424  1  0.47630000  0.10380000  0.62750000  1
  N  N425  1  0.47630000  0.84880000  0.37250000  1
  Ni  Ni426  1  0.11549000  0.50000000  0.61549000  1
  Ni  Ni427  1  0.22163000  0.50000000  0.72163000  1
  Ni  Ni428  1  0.50000000  0.72163000  0.22163000  1
  Ni  Ni429  1  0.50000000  0.61549000  0.11549000  1
  Ni  Ni430  1  0.50000000  0.38451000  0.88451000  1
  Ni  Ni431  1  0.50000000  0.27837000  0.77837000  1
  Ni  Ni432  1  0.77837000  0.50000000  0.27837000  1
  Ni  Ni433  1  0.88451000  0.50000000  0.38451000  1
  Ni  Ni434  1  0.61549000  0.11549000  0.50000000  1
  Ni  Ni435  1  0.72163000  0.22163000  0.50000000  1
  Ni  Ni436  1  0.27837000  0.77837000  0.50000000  1
  Ni  Ni437  1  0.38451000  0.88451000  0.50000000  1
  O  O438  1  0.26120000  0.60180000  0.76140000  1
  O  O439  1  0.26120000  0.49980000  0.65940000  1
  O  O440  1  0.84040000  0.60180000  0.34060000  1
  O  O441  1  0.84040000  0.49980000  0.23860000  1
  O  O442  1  0.50020000  0.76140000  0.15960000  1
  O  O443  1  0.50020000  0.34060000  0.73880000  1
  O  O444  1  0.60180000  0.76140000  0.26120000  1
  O  O445  1  0.60180000  0.34060000  0.84040000  1
  O  O446  1  0.18007000  0.60674000  0.68169000  1
  O  O447  1  0.18007000  0.49838000  0.57333000  1
  O  O448  1  0.92505000  0.60674000  0.42667000  1
  O  O449  1  0.92505000  0.49838000  0.31831000  1
  O  O450  1  0.50162000  0.68169000  0.07495000  1
  O  O451  1  0.50162000  0.42667000  0.81993000  1
  O  O452  1  0.60674000  0.68169000  0.18007000  1
  O  O453  1  0.60674000  0.42667000  0.92505000  1
  O  O454  1  0.57333000  0.07495000  0.39326000  1
  O  O455  1  0.57333000  0.18007000  0.49838000  1
  O  O456  1  0.68169000  0.07495000  0.50162000  1
  O  O457  1  0.68169000  0.18007000  0.60674000  1
  O  O458  1  0.65940000  0.15960000  0.39820000  1
  O  O459  1  0.65940000  0.26120000  0.49980000  1
  O  O460  1  0.76140000  0.15960000  0.50020000  1
  O  O461  1  0.76140000  0.26120000  0.60180000  1
  O  O462  1  0.34060000  0.84040000  0.60180000  1
  O  O463  1  0.34060000  0.73880000  0.50020000  1
  O  O464  1  0.23860000  0.84040000  0.49980000  1
  O  O465  1  0.23860000  0.73880000  0.39820000  1
  O  O466  1  0.42667000  0.92505000  0.60674000  1
  O  O467  1  0.42667000  0.81993000  0.50162000  1
  O  O468  1  0.31831000  0.92505000  0.49838000  1
  O  O469  1  0.31831000  0.81993000  0.39326000  1
  O  O470  1  0.49838000  0.31831000  0.92505000  1
  O  O471  1  0.49838000  0.57333000  0.18007000  1
  O  O472  1  0.39326000  0.31831000  0.81993000  1
  O  O473  1  0.39326000  0.57333000  0.07495000  1
  O  O474  1  0.81993000  0.39326000  0.31831000  1
  O  O475  1  0.81993000  0.50162000  0.42667000  1
  O  O476  1  0.07495000  0.39326000  0.57333000  1
  O  O477  1  0.07495000  0.50162000  0.68169000  1
  O  O478  1  0.49980000  0.23860000  0.84040000  1
  O  O479  1  0.49980000  0.65940000  0.26120000  1
  O  O480  1  0.39820000  0.23860000  0.73880000  1
  O  O481  1  0.39820000  0.65940000  0.15960000  1
  O  O482  1  0.73880000  0.39820000  0.23860000  1
  O  O483  1  0.73880000  0.50020000  0.34060000  1
  O  O484  1  0.15960000  0.39820000  0.65940000  1
  O  O485  1  0.15960000  0.50020000  0.76140000  1
