# generated using pymatgen
data_GdCoH2C8(NO5)2
_symmetry_space_group_name_H-M   'P 1'
_cell_length_a   9.77900000
_cell_length_b   12.10585645
_cell_length_c   17.68804136
_cell_angle_alpha   78.68994048
_cell_angle_beta   73.95276681
_cell_angle_gamma   66.17807290
_symmetry_Int_Tables_number   1
_chemical_formula_structural   GdCoH2C8(NO5)2
_chemical_formula_sum   'Gd4 Co4 H8 C32 N8 O40'
_cell_volume   1832.41255378
_cell_formula_units_Z   4
loop_
 _symmetry_equiv_pos_site_id
 _symmetry_equiv_pos_as_xyz
  1  'x, y, z'
loop_
 _atom_site_type_symbol
 _atom_site_label
 _atom_site_symmetry_multiplicity
 _atom_site_fract_x
 _atom_site_fract_y
 _atom_site_fract_z
 _atom_site_occupancy
  C  C0  1  0.01370000  0.48920000  0.45460000  1
  C  C1  1  0.04250000  0.98920000  0.95460000  1
  C  C2  1  0.80820000  0.18130000  0.65650000  1
  C  C3  1  0.35400000  0.68130000  0.15650000  1
  C  C4  1  0.65720000  0.18290000  0.63750000  1
  C  C5  1  0.52240000  0.68290000  0.13750000  1
  C  C6  1  0.60490000  0.92610000  0.86410000  1
  C  C7  1  0.60490000  0.42610000  0.36410000  1
  C  C8  1  0.74950000  0.33800000  0.32060000  1
  C  C9  1  0.59190000  0.83800000  0.82060000  1
  C  C10  1  0.94430000  0.21250000  0.41670000  1
  C  C11  1  0.42650000  0.71250000  0.91670000  1
  C  C12  1  0.88750000  0.25370000  0.34110000  1
  C  C13  1  0.51770000  0.75370000  0.84110000  1
  C  C14  1  0.10220000  0.75630000  0.78310000  1
  C  C15  1  0.35840000  0.25630000  0.28310000  1
  C  C16  1  0.89780000  0.24370000  0.21690000  1
  C  C17  1  0.64160000  0.74370000  0.71690000  1
  C  C18  1  0.11250000  0.74630000  0.65890000  1
  C  C19  1  0.48230000  0.24630000  0.15890000  1
  C  C20  1  0.05570000  0.78750000  0.58330000  1
  C  C21  1  0.57350000  0.28750000  0.08330000  1
  C  C22  1  0.25050000  0.66200000  0.67940000  1
  C  C23  1  0.40810000  0.16200000  0.17940000  1
  C  C24  1  0.39510000  0.57390000  0.63590000  1
  C  C25  1  0.39510000  0.07390000  0.13590000  1
  C  C26  1  0.34280000  0.81710000  0.36250000  1
  C  C27  1  0.47760000  0.31710000  0.86250000  1
  C  C28  1  0.19180000  0.81870000  0.34350000  1
  C  C29  1  0.64600000  0.31870000  0.84350000  1
  C  C30  1  0.98630000  0.51080000  0.54540000  1
  C  C31  1  0.95750000  0.01080000  0.04540000  1
  Co  Co32  1  0.80919000  0.93448000  0.70502000  1
  Co  Co33  1  0.55131000  0.43448000  0.20502000  1
  Co  Co34  1  0.19081000  0.06552000  0.29498000  1
  Co  Co35  1  0.44869000  0.56552000  0.79498000  1
  Gd  Gd36  1  0.70253000  0.43358000  0.54430000  1
  Gd  Gd37  1  0.31959000  0.93358000  0.04430000  1
  Gd  Gd38  1  0.29747000  0.56642000  0.45570000  1
  Gd  Gd39  1  0.68041000  0.06642000  0.95570000  1
  H  H40  1  0.77200000  0.30500000  0.48300000  1
  H  H41  1  0.44000000  0.80500000  0.98300000  1
  H  H42  1  0.06660000  0.77970000  0.83410000  1
  H  H43  1  0.31960000  0.27970000  0.33410000  1
  H  H44  1  0.93340000  0.22030000  0.16590000  1
  H  H45  1  0.68040000  0.72030000  0.66590000  1
  H  H46  1  0.22800000  0.69500000  0.51700000  1
  H  H47  1  0.56000000  0.19500000  0.01700000  1
  N  N48  1  0.75690000  0.32970000  0.24190000  1
  N  N49  1  0.67150000  0.82970000  0.74190000  1
  N  N50  1  0.01810000  0.80510000  0.72610000  1
  N  N51  1  0.45070000  0.30510000  0.22610000  1
  N  N52  1  0.98190000  0.19490000  0.27390000  1
  N  N53  1  0.54930000  0.69490000  0.77390000  1
  N  N54  1  0.24310000  0.67030000  0.75810000  1
  N  N55  1  0.32850000  0.17030000  0.25810000  1
  O  O56  1  0.82980000  0.27890000  0.64270000  1
  O  O57  1  0.24860000  0.77890000  0.14270000  1
  O  O58  1  0.95890000  0.99710000  0.90910000  1
  O  O59  1  0.13490000  0.49710000  0.40910000  1
  O  O60  1  0.91430000  0.46420000  0.43740000  1
  O  O61  1  0.18410000  0.96420000  0.93740000  1
  O  O62  1  0.59160000  0.45400000  0.43320000  1
  O  O63  1  0.52120000  0.95400000  0.93320000  1
  O  O64  1  0.57940000  0.28370000  0.60110000  1
  O  O65  1  0.53580000  0.78370000  0.10110000  1
  O  O66  1  0.70660000  0.97320000  0.83060000  1
  O  O67  1  0.48960000  0.47320000  0.33060000  1
  O  O68  1  0.89320000  0.07930000  0.68410000  1
  O  O69  1  0.34340000  0.57930000  0.18410000  1
  O  O70  1  0.62900000  0.08690000  0.65830000  1
  O  O71  1  0.62580000  0.58690000  0.15830000  1
  O  O72  1  0.85980000  0.24930000  0.48150000  1
  O  O73  1  0.40940000  0.74930000  0.98150000  1
  O  O74  1  0.08400000  0.13420000  0.41000000  1
  O  O75  1  0.37180000  0.63420000  0.91000000  1
  O  O76  1  0.91600000  0.86580000  0.59000000  1
  O  O77  1  0.62820000  0.36580000  0.09000000  1
  O  O78  1  0.14020000  0.75070000  0.51850000  1
  O  O79  1  0.59060000  0.25070000  0.01850000  1
  O  O80  1  0.37100000  0.91310000  0.34170000  1
  O  O81  1  0.37420000  0.41310000  0.84170000  1
  O  O82  1  0.10680000  0.92070000  0.31590000  1
  O  O83  1  0.65660000  0.42070000  0.81590000  1
  O  O84  1  0.29340000  0.02680000  0.16940000  1
  O  O85  1  0.51040000  0.52680000  0.66940000  1
  O  O86  1  0.42060000  0.71630000  0.39890000  1
  O  O87  1  0.46420000  0.21630000  0.89890000  1
  O  O88  1  0.40840000  0.54600000  0.56680000  1
  O  O89  1  0.47880000  0.04600000  0.06680000  1
  O  O90  1  0.08570000  0.53580000  0.56260000  1
  O  O91  1  0.81590000  0.03580000  0.06260000  1
  O  O92  1  0.04110000  0.00290000  0.09090000  1
  O  O93  1  0.86510000  0.50290000  0.59090000  1
  O  O94  1  0.17020000  0.72110000  0.35730000  1
  O  O95  1  0.75140000  0.22110000  0.85730000  1
