# generated using pymatgen
data_Ba2CuH8C12(N2O5)2
_symmetry_space_group_name_H-M   'P 1'
_cell_length_a   9.24400000
_cell_length_b   11.02876363
_cell_length_c   11.02876363
_cell_angle_alpha   64.20405585
_cell_angle_beta   88.49984787
_cell_angle_gamma   88.49984787
_symmetry_Int_Tables_number   1
_chemical_formula_structural   Ba2CuH8C12(N2O5)2
_chemical_formula_sum   'Ba4 Cu2 H16 C24 N8 O20'
_cell_volume   1011.85262267
_cell_formula_units_Z   2
loop_
 _symmetry_equiv_pos_site_id
 _symmetry_equiv_pos_as_xyz
  1  'x, y, z'
loop_
 _atom_site_type_symbol
 _atom_site_label
 _atom_site_symmetry_multiplicity
 _atom_site_fract_x
 _atom_site_fract_y
 _atom_site_fract_z
 _atom_site_occupancy
  Ba  Ba0  1  0.99227000  0.16953000  0.78627000  1
  Ba  Ba1  1  0.49227000  0.78627000  0.16953000  1
  Ba  Ba2  1  0.00773000  0.83047000  0.21373000  1
  Ba  Ba3  1  0.50773000  0.21373000  0.83047000  1
  C  C4  1  0.66440000  0.93640000  0.83660000  1
  C  C5  1  0.16440000  0.83660000  0.93640000  1
  C  C6  1  0.34230000  0.03660000  0.69540000  1
  C  C7  1  0.84230000  0.69540000  0.03660000  1
  C  C8  1  0.71710000  0.82060000  0.80920000  1
  C  C9  1  0.21710000  0.80920000  0.82060000  1
  C  C10  1  0.67220000  0.25330000  0.37550000  1
  C  C11  1  0.17220000  0.37550000  0.25330000  1
  C  C12  1  0.26540000  0.27490000  0.34350000  1
  C  C13  1  0.76540000  0.34350000  0.27490000  1
  C  C14  1  0.30020000  0.89920000  0.71520000  1
  C  C15  1  0.80020000  0.71520000  0.89920000  1
  C  C16  1  0.69980000  0.10080000  0.28480000  1
  C  C17  1  0.19980000  0.28480000  0.10080000  1
  C  C18  1  0.73460000  0.72510000  0.65650000  1
  C  C19  1  0.23460000  0.65650000  0.72510000  1
  C  C20  1  0.32780000  0.74670000  0.62450000  1
  C  C21  1  0.82780000  0.62450000  0.74670000  1
  C  C22  1  0.28290000  0.17940000  0.19080000  1
  C  C23  1  0.78290000  0.19080000  0.17940000  1
  C  C24  1  0.65770000  0.96340000  0.30460000  1
  C  C25  1  0.15770000  0.30460000  0.96340000  1
  C  C26  1  0.33560000  0.06360000  0.16340000  1
  C  C27  1  0.83560000  0.16340000  0.06360000  1
  Cu  Cu28  1  0.50000000  1.00000000  0.50000000  1
  Cu  Cu29  1  0.00000000  0.50000000  1.00000000  1
  H  H30  1  0.62940000  0.27880000  0.43840000  1
  H  H31  1  0.12940000  0.43840000  0.27880000  1
  H  H32  1  0.94030000  0.17300000  0.54320000  1
  H  H33  1  0.44030000  0.54320000  0.17300000  1
  H  H34  1  0.29240000  0.27810000  0.42270000  1
  H  H35  1  0.79240000  0.42270000  0.27810000  1
  H  H36  1  0.07990000  0.09490000  0.57350000  1
  H  H37  1  0.57990000  0.57350000  0.09490000  1
  H  H38  1  0.92010000  0.90510000  0.42650000  1
  H  H39  1  0.42010000  0.42650000  0.90510000  1
  H  H40  1  0.70760000  0.72190000  0.57730000  1
  H  H41  1  0.20760000  0.57730000  0.72190000  1
  H  H42  1  0.05970000  0.82700000  0.45680000  1
  H  H43  1  0.55970000  0.45680000  0.82700000  1
  H  H44  1  0.37060000  0.72120000  0.56160000  1
  H  H45  1  0.87060000  0.56160000  0.72120000  1
  N  N46  1  0.64470000  0.13430000  0.38210000  1
  N  N47  1  0.14470000  0.38210000  0.13430000  1
  N  N48  1  0.68470000  0.82610000  0.68530000  1
  N  N49  1  0.18470000  0.68530000  0.82610000  1
  N  N50  1  0.31530000  0.17390000  0.31470000  1
  N  N51  1  0.81530000  0.31470000  0.17390000  1
  N  N52  1  0.35530000  0.86570000  0.61790000  1
  N  N53  1  0.85530000  0.61790000  0.86570000  1
  O  O54  1  0.28140000  0.09020000  0.76240000  1
  O  O55  1  0.78140000  0.76240000  0.09020000  1
  O  O56  1  0.73660000  0.04000000  0.79120000  1
  O  O57  1  0.23660000  0.79120000  0.04000000  1
  O  O58  1  0.54290000  0.92270000  0.90210000  1
  O  O59  1  0.04290000  0.90210000  0.92270000  1
  O  O60  1  0.44150000  0.09420000  0.60680000  1
  O  O61  1  0.94150000  0.60680000  0.09420000  1
  O  O62  1  0.98930000  0.10990000  0.54250000  1
  O  O63  1  0.48930000  0.54250000  0.10990000  1
  O  O64  1  0.01070000  0.89010000  0.45750000  1
  O  O65  1  0.51070000  0.45750000  0.89010000  1
  O  O66  1  0.55850000  0.90580000  0.39320000  1
  O  O67  1  0.05850000  0.39320000  0.90580000  1
  O  O68  1  0.45710000  0.07730000  0.09790000  1
  O  O69  1  0.95710000  0.09790000  0.07730000  1
  O  O70  1  0.26340000  0.96000000  0.20880000  1
  O  O71  1  0.76340000  0.20880000  0.96000000  1
  O  O72  1  0.71860000  0.90980000  0.23760000  1
  O  O73  1  0.21860000  0.23760000  0.90980000  1
