# generated using pymatgen
data_Tb2CuH12C32(NO6)4
_symmetry_space_group_name_H-M   'P 1'
_cell_length_a   10.44500000
_cell_length_b   10.63600000
_cell_length_c   11.32600000
_cell_angle_alpha   83.28000000
_cell_angle_beta   74.83000000
_cell_angle_gamma   69.60000000
_symmetry_Int_Tables_number   1
_chemical_formula_structural   Tb2CuH12C32(NO6)4
_chemical_formula_sum   'Tb2 Cu1 H12 C32 N4 O24'
_cell_volume   1137.76699925
_cell_formula_units_Z   1
loop_
 _symmetry_equiv_pos_site_id
 _symmetry_equiv_pos_as_xyz
  1  'x, y, z'
loop_
 _atom_site_type_symbol
 _atom_site_label
 _atom_site_symmetry_multiplicity
 _atom_site_fract_x
 _atom_site_fract_y
 _atom_site_fract_z
 _atom_site_occupancy
  Tb  Tb0  1  0.41264000  0.40318000  0.36838000  1
  Tb  Tb1  1  0.58736000  0.59682000  0.63162000  1
  Cu  Cu2  1  0.00000000  0.50000000  0.50000000  1
  H  H3  1  0.00680000  0.83730000  0.64670000  1
  H  H4  1  0.08390000  0.67410000  0.80080000  1
  H  H5  1  0.10790000  0.33740000  0.84280000  1
  H  H6  1  0.17680000  0.76210000  0.33620000  1
  H  H7  1  0.31420000  0.51650000  0.05080000  1
  H  H8  1  0.35310000  0.98500000  0.46230000  1
  H  H9  1  0.64690000  0.01500000  0.53770000  1
  H  H10  1  0.68580000  0.48350000  0.94920000  1
  H  H11  1  0.82320000  0.23790000  0.66380000  1
  H  H12  1  0.89210000  0.66260000  0.15720000  1
  H  H13  1  0.91610000  0.32590000  0.19920000  1
  H  H14  1  0.99320000  0.16270000  0.35330000  1
  C  C15  1  0.02550000  0.35630000  0.90430000  1
  C  C16  1  0.02990000  0.32460000  0.02450000  1
  C  C17  1  0.06740000  0.08640000  0.36450000  1
  C  C18  1  0.07330000  0.96230000  0.33570000  1
  C  C19  1  0.09010000  0.65080000  0.88130000  1
  C  C20  1  0.10500000  0.58270000  0.12360000  1
  C  C21  1  0.11040000  0.54630000  0.25420000  1
  C  C22  1  0.17060000  0.23170000  0.43720000  1
  C  C23  1  0.17500000  0.09570000  0.41070000  1
  C  C24  1  0.17690000  0.84460000  0.35570000  1
  C  C25  1  0.22030000  0.59030000  0.90970000  1
  C  C26  1  0.22730000  0.55660000  0.03150000  1
  C  C27  1  0.28130000  0.97930000  0.43140000  1
  C  C28  1  0.28150000  0.85350000  0.40620000  1
  C  C29  1  0.35220000  0.56910000  0.81090000  1
  C  C30  1  0.39110000  0.72900000  0.43780000  1
  C  C31  1  0.60890000  0.27100000  0.56220000  1
  C  C32  1  0.64780000  0.43090000  0.18910000  1
  C  C33  1  0.71850000  0.14650000  0.59380000  1
  C  C34  1  0.71870000  0.02070000  0.56860000  1
  C  C35  1  0.77270000  0.44340000  0.96850000  1
  C  C36  1  0.77970000  0.40970000  0.09030000  1
  C  C37  1  0.82310000  0.15540000  0.64430000  1
  C  C38  1  0.82500000  0.90430000  0.58930000  1
  C  C39  1  0.82940000  0.76830000  0.56280000  1
  C  C40  1  0.88960000  0.45370000  0.74580000  1
  C  C41  1  0.89500000  0.41730000  0.87640000  1
  C  C42  1  0.90990000  0.34920000  0.11870000  1
  C  C43  1  0.92670000  0.03770000  0.66430000  1
  C  C44  1  0.93260000  0.91360000  0.63550000  1
  C  C45  1  0.97010000  0.67540000  0.97550000  1
  C  C46  1  0.97450000  0.64370000  0.09570000  1
  N  N47  1  0.04130000  0.04320000  0.71460000  1
  N  N48  1  0.16860000  0.26250000  0.05260000  1
  N  N49  1  0.83140000  0.73750000  0.94740000  1
  N  N50  1  0.95870000  0.95680000  0.28540000  1
  O  O51  1  0.00350000  0.44160000  0.66950000  1
  O  O52  1  0.04910000  0.15210000  0.72570000  1
  O  O53  1  0.05060000  0.31880000  0.45440000  1
  O  O54  1  0.12720000  0.93840000  0.73790000  1
  O  O55  1  0.17400000  0.24740000  0.15950000  1
  O  O56  1  0.22720000  0.50580000  0.28100000  1
  O  O57  1  0.27150000  0.23530000  0.96890000  1
  O  O58  1  0.28110000  0.25040000  0.44070000  1
  O  O59  1  0.34180000  0.60890000  0.70300000  1
  O  O60  1  0.39640000  0.61840000  0.40620000  1
  O  O61  1  0.46980000  0.51800000  0.83640000  1
  O  O62  1  0.47100000  0.74380000  0.49650000  1
  O  O63  1  0.52900000  0.25620000  0.50350000  1
  O  O64  1  0.53020000  0.48200000  0.16360000  1
  O  O65  1  0.60360000  0.38160000  0.59380000  1
  O  O66  1  0.65820000  0.39110000  0.29700000  1
  O  O67  1  0.71890000  0.74960000  0.55930000  1
  O  O68  1  0.72850000  0.76470000  0.03110000  1
  O  O69  1  0.77280000  0.49420000  0.71900000  1
  O  O70  1  0.82600000  0.75260000  0.84050000  1
  O  O71  1  0.87280000  0.06160000  0.26210000  1
  O  O72  1  0.94940000  0.68120000  0.54560000  1
  O  O73  1  0.95090000  0.84790000  0.27430000  1
  O  O74  1  0.99650000  0.55840000  0.33050000  1
