# generated using pymatgen
data_TbPH12(C3O)7
_symmetry_space_group_name_H-M   'P 1'
_cell_length_a   12.10000000
_cell_length_b   20.60500000
_cell_length_c   27.18500000
_cell_angle_alpha   90.00000000
_cell_angle_beta   90.00000000
_cell_angle_gamma   90.00000000
_symmetry_Int_Tables_number   1
_chemical_formula_structural   TbPH12(C3O)7
_chemical_formula_sum   'Tb8 P8 H96 C168 O56'
_cell_volume   6777.77779250
_cell_formula_units_Z   8
loop_
 _symmetry_equiv_pos_site_id
 _symmetry_equiv_pos_as_xyz
  1  'x, y, z'
loop_
 _atom_site_type_symbol
 _atom_site_label
 _atom_site_symmetry_multiplicity
 _atom_site_fract_x
 _atom_site_fract_y
 _atom_site_fract_z
 _atom_site_occupancy
  Tb  Tb0  1  0.88911000  0.97775000  0.42857000  1
  Tb  Tb1  1  0.88911000  0.47775000  0.07143000  1
  Tb  Tb2  1  0.61089000  0.47775000  0.42857000  1
  Tb  Tb3  1  0.61089000  0.97775000  0.07143000  1
  Tb  Tb4  1  0.38911000  0.02225000  0.92857000  1
  Tb  Tb5  1  0.38911000  0.52225000  0.57143000  1
  Tb  Tb6  1  0.11089000  0.52225000  0.92857000  1
  Tb  Tb7  1  0.11089000  0.02225000  0.57143000  1
  P  P8  1  0.87820000  0.40405000  0.39206000  1
  P  P9  1  0.87820000  0.90405000  0.10794000  1
  P  P10  1  0.62180000  0.90405000  0.39206000  1
  P  P11  1  0.62180000  0.40405000  0.10794000  1
  P  P12  1  0.37820000  0.59595000  0.89206000  1
  P  P13  1  0.37820000  0.09595000  0.60794000  1
  P  P14  1  0.12180000  0.09595000  0.89206000  1
  P  P15  1  0.12180000  0.59595000  0.60794000  1
  H  H16  1  0.98590000  0.44140000  0.48070000  1
  H  H17  1  0.98590000  0.94140000  0.01930000  1
  H  H18  1  0.96140000  0.30570000  0.92100000  1
  H  H19  1  0.96140000  0.80570000  0.57900000  1
  H  H20  1  0.95770000  0.19300000  0.91030000  1
  H  H21  1  0.95770000  0.69300000  0.58970000  1
  H  H22  1  0.92050000  0.07140000  0.83960000  1
  H  H23  1  0.92050000  0.57140000  0.66040000  1
  H  H24  1  0.89270000  0.83820000  0.27950000  1
  H  H25  1  0.89270000  0.33820000  0.22050000  1
  H  H26  1  0.88750000  0.03190000  0.25300000  1
  H  H27  1  0.88750000  0.53190000  0.24700000  1
  H  H28  1  0.88290000  0.31920000  0.30480000  1
  H  H29  1  0.88290000  0.81920000  0.19520000  1
  H  H30  1  0.86710000  0.51200000  0.33150000  1
  H  H31  1  0.86710000  0.01200000  0.16850000  1
  H  H32  1  0.83490000  0.53710000  0.49560000  1
  H  H33  1  0.83490000  0.03710000  0.00440000  1
  H  H34  1  0.79540000  0.69770000  0.41680000  1
  H  H35  1  0.79540000  0.19770000  0.08320000  1
  H  H36  1  0.78830000  0.81140000  0.40840000  1
  H  H37  1  0.78830000  0.31140000  0.09160000  1
  H  H38  1  0.76300000  0.55050000  0.86380000  1
  H  H39  1  0.76300000  0.05050000  0.63620000  1
  H  H40  1  0.73700000  0.05050000  0.86380000  1
  H  H41  1  0.73700000  0.55050000  0.63620000  1
  H  H42  1  0.71170000  0.31140000  0.40840000  1
  H  H43  1  0.71170000  0.81140000  0.09160000  1
  H  H44  1  0.70460000  0.19770000  0.41680000  1
  H  H45  1  0.70460000  0.69770000  0.08320000  1
  H  H46  1  0.66510000  0.03710000  0.49560000  1
  H  H47  1  0.66510000  0.53710000  0.00440000  1
  H  H48  1  0.63290000  0.01200000  0.33150000  1
  H  H49  1  0.63290000  0.51200000  0.16850000  1
  H  H50  1  0.61710000  0.81920000  0.30480000  1
  H  H51  1  0.61710000  0.31920000  0.19520000  1
  H  H52  1  0.61250000  0.53190000  0.25300000  1
  H  H53  1  0.61250000  0.03190000  0.24700000  1
  H  H54  1  0.60730000  0.33820000  0.27950000  1
  H  H55  1  0.60730000  0.83820000  0.22050000  1
  H  H56  1  0.57950000  0.57140000  0.83960000  1
  H  H57  1  0.57950000  0.07140000  0.66040000  1
  H  H58  1  0.54230000  0.69300000  0.91030000  1
  H  H59  1  0.54230000  0.19300000  0.58970000  1
  H  H60  1  0.53860000  0.80570000  0.92100000  1
  H  H61  1  0.53860000  0.30570000  0.57900000  1
  H  H62  1  0.51410000  0.94140000  0.48070000  1
  H  H63  1  0.51410000  0.44140000  0.01930000  1
  H  H64  1  0.48590000  0.55860000  0.98070000  1
  H  H65  1  0.48590000  0.05860000  0.51930000  1
  H  H66  1  0.46140000  0.69430000  0.42100000  1
  H  H67  1  0.46140000  0.19430000  0.07900000  1
  H  H68  1  0.45770000  0.80700000  0.41030000  1
  H  H69  1  0.45770000  0.30700000  0.08970000  1
  H  H70  1  0.42050000  0.92860000  0.33960000  1
  H  H71  1  0.42050000  0.42860000  0.16040000  1
  H  H72  1  0.39270000  0.16180000  0.77950000  1
  H  H73  1  0.39270000  0.66180000  0.72050000  1
  H  H74  1  0.38750000  0.96810000  0.75300000  1
  H  H75  1  0.38750000  0.46810000  0.74700000  1
  H  H76  1  0.38290000  0.68080000  0.80480000  1
  H  H77  1  0.38290000  0.18080000  0.69520000  1
  H  H78  1  0.36710000  0.48800000  0.83150000  1
  H  H79  1  0.36710000  0.98800000  0.66850000  1
  H  H80  1  0.33490000  0.46290000  0.99560000  1
  H  H81  1  0.33490000  0.96290000  0.50440000  1
  H  H82  1  0.29540000  0.30230000  0.91680000  1
  H  H83  1  0.29540000  0.80230000  0.58320000  1
  H  H84  1  0.28830000  0.18860000  0.90840000  1
  H  H85  1  0.28830000  0.68860000  0.59160000  1
  H  H86  1  0.26300000  0.44950000  0.36380000  1
  H  H87  1  0.26300000  0.94950000  0.13620000  1
  H  H88  1  0.23700000  0.94950000  0.36380000  1
  H  H89  1  0.23700000  0.44950000  0.13620000  1
  H  H90  1  0.21170000  0.68860000  0.90840000  1
  H  H91  1  0.21170000  0.18860000  0.59160000  1
  H  H92  1  0.20460000  0.80230000  0.91680000  1
  H  H93  1  0.20460000  0.30230000  0.58320000  1
  H  H94  1  0.16510000  0.96290000  0.99560000  1
  H  H95  1  0.16510000  0.46290000  0.50440000  1
  H  H96  1  0.13290000  0.98800000  0.83150000  1
  H  H97  1  0.13290000  0.48800000  0.66850000  1
  H  H98  1  0.11710000  0.18080000  0.80480000  1
  H  H99  1  0.11710000  0.68080000  0.69520000  1
  H  H100  1  0.11250000  0.46810000  0.75300000  1
  H  H101  1  0.11250000  0.96810000  0.74700000  1
  H  H102  1  0.10730000  0.66180000  0.77950000  1
  H  H103  1  0.10730000  0.16180000  0.72050000  1
  H  H104  1  0.07950000  0.42860000  0.33960000  1
  H  H105  1  0.07950000  0.92860000  0.16040000  1
  H  H106  1  0.04230000  0.30700000  0.41030000  1
  H  H107  1  0.04230000  0.80700000  0.08970000  1
  H  H108  1  0.03860000  0.19430000  0.42100000  1
  H  H109  1  0.03860000  0.69430000  0.07900000  1
  H  H110  1  0.01410000  0.05860000  0.98070000  1
  H  H111  1  0.01410000  0.55860000  0.51930000  1
  C  C112  1  0.98440000  0.07090000  0.90850000  1
  C  C113  1  0.98440000  0.57090000  0.59150000  1
  C  C114  1  0.97380000  0.28440000  0.41050000  1
  C  C115  1  0.97380000  0.78440000  0.08950000  1
  C  C116  1  0.97130000  0.21760000  0.41730000  1
  C  C117  1  0.97130000  0.71760000  0.08270000  1
  C  C118  1  0.95740000  0.05800000  0.95650000  1
  C  C119  1  0.95740000  0.55800000  0.54350000  1
  C  C120  1  0.90310000  0.06570000  0.87340000  1
  C  C121  1  0.90310000  0.56570000  0.62660000  1
  C  C122  1  0.89870000  0.94920000  0.32810000  1
  C  C123  1  0.89870000  0.44920000  0.17190000  1
  C  C124  1  0.89180000  0.93700000  0.27360000  1
  C  C125  1  0.89180000  0.43700000  0.22640000  1
  C  C126  1  0.88940000  0.87350000  0.25700000  1
  C  C127  1  0.88940000  0.37350000  0.24300000  1
  C  C128  1  0.88490000  0.48860000  0.25890000  1
  C  C129  1  0.88490000  0.98860000  0.24110000  1
  C  C130  1  0.88210000  0.36260000  0.29300000  1
  C  C131  1  0.88210000  0.86260000  0.20700000  1
  C  C132  1  0.87480000  0.31800000  0.40390000  1
  C  C133  1  0.87480000  0.81800000  0.09610000  1
  C  C134  1  0.87410000  0.47650000  0.30940000  1
  C  C135  1  0.87410000  0.97650000  0.19060000  1
  C  C136  1  0.87350000  0.41440000  0.32750000  1
  C  C137  1  0.87350000  0.91440000  0.17250000  1
  C  C138  1  0.87070000  0.18450000  0.41890000  1
  C  C139  1  0.87070000  0.68450000  0.08110000  1
  C  C140  1  0.86910000  0.11310000  0.42570000  1
  C  C141  1  0.86910000  0.61310000  0.07430000  1
  C  C142  1  0.85200000  0.04420000  0.97080000  1
  C  C143  1  0.85200000  0.54420000  0.52920000  1
  C  C144  1  0.84710000  0.52540000  0.94920000  1
  C  C145  1  0.84710000  0.02540000  0.55080000  1
  C  C146  1  0.79410000  0.05190000  0.88770000  1
  C  C147  1  0.79410000  0.55190000  0.61230000  1
  C  C148  1  0.77840000  0.28710000  0.40900000  1
  C  C149  1  0.77840000  0.78710000  0.09100000  1
  C  C150  1  0.77390000  0.21930000  0.41520000  1
  C  C151  1  0.77390000  0.71930000  0.08480000  1
  C  C152  1  0.77020000  0.04080000  0.93500000  1
  C  C153  1  0.77020000  0.54080000  0.56500000  1
  C  C154  1  0.72980000  0.54080000  0.93500000  1
  C  C155  1  0.72980000  0.04080000  0.56500000  1
  C  C156  1  0.72610000  0.71930000  0.41520000  1
  C  C157  1  0.72610000  0.21930000  0.08480000  1
  C  C158  1  0.72160000  0.78710000  0.40900000  1
  C  C159  1  0.72160000  0.28710000  0.09100000  1
  C  C160  1  0.70590000  0.55190000  0.88770000  1
  C  C161  1  0.70590000  0.05190000  0.61230000  1
  C  C162  1  0.65290000  0.02540000  0.94920000  1
  C  C163  1  0.65290000  0.52540000  0.55080000  1
  C  C164  1  0.64800000  0.54420000  0.97080000  1
  C  C165  1  0.64800000  0.04420000  0.52920000  1
  C  C166  1  0.63090000  0.61310000  0.42570000  1
  C  C167  1  0.63090000  0.11310000  0.07430000  1
  C  C168  1  0.62930000  0.68450000  0.41890000  1
  C  C169  1  0.62930000  0.18450000  0.08110000  1
  C  C170  1  0.62650000  0.91440000  0.32750000  1
  C  C171  1  0.62650000  0.41440000  0.17250000  1
  C  C172  1  0.62590000  0.97650000  0.30940000  1
  C  C173  1  0.62590000  0.47650000  0.19060000  1
  C  C174  1  0.62520000  0.81800000  0.40390000  1
  C  C175  1  0.62520000  0.31800000  0.09610000  1
  C  C176  1  0.61790000  0.86260000  0.29300000  1
  C  C177  1  0.61790000  0.36260000  0.20700000  1
  C  C178  1  0.61510000  0.98860000  0.25890000  1
  C  C179  1  0.61510000  0.48860000  0.24110000  1
  C  C180  1  0.61060000  0.37350000  0.25700000  1
  C  C181  1  0.61060000  0.87350000  0.24300000  1
  C  C182  1  0.60820000  0.43700000  0.27360000  1
  C  C183  1  0.60820000  0.93700000  0.22640000  1
  C  C184  1  0.60130000  0.44920000  0.32810000  1
  C  C185  1  0.60130000  0.94920000  0.17190000  1
  C  C186  1  0.59690000  0.56570000  0.87340000  1
  C  C187  1  0.59690000  0.06570000  0.62660000  1
  C  C188  1  0.54260000  0.55800000  0.95650000  1
  C  C189  1  0.54260000  0.05800000  0.54350000  1
  C  C190  1  0.52870000  0.71760000  0.41730000  1
  C  C191  1  0.52870000  0.21760000  0.08270000  1
  C  C192  1  0.52620000  0.78440000  0.41050000  1
  C  C193  1  0.52620000  0.28440000  0.08950000  1
  C  C194  1  0.51560000  0.57090000  0.90850000  1
  C  C195  1  0.51560000  0.07090000  0.59150000  1
  C  C196  1  0.48440000  0.92910000  0.40850000  1
  C  C197  1  0.48440000  0.42910000  0.09150000  1
  C  C198  1  0.47380000  0.71560000  0.91050000  1
  C  C199  1  0.47380000  0.21560000  0.58950000  1
  C  C200  1  0.47130000  0.78240000  0.91730000  1
  C  C201  1  0.47130000  0.28240000  0.58270000  1
  C  C202  1  0.45740000  0.94200000  0.45650000  1
  C  C203  1  0.45740000  0.44200000  0.04350000  1
  C  C204  1  0.40310000  0.93430000  0.37340000  1
  C  C205  1  0.40310000  0.43430000  0.12660000  1
  C  C206  1  0.39870000  0.05080000  0.82810000  1
  C  C207  1  0.39870000  0.55080000  0.67190000  1
  C  C208  1  0.39180000  0.06300000  0.77360000  1
  C  C209  1  0.39180000  0.56300000  0.72640000  1
  C  C210  1  0.38940000  0.12650000  0.75700000  1
  C  C211  1  0.38940000  0.62650000  0.74300000  1
  C  C212  1  0.38490000  0.51140000  0.75890000  1
  C  C213  1  0.38490000  0.01140000  0.74110000  1
  C  C214  1  0.38210000  0.63740000  0.79300000  1
  C  C215  1  0.38210000  0.13740000  0.70700000  1
  C  C216  1  0.37480000  0.68200000  0.90390000  1
  C  C217  1  0.37480000  0.18200000  0.59610000  1
  C  C218  1  0.37410000  0.52350000  0.80940000  1
  C  C219  1  0.37410000  0.02350000  0.69060000  1
  C  C220  1  0.37350000  0.58560000  0.82750000  1
  C  C221  1  0.37350000  0.08560000  0.67250000  1
  C  C222  1  0.37070000  0.81550000  0.91890000  1
  C  C223  1  0.37070000  0.31550000  0.58110000  1
  C  C224  1  0.36910000  0.88690000  0.92570000  1
  C  C225  1  0.36910000  0.38690000  0.57430000  1
  C  C226  1  0.35200000  0.95580000  0.47080000  1
  C  C227  1  0.35200000  0.45580000  0.02920000  1
  C  C228  1  0.34710000  0.47460000  0.44920000  1
  C  C229  1  0.34710000  0.97460000  0.05080000  1
  C  C230  1  0.29410000  0.94810000  0.38770000  1
  C  C231  1  0.29410000  0.44810000  0.11230000  1
  C  C232  1  0.27840000  0.71290000  0.90900000  1
  C  C233  1  0.27840000  0.21290000  0.59100000  1
  C  C234  1  0.27390000  0.78070000  0.91520000  1
  C  C235  1  0.27390000  0.28070000  0.58480000  1
  C  C236  1  0.27020000  0.95920000  0.43500000  1
  C  C237  1  0.27020000  0.45920000  0.06500000  1
  C  C238  1  0.22980000  0.45920000  0.43500000  1
  C  C239  1  0.22980000  0.95920000  0.06500000  1
  C  C240  1  0.22610000  0.28070000  0.91520000  1
  C  C241  1  0.22610000  0.78070000  0.58480000  1
  C  C242  1  0.22160000  0.21290000  0.90900000  1
  C  C243  1  0.22160000  0.71290000  0.59100000  1
  C  C244  1  0.20590000  0.44810000  0.38770000  1
  C  C245  1  0.20590000  0.94810000  0.11230000  1
  C  C246  1  0.15290000  0.97460000  0.44920000  1
  C  C247  1  0.15290000  0.47460000  0.05080000  1
  C  C248  1  0.14800000  0.45580000  0.47080000  1
  C  C249  1  0.14800000  0.95580000  0.02920000  1
  C  C250  1  0.13090000  0.38690000  0.92570000  1
  C  C251  1  0.13090000  0.88690000  0.57430000  1
  C  C252  1  0.12930000  0.31550000  0.91890000  1
  C  C253  1  0.12930000  0.81550000  0.58110000  1
  C  C254  1  0.12650000  0.08560000  0.82750000  1
  C  C255  1  0.12650000  0.58560000  0.67250000  1
  C  C256  1  0.12590000  0.02350000  0.80940000  1
  C  C257  1  0.12590000  0.52350000  0.69060000  1
  C  C258  1  0.12520000  0.18200000  0.90390000  1
  C  C259  1  0.12520000  0.68200000  0.59610000  1
  C  C260  1  0.11790000  0.13740000  0.79300000  1
  C  C261  1  0.11790000  0.63740000  0.70700000  1
  C  C262  1  0.11510000  0.01140000  0.75890000  1
  C  C263  1  0.11510000  0.51140000  0.74110000  1
  C  C264  1  0.11060000  0.62650000  0.75700000  1
  C  C265  1  0.11060000  0.12650000  0.74300000  1
  C  C266  1  0.10820000  0.56300000  0.77360000  1
  C  C267  1  0.10820000  0.06300000  0.72640000  1
  C  C268  1  0.10130000  0.55080000  0.82810000  1
  C  C269  1  0.10130000  0.05080000  0.67190000  1
  C  C270  1  0.09690000  0.43430000  0.37340000  1
  C  C271  1  0.09690000  0.93430000  0.12660000  1
  C  C272  1  0.04260000  0.44200000  0.45650000  1
  C  C273  1  0.04260000  0.94200000  0.04350000  1
  C  C274  1  0.02870000  0.28240000  0.91730000  1
  C  C275  1  0.02870000  0.78240000  0.58270000  1
  C  C276  1  0.02620000  0.21560000  0.91050000  1
  C  C277  1  0.02620000  0.71560000  0.58950000  1
  C  C278  1  0.01560000  0.42910000  0.40850000  1
  C  C279  1  0.01560000  0.92910000  0.09150000  1
  O  O280  1  0.96320000  0.08650000  0.43480000  1
  O  O281  1  0.96320000  0.58650000  0.06520000  1
  O  O282  1  0.92050000  0.53600000  0.91760000  1
  O  O283  1  0.92050000  0.03600000  0.58240000  1
  O  O284  1  0.90180000  0.90200000  0.35900000  1
  O  O285  1  0.90180000  0.40200000  0.14100000  1
  O  O286  1  0.89800000  0.00780000  0.34340000  1
  O  O287  1  0.89800000  0.50780000  0.15660000  1
  O  O288  1  0.86550000  0.50240000  0.99040000  1
  O  O289  1  0.86550000  0.00240000  0.50960000  1
  O  O290  1  0.79210000  0.44080000  0.42020000  1
  O  O291  1  0.79210000  0.94080000  0.07980000  1
  O  O292  1  0.78270000  0.08050000  0.42100000  1
  O  O293  1  0.78270000  0.58050000  0.07900000  1
  O  O294  1  0.71730000  0.58050000  0.42100000  1
  O  O295  1  0.71730000  0.08050000  0.07900000  1
  O  O296  1  0.70790000  0.94080000  0.42020000  1
  O  O297  1  0.70790000  0.44080000  0.07980000  1
  O  O298  1  0.63450000  0.00240000  0.99040000  1
  O  O299  1  0.63450000  0.50240000  0.50960000  1
  O  O300  1  0.60200000  0.50780000  0.34340000  1
  O  O301  1  0.60200000  0.00780000  0.15660000  1
  O  O302  1  0.59820000  0.40200000  0.35900000  1
  O  O303  1  0.59820000  0.90200000  0.14100000  1
  O  O304  1  0.57950000  0.03600000  0.91760000  1
  O  O305  1  0.57950000  0.53600000  0.58240000  1
  O  O306  1  0.53680000  0.58650000  0.43480000  1
  O  O307  1  0.53680000  0.08650000  0.06520000  1
  O  O308  1  0.46320000  0.91350000  0.93480000  1
  O  O309  1  0.46320000  0.41350000  0.56520000  1
  O  O310  1  0.42050000  0.46400000  0.41760000  1
  O  O311  1  0.42050000  0.96400000  0.08240000  1
  O  O312  1  0.40180000  0.09800000  0.85900000  1
  O  O313  1  0.40180000  0.59800000  0.64100000  1
  O  O314  1  0.39800000  0.99220000  0.84340000  1
  O  O315  1  0.39800000  0.49220000  0.65660000  1
  O  O316  1  0.36550000  0.49760000  0.49040000  1
  O  O317  1  0.36550000  0.99760000  0.00960000  1
  O  O318  1  0.29210000  0.55920000  0.92020000  1
  O  O319  1  0.29210000  0.05920000  0.57980000  1
  O  O320  1  0.28270000  0.91950000  0.92100000  1
  O  O321  1  0.28270000  0.41950000  0.57900000  1
  O  O322  1  0.21730000  0.41950000  0.92100000  1
  O  O323  1  0.21730000  0.91950000  0.57900000  1
  O  O324  1  0.20790000  0.05920000  0.92020000  1
  O  O325  1  0.20790000  0.55920000  0.57980000  1
  O  O326  1  0.13450000  0.99760000  0.49040000  1
  O  O327  1  0.13450000  0.49760000  0.00960000  1
  O  O328  1  0.10200000  0.49220000  0.84340000  1
  O  O329  1  0.10200000  0.99220000  0.65660000  1
  O  O330  1  0.09820000  0.59800000  0.85900000  1
  O  O331  1  0.09820000  0.09800000  0.64100000  1
  O  O332  1  0.07950000  0.96400000  0.41760000  1
  O  O333  1  0.07950000  0.46400000  0.08240000  1
  O  O334  1  0.03680000  0.41350000  0.93480000  1
  O  O335  1  0.03680000  0.91350000  0.56520000  1
