# generated using pymatgen
data_Mn4H21C15(N2O)6
_symmetry_space_group_name_H-M   'P 1'
_cell_length_a   8.07260000
_cell_length_b   13.52740000
_cell_length_c   13.52740000
_cell_angle_alpha   120.00000000
_cell_angle_beta   90.00000000
_cell_angle_gamma   90.00000000
_symmetry_Int_Tables_number   1
_chemical_formula_structural   Mn4H21C15(N2O)6
_chemical_formula_sum   'Mn8 H42 C30 N24 O12'
_cell_volume   1279.30097109
_cell_formula_units_Z   2
loop_
 _symmetry_equiv_pos_site_id
 _symmetry_equiv_pos_as_xyz
  1  'x, y, z'
loop_
 _atom_site_type_symbol
 _atom_site_label
 _atom_site_symmetry_multiplicity
 _atom_site_fract_x
 _atom_site_fract_y
 _atom_site_fract_z
 _atom_site_occupancy
  Mn  Mn0  1  0.45484000  0.96310000  0.66178000  1
  Mn  Mn1  1  0.45484000  0.69868000  0.03690000  1
  Mn  Mn2  1  0.07760000  0.66666667  0.33333333  1
  Mn  Mn3  1  0.95484000  0.66178000  0.69868000  1
  Mn  Mn4  1  0.45484000  0.33822000  0.30132000  1
  Mn  Mn5  1  0.57760000  0.33333333  0.66666667  1
  Mn  Mn6  1  0.95484000  0.30132000  0.96310000  1
  Mn  Mn7  1  0.95484000  0.03690000  0.33822000  1
  H  H8  1  0.69830000  0.98160000  0.53910000  1
  H  H9  1  0.94310000  0.95550000  0.60240000  1
  H  H10  1  0.84880000  0.91580000  0.67800000  1
  H  H11  1  0.56020000  0.91220000  0.19880000  1
  H  H12  1  0.70480000  0.86470000  0.51630000  1
  H  H13  1  0.29150000  0.86420000  0.28730000  1
  H  H14  1  0.55470000  0.84560000  0.25680000  1
  H  H15  1  0.56020000  0.80120000  0.71340000  1
  H  H16  1  0.84880000  0.76220000  0.08420000  1
  H  H17  1  0.55470000  0.74320000  0.58880000  1
  H  H18  1  0.06020000  0.71340000  0.91220000  1
  H  H19  1  0.29150000  0.71270000  0.57690000  1
  H  H20  1  0.34880000  0.67800000  0.76220000  1
  H  H21  1  0.70480000  0.65160000  0.13530000  1
  H  H22  1  0.94310000  0.64690000  0.04450000  1
  H  H23  1  0.44310000  0.60240000  0.64690000  1
  H  H24  1  0.05470000  0.58880000  0.84560000  1
  H  H25  1  0.79150000  0.57690000  0.86420000  1
  H  H26  1  0.69830000  0.55750000  0.01840000  1
  H  H27  1  0.19830000  0.53910000  0.55750000  1
  H  H28  1  0.20480000  0.51630000  0.65160000  1
  H  H29  1  0.70480000  0.48370000  0.34840000  1
  H  H30  1  0.69830000  0.46090000  0.44250000  1
  H  H31  1  0.19830000  0.44250000  0.98160000  1
  H  H32  1  0.29150000  0.42310000  0.13580000  1
  H  H33  1  0.55470000  0.41120000  0.15440000  1
  H  H34  1  0.94310000  0.39760000  0.35310000  1
  H  H35  1  0.44310000  0.35310000  0.95550000  1
  H  H36  1  0.20480000  0.34840000  0.86470000  1
  H  H37  1  0.84880000  0.32200000  0.23780000  1
  H  H38  1  0.79150000  0.28730000  0.42310000  1
  H  H39  1  0.56020000  0.28660000  0.08780000  1
  H  H40  1  0.05470000  0.25680000  0.41120000  1
  H  H41  1  0.34880000  0.23780000  0.91580000  1
  H  H42  1  0.06020000  0.19880000  0.28660000  1
  H  H43  1  0.05470000  0.15440000  0.74320000  1
  H  H44  1  0.79150000  0.13580000  0.71270000  1
  H  H45  1  0.20480000  0.13530000  0.48370000  1
  H  H46  1  0.06020000  0.08780000  0.80120000  1
  H  H47  1  0.34880000  0.08420000  0.32200000  1
  H  H48  1  0.44310000  0.04450000  0.39760000  1
  H  H49  1  0.19830000  0.01840000  0.46090000  1
  C  C50  1  0.84360000  0.96660000  0.64690000  1
  C  C51  1  0.33620000  0.90940000  0.25500000  1
  C  C52  1  0.21990000  0.89070000  0.15800000  1
  C  C53  1  0.21990000  0.84200000  0.73270000  1
  C  C54  1  0.22340000  0.79387000  0.44020000  1
  C  C55  1  0.95150000  0.78815000  0.32292000  1
  C  C56  1  0.33620000  0.74500000  0.65440000  1
  C  C57  1  0.71990000  0.73270000  0.89070000  1
  C  C58  1  0.84360000  0.68030000  0.03340000  1
  C  C59  1  0.95150000  0.67708000  0.46523000  1
  C  C60  1  0.83620000  0.65440000  0.90940000  1
  C  C61  1  0.34360000  0.64690000  0.68030000  1
  C  C62  1  0.22340000  0.64633000  0.20613000  1
  C  C63  1  0.22340000  0.55980000  0.35367000  1
  C  C64  1  0.95150000  0.53477000  0.21185000  1
  C  C65  1  0.45150000  0.46523000  0.78815000  1
  C  C66  1  0.72340000  0.44020000  0.64633000  1
  C  C67  1  0.72340000  0.35367000  0.79387000  1
  C  C68  1  0.84360000  0.35310000  0.31970000  1
  C  C69  1  0.33620000  0.34560000  0.09060000  1
  C  C70  1  0.45150000  0.32292000  0.53477000  1
  C  C71  1  0.34360000  0.31970000  0.96660000  1
  C  C72  1  0.21990000  0.26730000  0.10930000  1
  C  C73  1  0.83620000  0.25500000  0.34560000  1
  C  C74  1  0.45150000  0.21185000  0.67708000  1
  C  C75  1  0.72340000  0.20613000  0.55980000  1
  C  C76  1  0.71990000  0.15800000  0.26730000  1
  C  C77  1  0.71990000  0.10930000  0.84200000  1
  C  C78  1  0.83620000  0.09060000  0.74500000  1
  C  C79  1  0.34360000  0.03340000  0.35310000  1
  N  N80  1  0.69710000  0.93814000  0.57221000  1
  N  N81  1  0.30810000  0.86770000  0.49990000  1
  N  N82  1  0.89690000  0.86600000  0.32150000  1
  N  N83  1  0.49990000  0.86190000  0.20880000  1
  N  N84  1  0.49990000  0.79120000  0.65310000  1
  N  N85  1  0.89690000  0.67850000  0.54450000  1
  N  N86  1  0.99990000  0.65310000  0.86190000  1
  N  N87  1  0.69710000  0.63407000  0.06186000  1
  N  N88  1  0.30810000  0.63220000  0.13230000  1
  N  N89  1  0.19710000  0.57221000  0.63407000  1
  N  N90  1  0.39690000  0.54450000  0.86600000  1
  N  N91  1  0.30810000  0.50010000  0.36780000  1
  N  N92  1  0.80810000  0.49990000  0.63220000  1
  N  N93  1  0.89690000  0.45550000  0.13400000  1
  N  N94  1  0.69710000  0.42779000  0.36593000  1
  N  N95  1  0.80810000  0.36780000  0.86770000  1
  N  N96  1  0.19710000  0.36593000  0.93814000  1
  N  N97  1  0.49990000  0.34690000  0.13810000  1
  N  N98  1  0.39690000  0.32150000  0.45550000  1
  N  N99  1  0.99990000  0.20880000  0.34690000  1
  N  N100  1  0.99990000  0.13810000  0.79120000  1
  N  N101  1  0.39690000  0.13400000  0.67850000  1
  N  N102  1  0.80810000  0.13230000  0.50010000  1
  N  N103  1  0.19710000  0.06186000  0.42779000  1
  O  O104  1  0.09390000  0.95194000  0.18151000  1
  O  O105  1  0.25350000  0.94156000  0.75437000  1
  O  O106  1  0.09390000  0.81849000  0.77043000  1
  O  O107  1  0.25350000  0.81281000  0.05844000  1
  O  O108  1  0.59390000  0.77043000  0.95194000  1
  O  O109  1  0.75350000  0.75437000  0.81281000  1
  O  O110  1  0.25350000  0.24563000  0.18719000  1
  O  O111  1  0.09390000  0.22957000  0.04806000  1
  O  O112  1  0.75350000  0.18719000  0.94156000  1
  O  O113  1  0.59390000  0.18151000  0.22957000  1
  O  O114  1  0.75350000  0.05844000  0.24563000  1
  O  O115  1  0.59390000  0.04806000  0.81849000  1
