# generated using pymatgen
data_Zn2H14C17N15O4
_symmetry_space_group_name_H-M   'P 1'
_cell_length_a   9.88700000
_cell_length_b   17.28100000
_cell_length_c   20.81800000
_cell_angle_alpha   90.00000000
_cell_angle_beta   90.00000000
_cell_angle_gamma   90.00000000
_symmetry_Int_Tables_number   1
_chemical_formula_structural   Zn2H14C17N15O4
_chemical_formula_sum   'Zn8 H56 C68 N60 O16'
_cell_volume   3556.90616805
_cell_formula_units_Z   4
loop_
 _symmetry_equiv_pos_site_id
 _symmetry_equiv_pos_as_xyz
  1  'x, y, z'
loop_
 _atom_site_type_symbol
 _atom_site_label
 _atom_site_symmetry_multiplicity
 _atom_site_fract_x
 _atom_site_fract_y
 _atom_site_fract_z
 _atom_site_occupancy
  Zn  Zn0  1  0.68973000  0.17718000  0.18383000  1
  Zn  Zn1  1  0.68973000  0.82282000  0.18383000  1
  Zn  Zn2  1  0.18973000  0.32282000  0.31617000  1
  Zn  Zn3  1  0.18973000  0.67718000  0.31617000  1
  Zn  Zn4  1  0.81027000  0.32282000  0.68383000  1
  Zn  Zn5  1  0.81027000  0.67718000  0.68383000  1
  Zn  Zn6  1  0.31027000  0.17718000  0.81617000  1
  Zn  Zn7  1  0.31027000  0.82282000  0.81617000  1
  H  H8  1  0.38750000  0.24010000  0.02230000  1
  H  H9  1  0.38750000  0.75990000  0.02230000  1
  H  H10  1  0.96990000  0.31780000  0.09750000  1
  H  H11  1  0.96990000  0.68220000  0.09750000  1
  H  H12  1  0.87160000  0.04510000  0.12140000  1
  H  H13  1  0.87160000  0.95490000  0.12140000  1
  H  H14  1  0.36870000  0.29510000  0.12350000  1
  H  H15  1  0.36870000  0.70490000  0.12350000  1
  H  H16  1  0.15900000  0.33600000  0.15950000  1
  H  H17  1  0.15900000  0.66400000  0.15950000  1
  H  H18  1  0.78060000  0.34750000  0.21470000  1
  H  H19  1  0.78060000  0.65250000  0.21470000  1
  H  H20  1  0.90190000  0.38730000  0.24130000  1
  H  H21  1  0.90190000  0.61270000  0.24130000  1
  H  H22  1  0.40190000  0.11270000  0.25870000  1
  H  H23  1  0.40190000  0.88730000  0.25870000  1
  H  H24  1  0.28060000  0.15250000  0.28530000  1
  H  H25  1  0.28060000  0.84750000  0.28530000  1
  H  H26  1  0.65900000  0.16400000  0.34050000  1
  H  H27  1  0.65900000  0.83600000  0.34050000  1
  H  H28  1  0.86870000  0.20490000  0.37650000  1
  H  H29  1  0.86870000  0.79510000  0.37650000  1
  H  H30  1  0.37160000  0.45490000  0.37860000  1
  H  H31  1  0.37160000  0.54510000  0.37860000  1
  H  H32  1  0.46990000  0.18220000  0.40250000  1
  H  H33  1  0.46990000  0.81780000  0.40250000  1
  H  H34  1  0.88750000  0.25990000  0.47770000  1
  H  H35  1  0.88750000  0.74010000  0.47770000  1
  H  H36  1  0.11250000  0.25990000  0.52230000  1
  H  H37  1  0.11250000  0.74010000  0.52230000  1
  H  H38  1  0.53010000  0.18220000  0.59750000  1
  H  H39  1  0.53010000  0.81780000  0.59750000  1
  H  H40  1  0.62840000  0.45490000  0.62140000  1
  H  H41  1  0.62840000  0.54510000  0.62140000  1
  H  H42  1  0.13130000  0.20490000  0.62350000  1
  H  H43  1  0.13130000  0.79510000  0.62350000  1
  H  H44  1  0.34100000  0.16400000  0.65950000  1
  H  H45  1  0.34100000  0.83600000  0.65950000  1
  H  H46  1  0.71940000  0.15250000  0.71470000  1
  H  H47  1  0.71940000  0.84750000  0.71470000  1
  H  H48  1  0.59810000  0.11270000  0.74130000  1
  H  H49  1  0.59810000  0.88730000  0.74130000  1
  H  H50  1  0.09810000  0.38730000  0.75870000  1
  H  H51  1  0.09810000  0.61270000  0.75870000  1
  H  H52  1  0.21940000  0.34750000  0.78530000  1
  H  H53  1  0.21940000  0.65250000  0.78530000  1
  H  H54  1  0.84100000  0.33600000  0.84050000  1
  H  H55  1  0.84100000  0.66400000  0.84050000  1
  H  H56  1  0.63130000  0.29510000  0.87650000  1
  H  H57  1  0.63130000  0.70490000  0.87650000  1
  H  H58  1  0.12840000  0.04510000  0.87860000  1
  H  H59  1  0.12840000  0.95490000  0.87860000  1
  H  H60  1  0.03010000  0.31780000  0.90250000  1
  H  H61  1  0.03010000  0.68220000  0.90250000  1
  H  H62  1  0.61250000  0.24010000  0.97770000  1
  H  H63  1  0.61250000  0.75990000  0.97770000  1
  C  C64  1  0.81170000  0.24470000  0.00160000  1
  C  C65  1  0.81170000  0.75530000  0.00160000  1
  C  C66  1  0.06140000  0.26910000  0.02070000  1
  C  C67  1  0.06140000  0.73090000  0.02070000  1
  C  C68  1  0.30330000  0.25590000  0.03740000  1
  C  C69  1  0.30330000  0.74410000  0.03740000  1
  C  C70  1  0.79330000  0.20320000  0.06490000  1
  C  C71  1  0.79330000  0.79680000  0.06490000  1
  C  C72  1  0.05360000  0.30210000  0.08180000  1
  C  C73  1  0.05360000  0.69790000  0.08180000  1
  C  C74  1  0.29250000  0.28910000  0.09770000  1
  C  C75  1  0.29250000  0.71090000  0.09770000  1
  C  C76  1  0.16700000  0.31240000  0.11950000  1
  C  C77  1  0.16700000  0.68760000  0.11950000  1
  C  C78  1  0.72470000  1.00000000  0.17310000  1
  C  C79  1  0.91490000  0.27610000  0.24550000  1
  C  C80  1  0.91490000  0.72390000  0.24550000  1
  C  C81  1  0.41490000  0.22390000  0.25450000  1
  C  C82  1  0.41490000  0.77610000  0.25450000  1
  C  C83  1  0.22470000  0.50000000  0.32690000  1
  C  C84  1  0.66700000  0.18760000  0.38050000  1
  C  C85  1  0.66700000  0.81240000  0.38050000  1
  C  C86  1  0.79250000  0.21090000  0.40230000  1
  C  C87  1  0.79250000  0.78910000  0.40230000  1
  C  C88  1  0.55360000  0.19790000  0.41820000  1
  C  C89  1  0.55360000  0.80210000  0.41820000  1
  C  C90  1  0.29330000  0.29680000  0.43510000  1
  C  C91  1  0.29330000  0.70320000  0.43510000  1
  C  C92  1  0.80330000  0.24410000  0.46260000  1
  C  C93  1  0.80330000  0.75590000  0.46260000  1
  C  C94  1  0.56140000  0.23090000  0.47930000  1
  C  C95  1  0.56140000  0.76910000  0.47930000  1
  C  C96  1  0.31170000  0.25530000  0.49840000  1
  C  C97  1  0.31170000  0.74470000  0.49840000  1
  C  C98  1  0.68830000  0.25530000  0.50160000  1
  C  C99  1  0.68830000  0.74470000  0.50160000  1
  C  C100  1  0.43860000  0.23090000  0.52070000  1
  C  C101  1  0.43860000  0.76910000  0.52070000  1
  C  C102  1  0.19670000  0.24410000  0.53740000  1
  C  C103  1  0.19670000  0.75590000  0.53740000  1
  C  C104  1  0.70670000  0.29680000  0.56490000  1
  C  C105  1  0.70670000  0.70320000  0.56490000  1
  C  C106  1  0.44640000  0.19790000  0.58180000  1
  C  C107  1  0.44640000  0.80210000  0.58180000  1
  C  C108  1  0.20750000  0.21090000  0.59770000  1
  C  C109  1  0.20750000  0.78910000  0.59770000  1
  C  C110  1  0.33300000  0.18760000  0.61950000  1
  C  C111  1  0.33300000  0.81240000  0.61950000  1
  C  C112  1  0.77530000  0.50000000  0.67310000  1
  C  C113  1  0.58510000  0.22390000  0.74550000  1
  C  C114  1  0.58510000  0.77610000  0.74550000  1
  C  C115  1  0.08510000  0.27610000  0.75450000  1
  C  C116  1  0.08510000  0.72390000  0.75450000  1
  C  C117  1  0.27530000  1.00000000  0.82690000  1
  C  C118  1  0.83300000  0.31240000  0.88050000  1
  C  C119  1  0.83300000  0.68760000  0.88050000  1
  C  C120  1  0.70750000  0.28910000  0.90230000  1
  C  C121  1  0.70750000  0.71090000  0.90230000  1
  C  C122  1  0.94640000  0.30210000  0.91820000  1
  C  C123  1  0.94640000  0.69790000  0.91820000  1
  C  C124  1  0.20670000  0.20320000  0.93510000  1
  C  C125  1  0.20670000  0.79680000  0.93510000  1
  C  C126  1  0.69670000  0.25590000  0.96260000  1
  C  C127  1  0.69670000  0.74410000  0.96260000  1
  C  C128  1  0.93860000  0.26910000  0.97930000  1
  C  C129  1  0.93860000  0.73090000  0.97930000  1
  C  C130  1  0.18830000  0.24470000  0.99840000  1
  C  C131  1  0.18830000  0.75530000  0.99840000  1
  N  N132  1  0.83560000  0.00000000  0.13470000  1
  N  N133  1  0.66200000  0.06350000  0.19300000  1
  N  N134  1  0.66200000  0.93650000  0.19300000  1
  N  N135  1  0.55480000  0.31360000  0.22640000  1
  N  N136  1  0.55480000  0.68640000  0.22640000  1
  N  N137  1  0.53740000  0.23560000  0.22730000  1
  N  N138  1  0.53740000  0.76440000  0.22730000  1
  N  N139  1  0.56040000  0.03710000  0.23010000  1
  N  N140  1  0.56040000  0.96290000  0.23010000  1
  N  N141  1  0.85900000  0.20810000  0.23060000  1
  N  N142  1  0.85900000  0.79190000  0.23060000  1
  N  N143  1  0.85940000  0.34530000  0.23210000  1
  N  N144  1  0.85940000  0.65470000  0.23210000  1
  N  N145  1  0.94950000  0.15280000  0.24900000  1
  N  N146  1  0.94950000  0.84720000  0.24900000  1
  N  N147  1  0.44950000  0.34720000  0.25100000  1
  N  N148  1  0.44950000  0.65280000  0.25100000  1
  N  N149  1  0.35940000  0.15470000  0.26790000  1
  N  N150  1  0.35940000  0.84530000  0.26790000  1
  N  N151  1  0.35900000  0.29190000  0.26940000  1
  N  N152  1  0.35900000  0.70810000  0.26940000  1
  N  N153  1  0.06040000  0.46290000  0.26990000  1
  N  N154  1  0.06040000  0.53710000  0.26990000  1
  N  N155  1  0.03740000  0.26440000  0.27270000  1
  N  N156  1  0.03740000  0.73560000  0.27270000  1
  N  N157  1  0.05480000  0.18640000  0.27360000  1
  N  N158  1  0.05480000  0.81360000  0.27360000  1
  N  N159  1  0.16200000  0.43650000  0.30700000  1
  N  N160  1  0.16200000  0.56350000  0.30700000  1
  N  N161  1  0.33560000  0.50000000  0.36530000  1
  N  N162  1  0.66440000  0.50000000  0.63470000  1
  N  N163  1  0.83800000  0.43650000  0.69300000  1
  N  N164  1  0.83800000  0.56350000  0.69300000  1
  N  N165  1  0.94520000  0.18640000  0.72640000  1
  N  N166  1  0.94520000  0.81360000  0.72640000  1
  N  N167  1  0.96260000  0.26440000  0.72730000  1
  N  N168  1  0.96260000  0.73560000  0.72730000  1
  N  N169  1  0.93960000  0.46290000  0.73010000  1
  N  N170  1  0.93960000  0.53710000  0.73010000  1
  N  N171  1  0.64100000  0.29190000  0.73060000  1
  N  N172  1  0.64100000  0.70810000  0.73060000  1
  N  N173  1  0.64060000  0.15470000  0.73210000  1
  N  N174  1  0.64060000  0.84530000  0.73210000  1
  N  N175  1  0.55050000  0.34720000  0.74900000  1
  N  N176  1  0.55050000  0.65280000  0.74900000  1
  N  N177  1  0.05050000  0.15280000  0.75100000  1
  N  N178  1  0.05050000  0.84720000  0.75100000  1
  N  N179  1  0.14060000  0.34530000  0.76790000  1
  N  N180  1  0.14060000  0.65470000  0.76790000  1
  N  N181  1  0.14100000  0.20810000  0.76940000  1
  N  N182  1  0.14100000  0.79190000  0.76940000  1
  N  N183  1  0.43960000  0.03710000  0.76990000  1
  N  N184  1  0.43960000  0.96290000  0.76990000  1
  N  N185  1  0.46260000  0.23560000  0.77270000  1
  N  N186  1  0.46260000  0.76440000  0.77270000  1
  N  N187  1  0.44520000  0.31360000  0.77360000  1
  N  N188  1  0.44520000  0.68640000  0.77360000  1
  N  N189  1  0.33800000  0.06350000  0.80700000  1
  N  N190  1  0.33800000  0.93650000  0.80700000  1
  N  N191  1  0.16440000  0.00000000  0.86530000  1
  O  O192  1  0.87180000  0.14990000  0.08000000  1
  O  O193  1  0.87180000  0.85010000  0.08000000  1
  O  O194  1  0.69090000  0.22510000  0.09799000  1
  O  O195  1  0.69090000  0.77490000  0.09799000  1
  O  O196  1  0.19090000  0.27490000  0.40201000  1
  O  O197  1  0.19090000  0.72510000  0.40201000  1
  O  O198  1  0.37180000  0.35010000  0.42000000  1
  O  O199  1  0.37180000  0.64990000  0.42000000  1
  O  O200  1  0.62820000  0.35010000  0.58000000  1
  O  O201  1  0.62820000  0.64990000  0.58000000  1
  O  O202  1  0.80910000  0.27490000  0.59799000  1
  O  O203  1  0.80910000  0.72510000  0.59799000  1
  O  O204  1  0.30910000  0.22510000  0.90201000  1
  O  O205  1  0.30910000  0.77490000  0.90201000  1
  O  O206  1  0.12820000  0.14990000  0.92000000  1
  O  O207  1  0.12820000  0.85010000  0.92000000  1
