# generated using pymatgen
data_TbH16C24NO8
_symmetry_space_group_name_H-M   'P 1'
_cell_length_a   10.92900000
_cell_length_b   16.58600000
_cell_length_c   19.39600000
_cell_angle_alpha   90.00000000
_cell_angle_beta   90.00000000
_cell_angle_gamma   90.00000000
_symmetry_Int_Tables_number   1
_chemical_formula_structural   TbH16C24NO8
_chemical_formula_sum   'Tb4 H64 C96 N4 O32'
_cell_volume   3515.88177002
_cell_formula_units_Z   4
loop_
 _symmetry_equiv_pos_site_id
 _symmetry_equiv_pos_as_xyz
  1  'x, y, z'
loop_
 _atom_site_type_symbol
 _atom_site_label
 _atom_site_symmetry_multiplicity
 _atom_site_fract_x
 _atom_site_fract_y
 _atom_site_fract_z
 _atom_site_occupancy
  Tb  Tb0  1  0.21180000  0.75000000  0.20407000  1
  Tb  Tb1  1  0.28820000  0.25000000  0.70407000  1
  Tb  Tb2  1  0.71180000  0.75000000  0.29593000  1
  Tb  Tb3  1  0.78820000  0.25000000  0.79593000  1
  H  H4  1  0.01690000  0.25000000  0.07650000  1
  H  H5  1  0.01990000  0.01200000  0.67080000  1
  H  H6  1  0.01990000  0.48800000  0.67080000  1
  H  H7  1  0.03080000  0.67150000  0.45300000  1
  H  H8  1  0.03080000  0.82850000  0.45300000  1
  H  H9  1  0.04080000  0.10690000  0.37880000  1
  H  H10  1  0.04080000  0.39310000  0.37880000  1
  H  H11  1  0.04090000  0.75000000  0.03830000  1
  H  H12  1  0.06840000  0.18070000  0.48900000  1
  H  H13  1  0.06840000  0.31930000  0.48900000  1
  H  H14  1  0.14520000  0.75000000  0.69460000  1
  H  H15  1  0.18790000  0.75000000  0.40590000  1
  H  H16  1  0.19070000  0.56930000  0.46490000  1
  H  H17  1  0.19070000  0.93070000  0.46490000  1
  H  H18  1  0.24200000  0.54720000  0.01750000  1
  H  H19  1  0.24200000  0.95280000  0.01750000  1
  H  H20  1  0.25800000  0.04720000  0.51750000  1
  H  H21  1  0.25800000  0.45280000  0.51750000  1
  H  H22  1  0.30930000  0.06930000  0.96490000  1
  H  H23  1  0.30930000  0.43070000  0.96490000  1
  H  H24  1  0.31210000  0.25000000  0.90590000  1
  H  H25  1  0.35480000  0.25000000  0.19460000  1
  H  H26  1  0.43160000  0.68070000  0.98900000  1
  H  H27  1  0.43160000  0.81930000  0.98900000  1
  H  H28  1  0.45910000  0.25000000  0.53830000  1
  H  H29  1  0.45920000  0.60690000  0.87880000  1
  H  H30  1  0.45920000  0.89310000  0.87880000  1
  H  H31  1  0.46920000  0.17150000  0.95300000  1
  H  H32  1  0.46920000  0.32850000  0.95300000  1
  H  H33  1  0.48010000  0.51200000  0.17080000  1
  H  H34  1  0.48010000  0.98800000  0.17080000  1
  H  H35  1  0.48310000  0.75000000  0.57650000  1
  H  H36  1  0.51690000  0.25000000  0.42350000  1
  H  H37  1  0.51990000  0.01200000  0.82920000  1
  H  H38  1  0.51990000  0.48800000  0.82920000  1
  H  H39  1  0.53080000  0.67150000  0.04700000  1
  H  H40  1  0.53080000  0.82850000  0.04700000  1
  H  H41  1  0.54080000  0.10690000  0.12120000  1
  H  H42  1  0.54080000  0.39310000  0.12120000  1
  H  H43  1  0.54090000  0.75000000  0.46170000  1
  H  H44  1  0.56840000  0.18070000  0.01100000  1
  H  H45  1  0.56840000  0.31930000  0.01100000  1
  H  H46  1  0.64520000  0.75000000  0.80540000  1
  H  H47  1  0.68790000  0.75000000  0.09410000  1
  H  H48  1  0.69070000  0.56930000  0.03510000  1
  H  H49  1  0.69070000  0.93070000  0.03510000  1
  H  H50  1  0.74200000  0.54720000  0.48250000  1
  H  H51  1  0.74200000  0.95280000  0.48250000  1
  H  H52  1  0.75800000  0.04720000  0.98250000  1
  H  H53  1  0.75800000  0.45280000  0.98250000  1
  H  H54  1  0.80930000  0.06930000  0.53510000  1
  H  H55  1  0.80930000  0.43070000  0.53510000  1
  H  H56  1  0.81210000  0.25000000  0.59410000  1
  H  H57  1  0.85480000  0.25000000  0.30540000  1
  H  H58  1  0.93160000  0.68070000  0.51100000  1
  H  H59  1  0.93160000  0.81930000  0.51100000  1
  H  H60  1  0.95910000  0.25000000  0.96170000  1
  H  H61  1  0.95920000  0.60690000  0.62120000  1
  H  H62  1  0.95920000  0.89310000  0.62120000  1
  H  H63  1  0.96920000  0.17150000  0.54700000  1
  H  H64  1  0.96920000  0.32850000  0.54700000  1
  H  H65  1  0.98010000  0.51200000  0.32920000  1
  H  H66  1  0.98010000  0.98800000  0.32920000  1
  H  H67  1  0.98310000  0.75000000  0.92350000  1
  C  C68  1  0.01810000  0.57540000  0.59950000  1
  C  C69  1  0.01810000  0.92460000  0.59950000  1
  C  C70  1  0.01880000  0.67590000  0.50240000  1
  C  C71  1  0.01880000  0.82410000  0.50240000  1
  C  C72  1  0.04150000  0.25000000  0.97350000  1
  C  C73  1  0.05590000  0.50480000  0.62980000  1
  C  C74  1  0.05590000  0.99520000  0.62980000  1
  C  C75  1  0.06650000  0.60020000  0.53730000  1
  C  C76  1  0.06650000  0.89980000  0.53730000  1
  C  C77  1  0.07650000  0.25000000  0.04230000  1
  C  C78  1  0.09560000  0.25000000  0.84750000  1
  C  C79  1  0.13010000  0.25000000  0.92260000  1
  C  C80  1  0.14610000  0.04120000  0.60030000  1
  C  C81  1  0.14610000  0.45880000  0.60030000  1
  C  C82  1  0.15690000  0.55340000  0.50670000  1
  C  C83  1  0.15690000  0.94660000  0.50670000  1
  C  C84  1  0.18700000  0.11870000  0.63290000  1
  C  C85  1  0.18700000  0.38130000  0.63290000  1
  C  C86  1  0.19690000  0.01650000  0.53810000  1
  C  C87  1  0.19690000  0.48350000  0.53810000  1
  C  C88  1  0.19990000  0.25000000  0.06070000  1
  C  C89  1  0.21310000  0.75000000  0.50950000  1
  C  C90  1  0.22890000  0.25000000  0.13700000  1
  C  C91  1  0.24730000  0.75000000  0.44010000  1
  C  C92  1  0.25270000  0.25000000  0.94010000  1
  C  C93  1  0.27110000  0.75000000  0.63700000  1
  C  C94  1  0.28690000  0.25000000  0.00950000  1
  C  C95  1  0.30010000  0.75000000  0.56070000  1
  C  C96  1  0.30310000  0.51650000  0.03810000  1
  C  C97  1  0.30310000  0.98350000  0.03810000  1
  C  C98  1  0.31300000  0.61870000  0.13290000  1
  C  C99  1  0.31300000  0.88130000  0.13290000  1
  C  C100  1  0.34310000  0.05340000  0.00670000  1
  C  C101  1  0.34310000  0.44660000  0.00670000  1
  C  C102  1  0.35390000  0.54120000  0.10030000  1
  C  C103  1  0.35390000  0.95880000  0.10030000  1
  C  C104  1  0.36990000  0.75000000  0.42260000  1
  C  C105  1  0.40440000  0.75000000  0.34750000  1
  C  C106  1  0.42350000  0.75000000  0.54230000  1
  C  C107  1  0.43350000  0.10020000  0.03730000  1
  C  C108  1  0.43350000  0.39980000  0.03730000  1
  C  C109  1  0.44410000  0.00480000  0.12980000  1
  C  C110  1  0.44410000  0.49520000  0.12980000  1
  C  C111  1  0.45850000  0.75000000  0.47350000  1
  C  C112  1  0.48120000  0.17590000  0.00240000  1
  C  C113  1  0.48120000  0.32410000  0.00240000  1
  C  C114  1  0.48190000  0.07540000  0.09950000  1
  C  C115  1  0.48190000  0.42460000  0.09950000  1
  C  C116  1  0.51810000  0.57540000  0.90050000  1
  C  C117  1  0.51810000  0.92460000  0.90050000  1
  C  C118  1  0.51880000  0.67590000  0.99760000  1
  C  C119  1  0.51880000  0.82410000  0.99760000  1
  C  C120  1  0.54150000  0.25000000  0.52650000  1
  C  C121  1  0.55590000  0.50480000  0.87020000  1
  C  C122  1  0.55590000  0.99520000  0.87020000  1
  C  C123  1  0.56650000  0.60020000  0.96270000  1
  C  C124  1  0.56650000  0.89980000  0.96270000  1
  C  C125  1  0.57650000  0.25000000  0.45770000  1
  C  C126  1  0.59560000  0.25000000  0.65250000  1
  C  C127  1  0.63010000  0.25000000  0.57740000  1
  C  C128  1  0.64610000  0.04120000  0.89970000  1
  C  C129  1  0.64610000  0.45880000  0.89970000  1
  C  C130  1  0.65690000  0.55340000  0.99330000  1
  C  C131  1  0.65690000  0.94660000  0.99330000  1
  C  C132  1  0.68700000  0.11870000  0.86710000  1
  C  C133  1  0.68700000  0.38130000  0.86710000  1
  C  C134  1  0.69690000  0.01650000  0.96190000  1
  C  C135  1  0.69690000  0.48350000  0.96190000  1
  C  C136  1  0.69990000  0.25000000  0.43930000  1
  C  C137  1  0.71310000  0.75000000  0.99050000  1
  C  C138  1  0.72890000  0.25000000  0.36300000  1
  C  C139  1  0.74730000  0.75000000  0.05990000  1
  C  C140  1  0.75270000  0.25000000  0.55990000  1
  C  C141  1  0.77110000  0.75000000  0.86300000  1
  C  C142  1  0.78690000  0.25000000  0.49050000  1
  C  C143  1  0.80010000  0.75000000  0.93930000  1
  C  C144  1  0.80310000  0.51650000  0.46190000  1
  C  C145  1  0.80310000  0.98350000  0.46190000  1
  C  C146  1  0.81300000  0.61870000  0.36710000  1
  C  C147  1  0.81300000  0.88130000  0.36710000  1
  C  C148  1  0.84310000  0.05340000  0.49330000  1
  C  C149  1  0.84310000  0.44660000  0.49330000  1
  C  C150  1  0.85390000  0.54120000  0.39970000  1
  C  C151  1  0.85390000  0.95880000  0.39970000  1
  C  C152  1  0.86990000  0.75000000  0.07740000  1
  C  C153  1  0.90440000  0.75000000  0.15250000  1
  C  C154  1  0.92350000  0.75000000  0.95770000  1
  C  C155  1  0.93350000  0.10020000  0.46270000  1
  C  C156  1  0.93350000  0.39980000  0.46270000  1
  C  C157  1  0.94410000  0.00480000  0.37020000  1
  C  C158  1  0.94410000  0.49520000  0.37020000  1
  C  C159  1  0.95850000  0.75000000  0.02650000  1
  C  C160  1  0.98120000  0.17590000  0.49760000  1
  C  C161  1  0.98120000  0.32410000  0.49760000  1
  C  C162  1  0.98190000  0.07540000  0.40050000  1
  C  C163  1  0.98190000  0.42460000  0.40050000  1
  N  N164  1  0.08210000  0.75000000  0.52820000  1
  N  N165  1  0.41790000  0.25000000  0.02820000  1
  N  N166  1  0.58210000  0.75000000  0.97180000  1
  N  N167  1  0.91790000  0.25000000  0.47180000  1
  O  O168  1  0.01430000  0.75000000  0.16730000  1
  O  O169  1  0.13150000  0.14640000  0.68462000  1
  O  O170  1  0.13150000  0.35360000  0.68462000  1
  O  O171  1  0.14960000  0.25000000  0.18010000  1
  O  O172  1  0.15330000  0.75000000  0.65260000  1
  O  O173  1  0.18040000  0.25000000  0.80460000  1
  O  O174  1  0.22230000  0.65570000  0.10860000  1
  O  O175  1  0.22230000  0.84430000  0.10860000  1
  O  O176  1  0.27770000  0.15570000  0.60860000  1
  O  O177  1  0.27770000  0.34430000  0.60860000  1
  O  O178  1  0.31960000  0.75000000  0.30460000  1
  O  O179  1  0.34670000  0.25000000  0.15260000  1
  O  O180  1  0.35040000  0.75000000  0.68010000  1
  O  O181  1  0.36850000  0.64640000  0.18462000  1
  O  O182  1  0.36850000  0.85360000  0.18462000  1
  O  O183  1  0.48570000  0.25000000  0.66730000  1
  O  O184  1  0.51430000  0.75000000  0.33270000  1
  O  O185  1  0.63150000  0.14640000  0.81538000  1
  O  O186  1  0.63150000  0.35360000  0.81538000  1
  O  O187  1  0.64960000  0.25000000  0.31990000  1
  O  O188  1  0.65330000  0.75000000  0.84740000  1
  O  O189  1  0.68040000  0.25000000  0.69540000  1
  O  O190  1  0.72230000  0.65570000  0.39140000  1
  O  O191  1  0.72230000  0.84430000  0.39140000  1
  O  O192  1  0.77770000  0.15570000  0.89140000  1
  O  O193  1  0.77770000  0.34430000  0.89140000  1
  O  O194  1  0.81960000  0.75000000  0.19540000  1
  O  O195  1  0.84670000  0.25000000  0.34740000  1
  O  O196  1  0.85040000  0.75000000  0.81990000  1
  O  O197  1  0.86850000  0.64640000  0.31538000  1
  O  O198  1  0.86850000  0.85360000  0.31538000  1
  O  O199  1  0.98570000  0.25000000  0.83270000  1
