# generated using pymatgen
data_AlH2C10O9
_symmetry_space_group_name_H-M   'P 1'
_cell_length_a   6.66420000
_cell_length_b   11.01838318
_cell_length_c   11.01838318
_cell_angle_alpha   76.07202446
_cell_angle_beta   73.06804794
_cell_angle_gamma   73.06804794
_symmetry_Int_Tables_number   1
_chemical_formula_structural   AlH2C10O9
_chemical_formula_sum   'Al2 H4 C20 O18'
_cell_volume   729.62198105
_cell_formula_units_Z   2
loop_
 _symmetry_equiv_pos_site_id
 _symmetry_equiv_pos_as_xyz
  1  'x, y, z'
loop_
 _atom_site_type_symbol
 _atom_site_label
 _atom_site_symmetry_multiplicity
 _atom_site_fract_x
 _atom_site_fract_y
 _atom_site_fract_z
 _atom_site_occupancy
  Al  Al0  1  0.00000000  0.00000000  0.00000000  1
  Al  Al1  1  0.50000000  0.00000000  0.00000000  1
  C  C2  1  0.36518000  0.77775000  0.00507000  1
  C  C3  1  0.86518000  0.00507000  0.77775000  1
  C  C4  1  0.43155000  0.63354000  0.99460000  1
  C  C5  1  0.93155000  0.99460000  0.63354000  1
  C  C6  1  0.29242000  0.55632000  0.06386000  1
  C  C7  1  0.79242000  0.06386000  0.55632000  1
  C  C8  1  0.64050000  0.58020000  0.93226000  1
  C  C9  1  0.14050000  0.93226000  0.58020000  1
  C  C10  1  0.19970000  0.34506000  0.15576000  1
  C  C11  1  0.69970000  0.15576000  0.34506000  1
  C  C12  1  0.80030000  0.65494000  0.84424000  1
  C  C13  1  0.30030000  0.84424000  0.65494000  1
  C  C14  1  0.35950000  0.41980000  0.06774000  1
  C  C15  1  0.85950000  0.06774000  0.41980000  1
  C  C16  1  0.70758000  0.44368000  0.93614000  1
  C  C17  1  0.20758000  0.93614000  0.44368000  1
  C  C18  1  0.56845000  0.36646000  0.00540000  1
  C  C19  1  0.06845000  0.00540000  0.36646000  1
  C  C20  1  0.63482000  0.22225000  0.99493000  1
  C  C21  1  0.13482000  0.99493000  0.22225000  1
  H  H22  1  0.14200000  0.59200000  0.10600000  1
  H  H23  1  0.64200000  0.10600000  0.59200000  1
  H  H24  1  0.85800000  0.40800000  0.89400000  1
  H  H25  1  0.35800000  0.89400000  0.40800000  1
  O  O26  1  0.75000000  0.93793000  0.06207000  1
  O  O27  1  0.25000000  0.06207000  0.93793000  1
  O  O28  1  0.16478000  0.82631000  0.01939000  1
  O  O29  1  0.66478000  0.01939000  0.82631000  1
  O  O30  1  0.51411000  0.82891000  0.99045000  1
  O  O31  1  0.01411000  0.99045000  0.82891000  1
  O  O32  1  0.22836000  0.26740000  0.25602000  1
  O  O33  1  0.72836000  0.25602000  0.26740000  1
  O  O34  1  0.98192000  0.63093000  0.87999000  1
  O  O35  1  0.48192000  0.87999000  0.63093000  1
  O  O36  1  0.01808000  0.36907000  0.12001000  1
  O  O37  1  0.51808000  0.12001000  0.36907000  1
  O  O38  1  0.77164000  0.73260000  0.74398000  1
  O  O39  1  0.27164000  0.74398000  0.73260000  1
  O  O40  1  0.48589000  0.17109000  0.00955000  1
  O  O41  1  0.98589000  0.00955000  0.17109000  1
  O  O42  1  0.83522000  0.17369000  0.98061000  1
  O  O43  1  0.33522000  0.98061000  0.17369000  1
