# generated using pymatgen
data_Mn3CrH21C15(N2O)6
_symmetry_space_group_name_H-M   'P 1'
_cell_length_a   8.16090000
_cell_length_b   13.60930000
_cell_length_c   13.60930000
_cell_angle_alpha   120.00000000
_cell_angle_beta   90.00000000
_cell_angle_gamma   90.00000000
_symmetry_Int_Tables_number   1
_chemical_formula_structural   Mn3CrH21C15(N2O)6
_chemical_formula_sum   'Mn6 Cr2 H42 C30 N24 O12'
_cell_volume   1309.00185880
_cell_formula_units_Z   2
loop_
 _symmetry_equiv_pos_site_id
 _symmetry_equiv_pos_as_xyz
  1  'x, y, z'
loop_
 _atom_site_type_symbol
 _atom_site_label
 _atom_site_symmetry_multiplicity
 _atom_site_fract_x
 _atom_site_fract_y
 _atom_site_fract_z
 _atom_site_occupancy
  Mn  Mn0  1  0.45660000  0.96107000  0.66529000  1
  Mn  Mn1  1  0.45660000  0.70422000  0.03893000  1
  Mn  Mn2  1  0.95660000  0.66529000  0.70422000  1
  Mn  Mn3  1  0.45660000  0.33471000  0.29578000  1
  Mn  Mn4  1  0.95660000  0.29578000  0.96107000  1
  Mn  Mn5  1  0.95660000  0.03893000  0.33471000  1
  Cr  Cr6  1  0.07434000  0.66666667  0.33333333  1
  Cr  Cr7  1  0.57434000  0.33333333  0.66666667  1
  H  H8  1  0.69290000  0.98160000  0.54190000  1
  H  H9  1  0.93670000  0.95390000  0.60210000  1
  H  H10  1  0.84420000  0.91550000  0.67840000  1
  H  H11  1  0.55630000  0.91500000  0.20160000  1
  H  H12  1  0.28990000  0.86560000  0.28720000  1
  H  H13  1  0.70100000  0.86500000  0.51800000  1
  H  H14  1  0.54970000  0.84730000  0.25770000  1
  H  H15  1  0.55630000  0.79840000  0.71340000  1
  H  H16  1  0.84420000  0.76290000  0.08450000  1
  H  H17  1  0.54970000  0.74230000  0.58960000  1
  H  H18  1  0.05630000  0.71340000  0.91500000  1
  H  H19  1  0.28990000  0.71280000  0.57840000  1
  H  H20  1  0.34420000  0.67840000  0.76290000  1
  H  H21  1  0.70100000  0.65300000  0.13500000  1
  H  H22  1  0.93670000  0.64820000  0.04610000  1
  H  H23  1  0.43670000  0.60210000  0.64820000  1
  H  H24  1  0.04970000  0.58960000  0.84730000  1
  H  H25  1  0.78990000  0.57840000  0.86560000  1
  H  H26  1  0.69290000  0.56030000  0.01840000  1
  H  H27  1  0.19290000  0.54190000  0.56030000  1
  H  H28  1  0.20100000  0.51800000  0.65300000  1
  H  H29  1  0.70100000  0.48200000  0.34700000  1
  H  H30  1  0.69290000  0.45810000  0.43970000  1
  H  H31  1  0.19290000  0.43970000  0.98160000  1
  H  H32  1  0.28990000  0.42160000  0.13440000  1
  H  H33  1  0.54970000  0.41040000  0.15270000  1
  H  H34  1  0.93670000  0.39790000  0.35180000  1
  H  H35  1  0.43670000  0.35180000  0.95390000  1
  H  H36  1  0.20100000  0.34700000  0.86500000  1
  H  H37  1  0.84420000  0.32160000  0.23710000  1
  H  H38  1  0.78990000  0.28720000  0.42160000  1
  H  H39  1  0.55630000  0.28660000  0.08500000  1
  H  H40  1  0.04970000  0.25770000  0.41040000  1
  H  H41  1  0.34420000  0.23710000  0.91550000  1
  H  H42  1  0.05630000  0.20160000  0.28660000  1
  H  H43  1  0.04970000  0.15270000  0.74230000  1
  H  H44  1  0.20100000  0.13500000  0.48200000  1
  H  H45  1  0.78990000  0.13440000  0.71280000  1
  H  H46  1  0.05630000  0.08500000  0.79840000  1
  H  H47  1  0.34420000  0.08450000  0.32160000  1
  H  H48  1  0.43670000  0.04610000  0.39790000  1
  H  H49  1  0.19290000  0.01840000  0.45810000  1
  C  C50  1  0.83880000  0.96580000  0.64720000  1
  C  C51  1  0.33420000  0.91070000  0.25540000  1
  C  C52  1  0.22000000  0.89210000  0.15870000  1
  C  C53  1  0.22000000  0.84130000  0.73340000  1
  C  C54  1  0.22370000  0.79860000  0.44420000  1
  C  C55  1  0.94480000  0.79100000  0.32070000  1
  C  C56  1  0.33420000  0.74460000  0.65530000  1
  C  C57  1  0.72000000  0.73340000  0.89210000  1
  C  C58  1  0.83880000  0.68140000  0.03420000  1
  C  C59  1  0.94480000  0.67930000  0.47030000  1
  C  C60  1  0.83420000  0.65530000  0.91070000  1
  C  C61  1  0.33880000  0.64720000  0.68140000  1
  C  C62  1  0.22370000  0.64560000  0.20140000  1
  C  C63  1  0.22370000  0.55580000  0.35440000  1
  C  C64  1  0.94480000  0.52970000  0.20900000  1
  C  C65  1  0.44480000  0.47030000  0.79100000  1
  C  C66  1  0.72370000  0.44420000  0.64560000  1
  C  C67  1  0.72370000  0.35440000  0.79860000  1
  C  C68  1  0.83880000  0.35280000  0.31860000  1
  C  C69  1  0.33420000  0.34470000  0.08930000  1
  C  C70  1  0.44480000  0.32070000  0.52970000  1
  C  C71  1  0.33880000  0.31860000  0.96580000  1
  C  C72  1  0.22000000  0.26660000  0.10790000  1
  C  C73  1  0.83420000  0.25540000  0.34470000  1
  C  C74  1  0.44480000  0.20900000  0.67930000  1
  C  C75  1  0.72370000  0.20140000  0.55580000  1
  C  C76  1  0.72000000  0.15870000  0.26660000  1
  C  C77  1  0.72000000  0.10790000  0.84130000  1
  C  C78  1  0.83420000  0.08930000  0.74460000  1
  C  C79  1  0.33880000  0.03420000  0.35280000  1
  N  N80  1  0.69340000  0.93770000  0.57410000  1
  N  N81  1  0.30840000  0.87080000  0.50430000  1
  N  N82  1  0.89630000  0.87020000  0.31890000  1
  N  N83  1  0.49640000  0.86420000  0.21010000  1
  N  N84  1  0.49640000  0.78990000  0.65410000  1
  N  N85  1  0.89630000  0.68110000  0.55130000  1
  N  N86  1  0.99640000  0.65410000  0.86420000  1
  N  N87  1  0.69340000  0.63640000  0.06230000  1
  N  N88  1  0.30840000  0.63350000  0.12920000  1
  N  N89  1  0.19340000  0.57410000  0.63640000  1
  N  N90  1  0.39630000  0.55130000  0.87020000  1
  N  N91  1  0.80840000  0.50430000  0.63350000  1
  N  N92  1  0.30840000  0.49570000  0.36650000  1
  N  N93  1  0.89630000  0.44870000  0.12980000  1
  N  N94  1  0.69340000  0.42590000  0.36360000  1
  N  N95  1  0.80840000  0.36650000  0.87080000  1
  N  N96  1  0.19340000  0.36360000  0.93770000  1
  N  N97  1  0.49640000  0.34590000  0.13580000  1
  N  N98  1  0.39630000  0.31890000  0.44870000  1
  N  N99  1  0.99640000  0.21010000  0.34590000  1
  N  N100  1  0.99640000  0.13580000  0.78990000  1
  N  N101  1  0.39630000  0.12980000  0.68110000  1
  N  N102  1  0.80840000  0.12920000  0.49570000  1
  N  N103  1  0.19340000  0.06230000  0.42590000  1
  O  O104  1  0.09520000  0.95270000  0.18060000  1
  O  O105  1  0.25330000  0.94150000  0.75530000  1
  O  O106  1  0.09520000  0.81940000  0.77210000  1
  O  O107  1  0.25330000  0.81380000  0.05850000  1
  O  O108  1  0.59520000  0.77210000  0.95270000  1
  O  O109  1  0.75330000  0.75530000  0.81380000  1
  O  O110  1  0.25330000  0.24470000  0.18620000  1
  O  O111  1  0.09520000  0.22790000  0.04730000  1
  O  O112  1  0.75330000  0.18620000  0.94150000  1
  O  O113  1  0.59520000  0.18060000  0.22790000  1
  O  O114  1  0.75330000  0.05850000  0.24470000  1
  O  O115  1  0.59520000  0.04730000  0.81940000  1
