# generated using pymatgen
data_Dy2H42(C23O6)3
_symmetry_space_group_name_H-M   'P 1'
_cell_length_a   14.73500000
_cell_length_b   17.28842550
_cell_length_c   25.76940391
_cell_angle_alpha   80.29977091
_cell_angle_beta   73.38728296
_cell_angle_gamma   64.77638632
_symmetry_Int_Tables_number   1
_chemical_formula_structural   Dy2H42(C23O6)3
_chemical_formula_sum   'Dy4 H84 C138 O36'
_cell_volume   5682.56399125
_cell_formula_units_Z   2
loop_
 _symmetry_equiv_pos_site_id
 _symmetry_equiv_pos_as_xyz
  1  'x, y, z'
loop_
 _atom_site_type_symbol
 _atom_site_label
 _atom_site_symmetry_multiplicity
 _atom_site_fract_x
 _atom_site_fract_y
 _atom_site_fract_z
 _atom_site_occupancy
  C  C0  1  0.82830000  0.75000000  0.25000000  1
  C  C1  1  0.17170000  0.25000000  0.75000000  1
  C  C2  1  0.71560000  0.64110000  0.30810000  1
  C  C3  1  0.33520000  0.14110000  0.80810000  1
  C  C4  1  0.65890000  0.59510000  0.33390000  1
  C  C5  1  0.41210000  0.09510000  0.83390000  1
  C  C6  1  0.82100000  0.68150000  0.22370000  1
  C  C7  1  0.27380000  0.18150000  0.72370000  1
  C  C8  1  0.76350000  0.63470000  0.25190000  1
  C  C9  1  0.34990000  0.13470000  0.75190000  1
  C  C10  1  0.99260000  0.53260000  0.32680000  1
  C  C11  1  0.14800000  0.03260000  0.82680000  1
  C  C12  1  0.64360000  0.54020000  0.30460000  1
  C  C13  1  0.51160000  0.04020000  0.80460000  1
  C  C14  1  0.87510000  0.66470000  0.17030000  1
  C  C15  1  0.28990000  0.16470000  0.67030000  1
  C  C16  1  0.02720000  0.46990000  0.36390000  1
  C  C17  1  0.13900000  0.96990000  0.86390000  1
  C  C18  1  0.75210000  0.57640000  0.22400000  1
  C  C19  1  0.44750000  0.07640000  0.72400000  1
  C  C20  1  0.03490000  0.51790000  0.27210000  1
  C  C21  1  0.17510000  0.01790000  0.77210000  1
  C  C22  1  0.68950000  0.53090000  0.25210000  1
  C  C23  1  0.52750000  0.03090000  0.75210000  1
  C  C24  1  0.86640000  0.60430000  0.14290000  1
  C  C25  1  0.38640000  0.10430000  0.64290000  1
  C  C26  1  0.10570000  0.38770000  0.34870000  1
  C  C27  1  0.15790000  0.88770000  0.84870000  1
  C  C28  1  0.80440000  0.56380000  0.16840000  1
  C  C29  1  0.46340000  0.06380000  0.66840000  1
  C  C30  1  0.90030000  0.93460000  0.77780000  1
  C  C31  1  0.38730000  0.43460000  0.27780000  1
  C  C32  1  0.14150000  0.32180000  0.38700000  1
  C  C33  1  0.14970000  0.82180000  0.88700000  1
  C  C34  1  0.11180000  0.44140000  0.25420000  1
  C  C35  1  0.19260000  0.94140000  0.75420000  1
  C  C36  1  0.92570000  0.87570000  0.81890000  1
  C  C37  1  0.37970000  0.37570000  0.31890000  1
  C  C38  1  0.83750000  0.93210000  0.74970000  1
  C  C39  1  0.48070000  0.43210000  0.24970000  1
  C  C40  1  0.92700000  0.58470000  0.08590000  1
  C  C41  1  0.40240000  0.08470000  0.58590000  1
  C  C42  1  0.14960000  0.37170000  0.29230000  1
  C  C43  1  0.18640000  0.87170000  0.79230000  1
  C  C44  1  0.88980000  0.80960000  0.83160000  1
  C  C45  1  0.46900000  0.30960000  0.33160000  1
  C  C46  1  0.79930000  0.86840000  0.76020000  1
  C  C47  1  0.57210000  0.36840000  0.26020000  1
  C  C48  1  0.91360000  0.75000000  0.87540000  1
  C  C49  1  0.46100000  0.25000000  0.37540000  1
  C  C50  1  0.16250000  0.74540000  0.87220000  1
  C  C51  1  0.21990000  0.24540000  0.37220000  1
  C  C52  1  0.82590000  0.80410000  0.80190000  1
  C  C53  1  0.56810000  0.30410000  0.30190000  1
  C  C54  1  0.15460000  0.67600000  0.91340000  1
  C  C55  1  0.25600000  0.17600000  0.41340000  1
  C  C56  1  0.87710000  0.68710000  0.88930000  1
  C  C57  1  0.54650000  0.18710000  0.38930000  1
  C  C58  1  0.20410000  0.79160000  0.77620000  1
  C  C59  1  0.22810000  0.29160000  0.27620000  1
  C  C60  1  0.90490000  0.62610000  0.93610000  1
  C  C61  1  0.53290000  0.12610000  0.43610000  1
  C  C62  1  0.79130000  0.73650000  0.81410000  1
  C  C63  1  0.65810000  0.23650000  0.31410000  1
  C  C64  1  0.18680000  0.73120000  0.81560000  1
  C  C65  1  0.26640000  0.23120000  0.31560000  1
  C  C66  1  0.81470000  0.68090000  0.85870000  1
  C  C67  1  0.64570000  0.18090000  0.35870000  1
  C  C68  1  0.76680000  0.22720000  0.28260000  1
  C  C69  1  0.72340000  0.72720000  0.78260000  1
  C  C70  1  0.23320000  0.77280000  0.71740000  1
  C  C71  1  0.27660000  0.27280000  0.21740000  1
  C  C72  1  0.18530000  0.31910000  0.14130000  1
  C  C73  1  0.35430000  0.81910000  0.64130000  1
  C  C74  1  0.81320000  0.26880000  0.18440000  1
  C  C75  1  0.73360000  0.76880000  0.68440000  1
  C  C76  1  0.20870000  0.26350000  0.18590000  1
  C  C77  1  0.34190000  0.76350000  0.68590000  1
  C  C78  1  0.09510000  0.37390000  0.06390000  1
  C  C79  1  0.46710000  0.87390000  0.56390000  1
  C  C80  1  0.79590000  0.20840000  0.22380000  1
  C  C81  1  0.77190000  0.70840000  0.72380000  1
  C  C82  1  0.12290000  0.31290000  0.11070000  1
  C  C83  1  0.45350000  0.81290000  0.61070000  1
  C  C84  1  0.84540000  0.32400000  0.08660000  1
  C  C85  1  0.74400000  0.82400000  0.58660000  1
  C  C86  1  0.17410000  0.19590000  0.19810000  1
  C  C87  1  0.43190000  0.69590000  0.69810000  1
  C  C88  1  0.83750000  0.25460000  0.12780000  1
  C  C89  1  0.78010000  0.75460000  0.62780000  1
  C  C90  1  0.08640000  0.25000000  0.12460000  1
  C  C91  1  0.53900000  0.75000000  0.62460000  1
  C  C92  1  0.20070000  0.13160000  0.23980000  1
  C  C93  1  0.42790000  0.63160000  0.73980000  1
  C  C94  1  0.11020000  0.19040000  0.16840000  1
  C  C95  1  0.53100000  0.69040000  0.66840000  1
  C  C96  1  0.85040000  0.62830000  0.70770000  1
  C  C97  1  0.81360000  0.12830000  0.20770000  1
  C  C98  1  0.07300000  0.41530000  0.91410000  1
  C  C99  1  0.59760000  0.91530000  0.41410000  1
  C  C100  1  0.16250000  0.06790000  0.25030000  1
  C  C101  1  0.51930000  0.56790000  0.75030000  1
  C  C102  1  0.07430000  0.12430000  0.18110000  1
  C  C103  1  0.62030000  0.62430000  0.68110000  1
  C  C104  1  0.88820000  0.55860000  0.74580000  1
  C  C105  1  0.80740000  0.05860000  0.24580000  1
  C  C106  1  0.85850000  0.67820000  0.61300000  1
  C  C107  1  0.85030000  0.17820000  0.11300000  1
  C  C108  1  0.09970000  0.06540000  0.22220000  1
  C  C109  1  0.61270000  0.56540000  0.72220000  1
  C  C110  1  0.19560000  0.43620000  0.83160000  1
  C  C111  1  0.53660000  0.93620000  0.33160000  1
  C  C112  1  0.89430000  0.61230000  0.65130000  1
  C  C113  1  0.84210000  0.11230000  0.15130000  1
  C  C114  1  0.13360000  0.39570000  0.85710000  1
  C  C115  1  0.61360000  0.89570000  0.35710000  1
  C  C116  1  0.31050000  0.46910000  0.74790000  1
  C  C117  1  0.47250000  0.96910000  0.24790000  1
  C  C118  1  0.96510000  0.48210000  0.72790000  1
  C  C119  1  0.82490000  0.98210000  0.22790000  1
  C  C120  1  0.24790000  0.42360000  0.77600000  1
  C  C121  1  0.55250000  0.92360000  0.27600000  1
  C  C122  1  0.97280000  0.53010000  0.63610000  1
  C  C123  1  0.86100000  0.03010000  0.13610000  1
  C  C124  1  0.12490000  0.33530000  0.82970000  1
  C  C125  1  0.71010000  0.83530000  0.32970000  1
  C  C126  1  0.35640000  0.45980000  0.69540000  1
  C  C127  1  0.48840000  0.95980000  0.19540000  1
  C  C128  1  0.00740000  0.46740000  0.67320000  1
  C  C129  1  0.85200000  0.96740000  0.17320000  1
  C  C130  1  0.23650000  0.36530000  0.74810000  1
  C  C131  1  0.65010000  0.86530000  0.24810000  1
  C  C132  1  0.17900000  0.31850000  0.77630000  1
  C  C133  1  0.72620000  0.81850000  0.27630000  1
  C  C134  1  0.34110000  0.40490000  0.66610000  1
  C  C135  1  0.58790000  0.90490000  0.16610000  1
  C  C136  1  0.28440000  0.35890000  0.69190000  1
  C  C137  1  0.66480000  0.85890000  0.19190000  1
  Dy  Dy138  1  0.11411000  0.54858000  0.98754000  1
  Dy  Dy139  1  0.34977000  0.04858000  0.48754000  1
  Dy  Dy140  1  0.88589000  0.45142000  0.01246000  1
  Dy  Dy141  1  0.65023000  0.95142000  0.51246000  1
  H  H142  1  0.86740000  0.72240000  0.27740000  1
  H  H143  1  0.13280000  0.22240000  0.77740000  1
  H  H144  1  0.72840000  0.82250000  0.17230000  1
  H  H145  1  0.27680000  0.32250000  0.67230000  1
  H  H146  1  0.62960000  0.59950000  0.37090000  1
  H  H147  1  0.40000000  0.09950000  0.87090000  1
  H  H148  1  0.94080000  0.58550000  0.33770000  1
  H  H149  1  0.13600000  0.08550000  0.83770000  1
  H  H150  1  0.99930000  0.48020000  0.40060000  1
  H  H151  1  0.11990000  0.98020000  0.90060000  1
  H  H152  1  0.60190000  0.51110000  0.32210000  1
  H  H153  1  0.56490000  0.01110000  0.82210000  1
  H  H154  1  0.01020000  0.56150000  0.24670000  1
  H  H155  1  0.18160000  0.06150000  0.74670000  1
  H  H156  1  0.98170000  0.67940000  0.12140000  1
  H  H157  1  0.21750000  0.17940000  0.62140000  1
  H  H158  1  0.11080000  0.33070000  0.42370000  1
  H  H159  1  0.13480000  0.83070000  0.92370000  1
  H  H160  1  0.92620000  0.97700000  0.76900000  1
  H  H161  1  0.32780000  0.47700000  0.26900000  1
  H  H162  1  0.68050000  0.49430000  0.23330000  1
  H  H163  1  0.59190000  0.99430000  0.73330000  1
  H  H164  1  0.96740000  0.87890000  0.83890000  1
  H  H165  1  0.31480000  0.37890000  0.33890000  1
  H  H166  1  0.81900000  0.97420000  0.72240000  1
  H  H167  1  0.48440000  0.47420000  0.22240000  1
  H  H168  1  0.79540000  0.52730000  0.14950000  1
  H  H169  1  0.52780000  0.02730000  0.64950000  1
  H  H170  1  0.13980000  0.43440000  0.21720000  1
  H  H171  1  0.20860000  0.93440000  0.71720000  1
  H  H172  1  0.95510000  0.75370000  0.89530000  1
  H  H173  1  0.39590000  0.25370000  0.39530000  1
  H  H174  1  0.75640000  0.86810000  0.73990000  1
  H  H175  1  0.63560000  0.36810000  0.23990000  1
  H  H176  1  0.77380000  0.27990000  0.28470000  1
  H  H177  1  0.66160000  0.77990000  0.78470000  1
  H  H178  1  0.83450000  0.36540000  0.17380000  1
  H  H179  1  0.62630000  0.86540000  0.67380000  1
  H  H180  1  0.19350000  0.41670000  0.10650000  1
  H  H181  1  0.28330000  0.91670000  0.60650000  1
  H  H182  1  0.18400000  0.81830000  0.69950000  1
  H  H183  1  0.29820000  0.31830000  0.19950000  1
  H  H184  1  0.81600000  0.18170000  0.30050000  1
  H  H185  1  0.70180000  0.68170000  0.80050000  1
  H  H186  1  0.80650000  0.58330000  0.89350000  1
  H  H187  1  0.71670000  0.08330000  0.39350000  1
  H  H188  1  0.16550000  0.63460000  0.82620000  1
  H  H189  1  0.37370000  0.13460000  0.32620000  1
  H  H190  1  0.22620000  0.72010000  0.71530000  1
  H  H191  1  0.33840000  0.22010000  0.21530000  1
  H  H192  1  0.24360000  0.13190000  0.26010000  1
  H  H193  1  0.36440000  0.63190000  0.76010000  1
  H  H194  1  0.04490000  0.24630000  0.10470000  1
  H  H195  1  0.60410000  0.74630000  0.60470000  1
  H  H196  1  0.86020000  0.56560000  0.78280000  1
  H  H197  1  0.79140000  0.06560000  0.28280000  1
  H  H198  1  0.20460000  0.47270000  0.85050000  1
  H  H199  1  0.47220000  0.97270000  0.35050000  1
  H  H200  1  0.18100000  0.02580000  0.27760000  1
  H  H201  1  0.51560000  0.52580000  0.77760000  1
  H  H202  1  0.03260000  0.12110000  0.16110000  1
  H  H203  1  0.68520000  0.62110000  0.66110000  1
  H  H204  1  0.31950000  0.50570000  0.76670000  1
  H  H205  1  0.40810000  0.00570000  0.26670000  1
  H  H206  1  0.07380000  0.02300000  0.23100000  1
  H  H207  1  0.67220000  0.52300000  0.73100000  1
  H  H208  1  0.88920000  0.66930000  0.57630000  1
  H  H209  1  0.86520000  0.16930000  0.07630000  1
  H  H210  1  0.01830000  0.32060000  0.87860000  1
  H  H211  1  0.78250000  0.82060000  0.37860000  1
  H  H212  1  0.98980000  0.43850000  0.75330000  1
  H  H213  1  0.81840000  0.93850000  0.25330000  1
  H  H214  1  0.39810000  0.48890000  0.67790000  1
  H  H215  1  0.43510000  0.98890000  0.17790000  1
  H  H216  1  0.00070000  0.51980000  0.59940000  1
  H  H217  1  0.88010000  0.01980000  0.09940000  1
  H  H218  1  0.05920000  0.41450000  0.66230000  1
  H  H219  1  0.86400000  0.91450000  0.16230000  1
  H  H220  1  0.37040000  0.40050000  0.62910000  1
  H  H221  1  0.60000000  0.90050000  0.12910000  1
  H  H222  1  0.27160000  0.17750000  0.82770000  1
  H  H223  1  0.72320000  0.67750000  0.32770000  1
  H  H224  1  0.13260000  0.27760000  0.72260000  1
  H  H225  1  0.86720000  0.77760000  0.22260000  1
  O  O226  1  0.93400000  0.70830000  0.14510000  1
  O  O227  1  0.21260000  0.20830000  0.64510000  1
  O  O228  1  0.99410000  0.61590000  0.06590000  1
  O  O229  1  0.32410000  0.11590000  0.56590000  1
  O  O230  1  0.12740000  0.68890000  0.96350000  1
  O  O231  1  0.22020000  0.18890000  0.46350000  1
  O  O232  1  0.91210000  0.53720000  0.06120000  1
  O  O233  1  0.48950000  0.03720000  0.56120000  1
  O  O234  1  0.96380000  0.63440000  0.95940000  1
  O  O235  1  0.44240000  0.13440000  0.45940000  1
  O  O236  1  0.80600000  0.34220000  0.19960000  1
  O  O237  1  0.65220000  0.84220000  0.69960000  1
  O  O238  1  0.86890000  0.56970000  0.94910000  1
  O  O239  1  0.61230000  0.06970000  0.44910000  1
  O  O240  1  0.22280000  0.38120000  0.12820000  1
  O  O241  1  0.26780000  0.88120000  0.62820000  1
  O  O242  1  0.17060000  0.60410000  0.89830000  1
  O  O243  1  0.32700000  0.10410000  0.39830000  1
  O  O244  1  0.82940000  0.39590000  0.10170000  1
  O  O245  1  0.67300000  0.89590000  0.60170000  1
  O  O246  1  0.77720000  0.61880000  0.87180000  1
  O  O247  1  0.73220000  0.11880000  0.37180000  1
  O  O248  1  0.13110000  0.43030000  0.05090000  1
  O  O249  1  0.38770000  0.93030000  0.55090000  1
  O  O250  1  0.19400000  0.65780000  0.80040000  1
  O  O251  1  0.34780000  0.15780000  0.30040000  1
  O  O252  1  0.03620000  0.36560000  0.04060000  1
  O  O253  1  0.55760000  0.86560000  0.54060000  1
  O  O254  1  0.08790000  0.46280000  0.93880000  1
  O  O255  1  0.51050000  0.96280000  0.43880000  1
  O  O256  1  0.87260000  0.31110000  0.03650000  1
  O  O257  1  0.77980000  0.81110000  0.53650000  1
  O  O258  1  0.00590000  0.38410000  0.93410000  1
  O  O259  1  0.67590000  0.88410000  0.43410000  1
  O  O260  1  0.06600000  0.29170000  0.85490000  1
  O  O261  1  0.78740000  0.79170000  0.35490000  1
