# generated using pymatgen
data_CdH9C14(N3O)2
_symmetry_space_group_name_H-M   'P 1'
_cell_length_a   10.05990000
_cell_length_b   12.83036585
_cell_length_c   15.47655163
_cell_angle_alpha   76.84642626
_cell_angle_beta   71.03414817
_cell_angle_gamma   66.91882958
_symmetry_Int_Tables_number   1
_chemical_formula_structural   CdH9C14(N3O)2
_chemical_formula_sum   'Cd4 H36 C56 N24 O8'
_cell_volume   1726.36963803
_cell_formula_units_Z   4
loop_
 _symmetry_equiv_pos_site_id
 _symmetry_equiv_pos_as_xyz
  1  'x, y, z'
loop_
 _atom_site_type_symbol
 _atom_site_label
 _atom_site_symmetry_multiplicity
 _atom_site_fract_x
 _atom_site_fract_y
 _atom_site_fract_z
 _atom_site_occupancy
  C  C0  1  0.94810000  0.25000000  0.75000000  1
  C  C1  1  0.67190000  0.25000000  0.75000000  1
  C  C2  1  0.32810000  0.75000000  0.25000000  1
  C  C3  1  0.05190000  0.75000000  0.25000000  1
  C  C4  1  0.76919000  0.15472000  0.78970000  1
  C  C5  1  0.28639000  0.65472000  0.28970000  1
  C  C6  1  0.90642000  0.15456000  0.78920000  1
  C  C7  1  0.14982000  0.65456000  0.28920000  1
  C  C8  1  0.01330000  0.05021000  0.82939000  1
  C  C9  1  0.10710000  0.55021000  0.32939000  1
  C  C10  1  0.02403000  0.72024000  0.00610000  1
  C  C11  1  0.24963000  0.22024000  0.50610000  1
  C  C12  1  0.77854000  0.61592000  0.07280000  1
  C  C13  1  0.53274000  0.11592000  0.57280000  1
  C  C14  1  0.02347000  0.62263000  0.06503000  1
  C  C15  1  0.28887000  0.12263000  0.56503000  1
  C  C16  1  0.07529000  0.14862000  0.53780000  1
  C  C17  1  0.23829000  0.64862000  0.03780000  1
  C  C18  1  0.67100000  0.56370000  0.10350000  1
  C  C19  1  0.66180000  0.06370000  0.60350000  1
  C  C20  1  0.91194000  0.56675000  0.09837000  1
  C  C21  1  0.42294000  0.06675000  0.59837000  1
  C  C22  1  0.69534000  0.46102000  0.15970000  1
  C  C23  1  0.68394000  0.96102000  0.65970000  1
  C  C24  1  0.93663000  0.46264000  0.15470000  1
  C  C25  1  0.44603000  0.96264000  0.65470000  1
  C  C26  1  0.82888000  0.41009000  0.18575000  1
  C  C27  1  0.57528000  0.91009000  0.68575000  1
  C  C28  1  0.85453000  0.30152000  0.24682000  1
  C  C29  1  0.59713000  0.80152000  0.74682000  1
  C  C30  1  0.14547000  0.69848000  0.75318000  1
  C  C31  1  0.40287000  0.19848000  0.25318000  1
  C  C32  1  0.17112000  0.58991000  0.81425000  1
  C  C33  1  0.42472000  0.08991000  0.31425000  1
  C  C34  1  0.06337000  0.53736000  0.84530000  1
  C  C35  1  0.55397000  0.03736000  0.34530000  1
  C  C36  1  0.30466000  0.53898000  0.84030000  1
  C  C37  1  0.31606000  0.03898000  0.34030000  1
  C  C38  1  0.08806000  0.43325000  0.90163000  1
  C  C39  1  0.57706000  0.93325000  0.40163000  1
  C  C40  1  0.32900000  0.43630000  0.89650000  1
  C  C41  1  0.33820000  0.93630000  0.39650000  1
  C  C42  1  0.92471000  0.85138000  0.46220000  1
  C  C43  1  0.76171000  0.35138000  0.96220000  1
  C  C44  1  0.97653000  0.37737000  0.93497000  1
  C  C45  1  0.71113000  0.87737000  0.43497000  1
  C  C46  1  0.22146000  0.38408000  0.92720000  1
  C  C47  1  0.46726000  0.88408000  0.42720000  1
  C  C48  1  0.97597000  0.27976000  0.99390000  1
  C  C49  1  0.75037000  0.77976000  0.49390000  1
  C  C50  1  0.98670000  0.94979000  0.17061000  1
  C  C51  1  0.89290000  0.44979000  0.67061000  1
  C  C52  1  0.09358000  0.84544000  0.21080000  1
  C  C53  1  0.85018000  0.34544000  0.71080000  1
  C  C54  1  0.23081000  0.84528000  0.21030000  1
  C  C55  1  0.71361000  0.34528000  0.71030000  1
  Cd  Cd56  1  0.03633000  0.35495000  0.37367000  1
  Cd  Cd57  1  0.23505000  0.85495000  0.87367000  1
  Cd  Cd58  1  0.96367000  0.64505000  0.62633000  1
  Cd  Cd59  1  0.76495000  0.14505000  0.12633000  1
  H  H60  1  0.95940000  0.75000000  0.25000000  1
  H  H61  1  0.57950000  0.25000000  0.75000000  1
  H  H62  1  0.42050000  0.75000000  0.25000000  1
  H  H63  1  0.04060000  0.25000000  0.75000000  1
  H  H64  1  0.74140000  0.09120000  0.81660000  1
  H  H65  1  0.35080000  0.59120000  0.31660000  1
  H  H66  1  0.94530000  0.76860000  0.98120000  1
  H  H67  1  0.30490000  0.26860000  0.48120000  1
  H  H68  1  0.76070000  0.68470000  0.03470000  1
  H  H69  1  0.51990000  0.18470000  0.53470000  1
  H  H70  1  0.73400000  0.09800000  0.58600000  1
  H  H71  1  0.58200000  0.59800000  0.08600000  1
  H  H72  1  0.98860000  0.13740000  0.53940000  1
  H  H73  1  0.33460000  0.63740000  0.03940000  1
  H  H74  1  0.17000000  0.01770000  0.61990000  1
  H  H75  1  0.19240000  0.51770000  0.11990000  1
  H  H76  1  0.77070000  0.92630000  0.67990000  1
  H  H77  1  0.62310000  0.42630000  0.17990000  1
  H  H78  1  0.02610000  0.42790000  0.17170000  1
  H  H79  1  0.37430000  0.92790000  0.67170000  1
  H  H80  1  0.97390000  0.57210000  0.82830000  1
  H  H81  1  0.62570000  0.07210000  0.32830000  1
  H  H82  1  0.22930000  0.07370000  0.32010000  1
  H  H83  1  0.37690000  0.57370000  0.82010000  1
  H  H84  1  0.83000000  0.98230000  0.38010000  1
  H  H85  1  0.80760000  0.48230000  0.88010000  1
  H  H86  1  0.01140000  0.86260000  0.46060000  1
  H  H87  1  0.66540000  0.36260000  0.96060000  1
  H  H88  1  0.26600000  0.90200000  0.41400000  1
  H  H89  1  0.41800000  0.40200000  0.91400000  1
  H  H90  1  0.23930000  0.31530000  0.96530000  1
  H  H91  1  0.48010000  0.81530000  0.46530000  1
  H  H92  1  0.05470000  0.23140000  0.01880000  1
  H  H93  1  0.69510000  0.73140000  0.51880000  1
  H  H94  1  0.25860000  0.90880000  0.18340000  1
  H  H95  1  0.64920000  0.40880000  0.68340000  1
  N  N96  1  0.11660000  0.23600000  0.48920000  1
  N  N97  1  0.15820000  0.73600000  0.98920000  1
  N  N98  1  0.16129000  0.57891000  0.08431000  1
  N  N99  1  0.17549000  0.07891000  0.58431000  1
  N  N100  1  0.92277000  0.27699000  0.31367000  1
  N  N101  1  0.48657000  0.77699000  0.81367000  1
  N  N102  1  0.14466000  0.86338000  0.68630000  1
  N  N103  1  0.30566000  0.36338000  0.18630000  1
  N  N104  1  0.18758000  0.78445000  0.75499000  1
  N  N105  1  0.27298000  0.28445000  0.25499000  1
  N  N106  1  0.92070000  0.17177000  0.35543000  1
  N  N107  1  0.55210000  0.67177000  0.85543000  1
  N  N108  1  0.07930000  0.82823000  0.64457000  1
  N  N109  1  0.44790000  0.32823000  0.14457000  1
  N  N110  1  0.81242000  0.21555000  0.24501000  1
  N  N111  1  0.72702000  0.71555000  0.74501000  1
  N  N112  1  0.85534000  0.13662000  0.31370000  1
  N  N113  1  0.69434000  0.63662000  0.81370000  1
  N  N114  1  0.07723000  0.72301000  0.68633000  1
  N  N115  1  0.51343000  0.22301000  0.18633000  1
  N  N116  1  0.83871000  0.42109000  0.91569000  1
  N  N117  1  0.82451000  0.92109000  0.41569000  1
  N  N118  1  0.88340000  0.76400000  0.51080000  1
  N  N119  1  0.84180000  0.26400000  0.01080000  1
  O  O120  1  0.96393000  0.97644000  0.88470000  1
  O  O121  1  0.17493000  0.47644000  0.38470000  1
  O  O122  1  0.00957000  0.53650000  0.30396000  1
  O  O123  1  0.14997000  0.03650000  0.80396000  1
  O  O124  1  0.99043000  0.46350000  0.69604000  1
  O  O125  1  0.85003000  0.96350000  0.19604000  1
  O  O126  1  0.03607000  0.02356000  0.11530000  1
  O  O127  1  0.82507000  0.52356000  0.61530000  1
