# generated using pymatgen
data_ZnH7C12(N2O)2
_symmetry_space_group_name_H-M   'P 1'
_cell_length_a   9.96200000
_cell_length_b   18.58000000
_cell_length_c   32.73200000
_cell_angle_alpha   90.00000000
_cell_angle_beta   90.00000000
_cell_angle_gamma   90.00000000
_symmetry_Int_Tables_number   1
_chemical_formula_structural   ZnH7C12(N2O)2
_chemical_formula_sum   'Zn16 H112 C192 N64 O32'
_cell_volume   6058.49549872
_cell_formula_units_Z   16
loop_
 _symmetry_equiv_pos_site_id
 _symmetry_equiv_pos_as_xyz
  1  'x, y, z'
loop_
 _atom_site_type_symbol
 _atom_site_label
 _atom_site_symmetry_multiplicity
 _atom_site_fract_x
 _atom_site_fract_y
 _atom_site_fract_z
 _atom_site_occupancy
  Zn  Zn0  1  0.97172000  0.93570000  0.78109000  1
  Zn  Zn1  1  0.52828000  0.93570000  0.28109000  1
  Zn  Zn2  1  0.77461000  0.91930000  0.44140000  1
  Zn  Zn3  1  0.72539000  0.91930000  0.94140000  1
  Zn  Zn4  1  0.27461000  0.58070000  0.44140000  1
  Zn  Zn5  1  0.22539000  0.58070000  0.94140000  1
  Zn  Zn6  1  0.47172000  0.56430000  0.78109000  1
  Zn  Zn7  1  0.02828000  0.56430000  0.28109000  1
  Zn  Zn8  1  0.97172000  0.43570000  0.71891000  1
  Zn  Zn9  1  0.52828000  0.43570000  0.21891000  1
  Zn  Zn10  1  0.77461000  0.41930000  0.05860000  1
  Zn  Zn11  1  0.72539000  0.41930000  0.55860000  1
  Zn  Zn12  1  0.27461000  0.08070000  0.05860000  1
  Zn  Zn13  1  0.22539000  0.08070000  0.55860000  1
  Zn  Zn14  1  0.47172000  0.06430000  0.71891000  1
  Zn  Zn15  1  0.02828000  0.06430000  0.21891000  1
  H  H16  1  0.76700000  0.99960000  0.16130000  1
  H  H17  1  0.73300000  0.99960000  0.66130000  1
  H  H18  1  0.47430000  0.99150000  0.46740000  1
  H  H19  1  0.02570000  0.99150000  0.96740000  1
  H  H20  1  0.84390000  0.96260000  0.60330000  1
  H  H21  1  0.65610000  0.96260000  0.10330000  1
  H  H22  1  0.99730000  0.93020000  0.37760000  1
  H  H23  1  0.50270000  0.93020000  0.87760000  1
  H  H24  1  0.37830000  0.89500000  0.72900000  1
  H  H25  1  0.12170000  0.89500000  0.22900000  1
  H  H26  1  0.34460000  0.88000000  0.98400000  1
  H  H27  1  0.15540000  0.88000000  0.48400000  1
  H  H28  1  0.36860000  0.85610000  0.83840000  1
  H  H29  1  0.13140000  0.85610000  0.33840000  1
  H  H30  1  0.31530000  0.84930000  0.43660000  1
  H  H31  1  0.18470000  0.84930000  0.93660000  1
  H  H32  1  0.91930000  0.82750000  0.00070000  1
  H  H33  1  0.58070000  0.82750000  0.50070000  1
  H  H34  1  0.45820000  0.81260000  0.39070000  1
  H  H35  1  0.04180000  0.81260000  0.89070000  1
  H  H36  1  0.77270000  0.79830000  0.78560000  1
  H  H37  1  0.72730000  0.79830000  0.28560000  1
  H  H38  1  0.46430000  0.79070000  0.01600000  1
  H  H39  1  0.03570000  0.79070000  0.51600000  1
  H  H40  1  0.39890000  0.77340000  0.74200000  1
  H  H41  1  0.10110000  0.77340000  0.24200000  1
  H  H42  1  0.88640000  0.76600000  0.84640000  1
  H  H43  1  0.61360000  0.76600000  0.34640000  1
  H  H44  1  0.38640000  0.73400000  0.84640000  1
  H  H45  1  0.11360000  0.73400000  0.34640000  1
  H  H46  1  0.89890000  0.72660000  0.74200000  1
  H  H47  1  0.60110000  0.72660000  0.24200000  1
  H  H48  1  0.96430000  0.70930000  0.01600000  1
  H  H49  1  0.53570000  0.70930000  0.51600000  1
  H  H50  1  0.27270000  0.70170000  0.78560000  1
  H  H51  1  0.22730000  0.70170000  0.28560000  1
  H  H52  1  0.95820000  0.68740000  0.39070000  1
  H  H53  1  0.54180000  0.68740000  0.89070000  1
  H  H54  1  0.41930000  0.67250000  0.00070000  1
  H  H55  1  0.08070000  0.67250000  0.50070000  1
  H  H56  1  0.81530000  0.65070000  0.43660000  1
  H  H57  1  0.68470000  0.65070000  0.93660000  1
  H  H58  1  0.86860000  0.64390000  0.83840000  1
  H  H59  1  0.63140000  0.64390000  0.33840000  1
  H  H60  1  0.84460000  0.62000000  0.98400000  1
  H  H61  1  0.65540000  0.62000000  0.48400000  1
  H  H62  1  0.87830000  0.60500000  0.72900000  1
  H  H63  1  0.62170000  0.60500000  0.22900000  1
  H  H64  1  0.49730000  0.56980000  0.37760000  1
  H  H65  1  0.00270000  0.56980000  0.87760000  1
  H  H66  1  0.34390000  0.53740000  0.60330000  1
  H  H67  1  0.15610000  0.53740000  0.10330000  1
  H  H68  1  0.97430000  0.50850000  0.46740000  1
  H  H69  1  0.52570000  0.50850000  0.96740000  1
  H  H70  1  0.26700000  0.50040000  0.16130000  1
  H  H71  1  0.23300000  0.50040000  0.66130000  1
  H  H72  1  0.76700000  0.49960000  0.33870000  1
  H  H73  1  0.73300000  0.49960000  0.83870000  1
  H  H74  1  0.47430000  0.49150000  0.03260000  1
  H  H75  1  0.02570000  0.49150000  0.53260000  1
  H  H76  1  0.84390000  0.46260000  0.89670000  1
  H  H77  1  0.65610000  0.46260000  0.39670000  1
  H  H78  1  0.99730000  0.43020000  0.12240000  1
  H  H79  1  0.50270000  0.43020000  0.62240000  1
  H  H80  1  0.37830000  0.39500000  0.77100000  1
  H  H81  1  0.12170000  0.39500000  0.27100000  1
  H  H82  1  0.34460000  0.38000000  0.51600000  1
  H  H83  1  0.15540000  0.38000000  0.01600000  1
  H  H84  1  0.36860000  0.35610000  0.66160000  1
  H  H85  1  0.13140000  0.35610000  0.16160000  1
  H  H86  1  0.31530000  0.34930000  0.06340000  1
  H  H87  1  0.18470000  0.34930000  0.56340000  1
  H  H88  1  0.91930000  0.32750000  0.49930000  1
  H  H89  1  0.58070000  0.32750000  0.99930000  1
  H  H90  1  0.45820000  0.31260000  0.10930000  1
  H  H91  1  0.04180000  0.31260000  0.60930000  1
  H  H92  1  0.77270000  0.29830000  0.71440000  1
  H  H93  1  0.72730000  0.29830000  0.21440000  1
  H  H94  1  0.46430000  0.29070000  0.48400000  1
  H  H95  1  0.03570000  0.29070000  0.98400000  1
  H  H96  1  0.39890000  0.27340000  0.75800000  1
  H  H97  1  0.10110000  0.27340000  0.25800000  1
  H  H98  1  0.88640000  0.26600000  0.65360000  1
  H  H99  1  0.61360000  0.26600000  0.15360000  1
  H  H100  1  0.38640000  0.23400000  0.65360000  1
  H  H101  1  0.11360000  0.23400000  0.15360000  1
  H  H102  1  0.89890000  0.22660000  0.75800000  1
  H  H103  1  0.60110000  0.22660000  0.25800000  1
  H  H104  1  0.96430000  0.20930000  0.48400000  1
  H  H105  1  0.53570000  0.20930000  0.98400000  1
  H  H106  1  0.27270000  0.20170000  0.71440000  1
  H  H107  1  0.22730000  0.20170000  0.21440000  1
  H  H108  1  0.95820000  0.18740000  0.10930000  1
  H  H109  1  0.54180000  0.18740000  0.60930000  1
  H  H110  1  0.41930000  0.17250000  0.49930000  1
  H  H111  1  0.08070000  0.17250000  0.99930000  1
  H  H112  1  0.81530000  0.15070000  0.06340000  1
  H  H113  1  0.68470000  0.15070000  0.56340000  1
  H  H114  1  0.86860000  0.14390000  0.66160000  1
  H  H115  1  0.63140000  0.14390000  0.16160000  1
  H  H116  1  0.84460000  0.12000000  0.51600000  1
  H  H117  1  0.65540000  0.12000000  0.01600000  1
  H  H118  1  0.87830000  0.10500000  0.77100000  1
  H  H119  1  0.62170000  0.10500000  0.27100000  1
  H  H120  1  0.49730000  0.06980000  0.12240000  1
  H  H121  1  0.00270000  0.06980000  0.62240000  1
  H  H122  1  0.34390000  0.03740000  0.89670000  1
  H  H123  1  0.15610000  0.03740000  0.39670000  1
  H  H124  1  0.97430000  0.00850000  0.03260000  1
  H  H125  1  0.52570000  0.00850000  0.53260000  1
  H  H126  1  0.26700000  0.00040000  0.33870000  1
  H  H127  1  0.23300000  0.00040000  0.83870000  1
  C  C128  1  0.30830000  0.99853000  0.36413000  1
  C  C129  1  0.19170000  0.99853000  0.86413000  1
  C  C130  1  0.43320000  0.99320000  0.44193000  1
  C  C131  1  0.06680000  0.99320000  0.94193000  1
  C  C132  1  0.80470000  0.98187000  0.06252000  1
  C  C133  1  0.69530000  0.98187000  0.56252000  1
  C  C134  1  0.75640000  0.97957000  0.60121000  1
  C  C135  1  0.74360000  0.97957000  0.10121000  1
  C  C136  1  0.43980000  0.97317000  0.36879000  1
  C  C137  1  0.06020000  0.97317000  0.86879000  1
  C  C138  1  0.49990000  0.97051000  0.40688000  1
  C  C139  1  0.00010000  0.97051000  0.90688000  1
  C  C140  1  0.76980000  0.95691000  0.52500000  1
  C  C141  1  0.73020000  0.95691000  0.02500000  1
  C  C142  1  0.93030000  0.91850000  0.24708000  1
  C  C143  1  0.56970000  0.91850000  0.74708000  1
  C  C144  1  0.81260000  0.88985000  0.26283000  1
  C  C145  1  0.68740000  0.88985000  0.76283000  1
  C  C146  1  0.99010000  0.88060000  0.38067000  1
  C  C147  1  0.50990000  0.88060000  0.88067000  1
  C  C148  1  0.45750000  0.87572000  0.73938000  1
  C  C149  1  0.04250000  0.87572000  0.23938000  1
  C  C150  1  0.42920000  0.83660000  0.85699000  1
  C  C151  1  0.07080000  0.83660000  0.35699000  1
  C  C152  1  0.32820000  0.83180000  0.97795000  1
  C  C153  1  0.17180000  0.83180000  0.47795000  1
  C  C154  1  0.80390000  0.81716000  0.27341000  1
  C  C155  1  0.69610000  0.81716000  0.77341000  1
  C  C156  1  0.26670000  0.81360000  0.44996000  1
  C  C157  1  0.23330000  0.81360000  0.94996000  1
  C  C158  1  0.47010000  0.80405000  0.74782000  1
  C  C159  1  0.02990000  0.80405000  0.24782000  1
  C  C160  1  0.40870000  0.80370000  0.27618000  1
  C  C161  1  0.09130000  0.80370000  0.77618000  1
  C  C162  1  0.87110000  0.79140000  0.98757000  1
  C  C163  1  0.62890000  0.79140000  0.48757000  1
  C  C164  1  0.89130000  0.78340000  0.41134000  1
  C  C165  1  0.60870000  0.78340000  0.91134000  1
  C  C166  1  0.39850000  0.77930000  0.99694000  1
  C  C167  1  0.10150000  0.77930000  0.49694000  1
  C  C168  1  0.91200000  0.77520000  0.26515000  1
  C  C169  1  0.58800000  0.77520000  0.76515000  1
  C  C170  1  0.44080000  0.76470000  0.86153000  1
  C  C171  1  0.05920000  0.76470000  0.36153000  1
  C  C172  1  0.46840000  0.76300000  0.38813000  1
  C  C173  1  0.03160000  0.76300000  0.88813000  1
  C  C174  1  0.79100000  0.75788000  0.44135000  1
  C  C175  1  0.70900000  0.75788000  0.94135000  1
  C  C176  1  0.29100000  0.74212000  0.44135000  1
  C  C177  1  0.20900000  0.74212000  0.94135000  1
  C  C178  1  0.96840000  0.73700000  0.38813000  1
  C  C179  1  0.53160000  0.73700000  0.88813000  1
  C  C180  1  0.94080000  0.73530000  0.86153000  1
  C  C181  1  0.55920000  0.73530000  0.36153000  1
  C  C182  1  0.41200000  0.72480000  0.26515000  1
  C  C183  1  0.08800000  0.72480000  0.76515000  1
  C  C184  1  0.89850000  0.72070000  0.99694000  1
  C  C185  1  0.60150000  0.72070000  0.49694000  1
  C  C186  1  0.39130000  0.71660000  0.41134000  1
  C  C187  1  0.10870000  0.71660000  0.91134000  1
  C  C188  1  0.37110000  0.70860000  0.98757000  1
  C  C189  1  0.12890000  0.70860000  0.48757000  1
  C  C190  1  0.90870000  0.69630000  0.27618000  1
  C  C191  1  0.59130000  0.69630000  0.77618000  1
  C  C192  1  0.97010000  0.69595000  0.74782000  1
  C  C193  1  0.52990000  0.69595000  0.24782000  1
  C  C194  1  0.76670000  0.68640000  0.44996000  1
  C  C195  1  0.73330000  0.68640000  0.94996000  1
  C  C196  1  0.30390000  0.68284000  0.27341000  1
  C  C197  1  0.19610000  0.68284000  0.77341000  1
  C  C198  1  0.82820000  0.66820000  0.97795000  1
  C  C199  1  0.67180000  0.66820000  0.47795000  1
  C  C200  1  0.92920000  0.66340000  0.85699000  1
  C  C201  1  0.57080000  0.66340000  0.35699000  1
  C  C202  1  0.95750000  0.62428000  0.73938000  1
  C  C203  1  0.54250000  0.62428000  0.23938000  1
  C  C204  1  0.49010000  0.61940000  0.38067000  1
  C  C205  1  0.00990000  0.61940000  0.88067000  1
  C  C206  1  0.31260000  0.61015000  0.26283000  1
  C  C207  1  0.18740000  0.61015000  0.76283000  1
  C  C208  1  0.43030000  0.58150000  0.24708000  1
  C  C209  1  0.06970000  0.58150000  0.74708000  1
  C  C210  1  0.26980000  0.54309000  0.52500000  1
  C  C211  1  0.23020000  0.54309000  0.02500000  1
  C  C212  1  0.99990000  0.52949000  0.40688000  1
  C  C213  1  0.50010000  0.52949000  0.90688000  1
  C  C214  1  0.93980000  0.52683000  0.36879000  1
  C  C215  1  0.56020000  0.52683000  0.86879000  1
  C  C216  1  0.25640000  0.52043000  0.60121000  1
  C  C217  1  0.24360000  0.52043000  0.10121000  1
  C  C218  1  0.30470000  0.51813000  0.06252000  1
  C  C219  1  0.19530000  0.51813000  0.56252000  1
  C  C220  1  0.93320000  0.50680000  0.44193000  1
  C  C221  1  0.56680000  0.50680000  0.94193000  1
  C  C222  1  0.80830000  0.50147000  0.36413000  1
  C  C223  1  0.69170000  0.50147000  0.86413000  1
  C  C224  1  0.30830000  0.49853000  0.13587000  1
  C  C225  1  0.19170000  0.49853000  0.63587000  1
  C  C226  1  0.43320000  0.49320000  0.05807000  1
  C  C227  1  0.06680000  0.49320000  0.55807000  1
  C  C228  1  0.80470000  0.48187000  0.43748000  1
  C  C229  1  0.69530000  0.48187000  0.93748000  1
  C  C230  1  0.75640000  0.47957000  0.89879000  1
  C  C231  1  0.74360000  0.47957000  0.39879000  1
  C  C232  1  0.43980000  0.47317000  0.13121000  1
  C  C233  1  0.06020000  0.47317000  0.63121000  1
  C  C234  1  0.49990000  0.47051000  0.09312000  1
  C  C235  1  0.00010000  0.47051000  0.59312000  1
  C  C236  1  0.76980000  0.45691000  0.97500000  1
  C  C237  1  0.73020000  0.45691000  0.47500000  1
  C  C238  1  0.93030000  0.41850000  0.25292000  1
  C  C239  1  0.56970000  0.41850000  0.75292000  1
  C  C240  1  0.81260000  0.38985000  0.23717000  1
  C  C241  1  0.68740000  0.38985000  0.73717000  1
  C  C242  1  0.99010000  0.38060000  0.11933000  1
  C  C243  1  0.50990000  0.38060000  0.61933000  1
  C  C244  1  0.45750000  0.37572000  0.76062000  1
  C  C245  1  0.04250000  0.37572000  0.26062000  1
  C  C246  1  0.42920000  0.33660000  0.64301000  1
  C  C247  1  0.07080000  0.33660000  0.14301000  1
  C  C248  1  0.32820000  0.33180000  0.52205000  1
  C  C249  1  0.17180000  0.33180000  0.02205000  1
  C  C250  1  0.80390000  0.31716000  0.22659000  1
  C  C251  1  0.69610000  0.31716000  0.72659000  1
  C  C252  1  0.26670000  0.31360000  0.05004000  1
  C  C253  1  0.23330000  0.31360000  0.55004000  1
  C  C254  1  0.47010000  0.30405000  0.75218000  1
  C  C255  1  0.02990000  0.30405000  0.25218000  1
  C  C256  1  0.40870000  0.30370000  0.22382000  1
  C  C257  1  0.09130000  0.30370000  0.72382000  1
  C  C258  1  0.87110000  0.29140000  0.51243000  1
  C  C259  1  0.62890000  0.29140000  0.01243000  1
  C  C260  1  0.89130000  0.28340000  0.08866000  1
  C  C261  1  0.60870000  0.28340000  0.58866000  1
  C  C262  1  0.39850000  0.27930000  0.50306000  1
  C  C263  1  0.10150000  0.27930000  0.00306000  1
  C  C264  1  0.91200000  0.27520000  0.23485000  1
  C  C265  1  0.58800000  0.27520000  0.73485000  1
  C  C266  1  0.44080000  0.26470000  0.63847000  1
  C  C267  1  0.05920000  0.26470000  0.13847000  1
  C  C268  1  0.46840000  0.26300000  0.11187000  1
  C  C269  1  0.03160000  0.26300000  0.61187000  1
  C  C270  1  0.79100000  0.25788000  0.05865000  1
  C  C271  1  0.70900000  0.25788000  0.55865000  1
  C  C272  1  0.29100000  0.24212000  0.05865000  1
  C  C273  1  0.20900000  0.24212000  0.55865000  1
  C  C274  1  0.96840000  0.23700000  0.11187000  1
  C  C275  1  0.53160000  0.23700000  0.61187000  1
  C  C276  1  0.94080000  0.23530000  0.63847000  1
  C  C277  1  0.55920000  0.23530000  0.13847000  1
  C  C278  1  0.41200000  0.22480000  0.23485000  1
  C  C279  1  0.08800000  0.22480000  0.73485000  1
  C  C280  1  0.89850000  0.22070000  0.50306000  1
  C  C281  1  0.60150000  0.22070000  0.00306000  1
  C  C282  1  0.39130000  0.21660000  0.08866000  1
  C  C283  1  0.10870000  0.21660000  0.58866000  1
  C  C284  1  0.37110000  0.20860000  0.51243000  1
  C  C285  1  0.12890000  0.20860000  0.01243000  1
  C  C286  1  0.90870000  0.19630000  0.22382000  1
  C  C287  1  0.59130000  0.19630000  0.72382000  1
  C  C288  1  0.97010000  0.19595000  0.75218000  1
  C  C289  1  0.52990000  0.19595000  0.25218000  1
  C  C290  1  0.76670000  0.18640000  0.05004000  1
  C  C291  1  0.73330000  0.18640000  0.55004000  1
  C  C292  1  0.30390000  0.18284000  0.22659000  1
  C  C293  1  0.19610000  0.18284000  0.72659000  1
  C  C294  1  0.82820000  0.16820000  0.52205000  1
  C  C295  1  0.67180000  0.16820000  0.02205000  1
  C  C296  1  0.92920000  0.16340000  0.64301000  1
  C  C297  1  0.57080000  0.16340000  0.14301000  1
  C  C298  1  0.95750000  0.12428000  0.76062000  1
  C  C299  1  0.54250000  0.12428000  0.26062000  1
  C  C300  1  0.49010000  0.11940000  0.11933000  1
  C  C301  1  0.00990000  0.11940000  0.61933000  1
  C  C302  1  0.31260000  0.11015000  0.23717000  1
  C  C303  1  0.18740000  0.11015000  0.73717000  1
  C  C304  1  0.43030000  0.08150000  0.25292000  1
  C  C305  1  0.06970000  0.08150000  0.75292000  1
  C  C306  1  0.26980000  0.04309000  0.97500000  1
  C  C307  1  0.23020000  0.04309000  0.47500000  1
  C  C308  1  0.99990000  0.02949000  0.09312000  1
  C  C309  1  0.50010000  0.02949000  0.59312000  1
  C  C310  1  0.93980000  0.02683000  0.13121000  1
  C  C311  1  0.56020000  0.02683000  0.63121000  1
  C  C312  1  0.25640000  0.02043000  0.89879000  1
  C  C313  1  0.24360000  0.02043000  0.39879000  1
  C  C314  1  0.30470000  0.01813000  0.43748000  1
  C  C315  1  0.19530000  0.01813000  0.93748000  1
  C  C316  1  0.93320000  0.00680000  0.05807000  1
  C  C317  1  0.56680000  0.00680000  0.55807000  1
  C  C318  1  0.80830000  0.00147000  0.13587000  1
  C  C319  1  0.69170000  0.00147000  0.63587000  1
  N  N320  1  0.28284000  0.99564000  0.24718000  1
  N  N321  1  0.21716000  0.99564000  0.74718000  1
  N  N322  1  0.90833000  0.99020000  0.24154000  1
  N  N323  1  0.59167000  0.99020000  0.74154000  1
  N  N324  1  0.96871000  0.94743000  0.84149000  1
  N  N325  1  0.53129000  0.94743000  0.34149000  1
  N  N326  1  0.77662000  0.94534000  0.76533000  1
  N  N327  1  0.72338000  0.94534000  0.26533000  1
  N  N328  1  0.87436000  0.94240000  0.90143000  1
  N  N329  1  0.62564000  0.94240000  0.40143000  1
  N  N330  1  0.85841000  0.92946000  0.86192000  1
  N  N331  1  0.64159000  0.92946000  0.36192000  1
  N  N332  1  0.90300000  0.85458000  0.40754000  1
  N  N333  1  0.59700000  0.85458000  0.90754000  1
  N  N334  1  0.77750000  0.80985000  0.96021000  1
  N  N335  1  0.72250000  0.80985000  0.46021000  1
  N  N336  1  0.27750000  0.69015000  0.96021000  1
  N  N337  1  0.22250000  0.69015000  0.46021000  1
  N  N338  1  0.40300000  0.64542000  0.40754000  1
  N  N339  1  0.09700000  0.64542000  0.90754000  1
  N  N340  1  0.35841000  0.57054000  0.86192000  1
  N  N341  1  0.14159000  0.57054000  0.36192000  1
  N  N342  1  0.37436000  0.55760000  0.90143000  1
  N  N343  1  0.12564000  0.55760000  0.40143000  1
  N  N344  1  0.27662000  0.55466000  0.76533000  1
  N  N345  1  0.22338000  0.55466000  0.26533000  1
  N  N346  1  0.46871000  0.55257000  0.84149000  1
  N  N347  1  0.03129000  0.55257000  0.34149000  1
  N  N348  1  0.40833000  0.50980000  0.24154000  1
  N  N349  1  0.09167000  0.50980000  0.74154000  1
  N  N350  1  0.78284000  0.50436000  0.24718000  1
  N  N351  1  0.71716000  0.50436000  0.74718000  1
  N  N352  1  0.28284000  0.49564000  0.25282000  1
  N  N353  1  0.21716000  0.49564000  0.75282000  1
  N  N354  1  0.90833000  0.49020000  0.25846000  1
  N  N355  1  0.59167000  0.49020000  0.75846000  1
  N  N356  1  0.96871000  0.44743000  0.65851000  1
  N  N357  1  0.53129000  0.44743000  0.15851000  1
  N  N358  1  0.77662000  0.44534000  0.73467000  1
  N  N359  1  0.72338000  0.44534000  0.23467000  1
  N  N360  1  0.87436000  0.44240000  0.59857000  1
  N  N361  1  0.62564000  0.44240000  0.09857000  1
  N  N362  1  0.85841000  0.42946000  0.63808000  1
  N  N363  1  0.64159000  0.42946000  0.13808000  1
  N  N364  1  0.90300000  0.35458000  0.09246000  1
  N  N365  1  0.59700000  0.35458000  0.59246000  1
  N  N366  1  0.77750000  0.30985000  0.53979000  1
  N  N367  1  0.72250000  0.30985000  0.03979000  1
  N  N368  1  0.27750000  0.19015000  0.53979000  1
  N  N369  1  0.22250000  0.19015000  0.03979000  1
  N  N370  1  0.40300000  0.14542000  0.09246000  1
  N  N371  1  0.09700000  0.14542000  0.59246000  1
  N  N372  1  0.35841000  0.07054000  0.63808000  1
  N  N373  1  0.14159000  0.07054000  0.13808000  1
  N  N374  1  0.37436000  0.05760000  0.59857000  1
  N  N375  1  0.12564000  0.05760000  0.09857000  1
  N  N376  1  0.27662000  0.05466000  0.73467000  1
  N  N377  1  0.22338000  0.05466000  0.23467000  1
  N  N378  1  0.46871000  0.05257000  0.65851000  1
  N  N379  1  0.03129000  0.05257000  0.15851000  1
  N  N380  1  0.40833000  0.00980000  0.25846000  1
  N  N381  1  0.09167000  0.00980000  0.75846000  1
  N  N382  1  0.78284000  0.00436000  0.25282000  1
  N  N383  1  0.71716000  0.00436000  0.75282000  1
  O  O384  1  0.79946000  0.95547000  0.99288000  1
  O  O385  1  0.70054000  0.95547000  0.49288000  1
  O  O386  1  0.88805000  0.93818000  0.52699000  1
  O  O387  1  0.61195000  0.93818000  0.02699000  1
  O  O388  1  0.99844000  0.84086000  0.75999000  1
  O  O389  1  0.50156000  0.84086000  0.25999000  1
  O  O390  1  0.32400000  0.82675000  0.29956000  1
  O  O391  1  0.17600000  0.82675000  0.79956000  1
  O  O392  1  0.82400000  0.67325000  0.29956000  1
  O  O393  1  0.67600000  0.67325000  0.79956000  1
  O  O394  1  0.49844000  0.65914000  0.75999000  1
  O  O395  1  0.00156000  0.65914000  0.25999000  1
  O  O396  1  0.38805000  0.56182000  0.52699000  1
  O  O397  1  0.11195000  0.56182000  0.02699000  1
  O  O398  1  0.29946000  0.54453000  0.99288000  1
  O  O399  1  0.20054000  0.54453000  0.49288000  1
  O  O400  1  0.79946000  0.45547000  0.50712000  1
  O  O401  1  0.70054000  0.45547000  0.00712000  1
  O  O402  1  0.88805000  0.43818000  0.97301000  1
  O  O403  1  0.61195000  0.43818000  0.47301000  1
  O  O404  1  0.99844000  0.34086000  0.74001000  1
  O  O405  1  0.50156000  0.34086000  0.24001000  1
  O  O406  1  0.32400000  0.32675000  0.20044000  1
  O  O407  1  0.17600000  0.32675000  0.70044000  1
  O  O408  1  0.82400000  0.17325000  0.20044000  1
  O  O409  1  0.67600000  0.17325000  0.70044000  1
  O  O410  1  0.49844000  0.15914000  0.74001000  1
  O  O411  1  0.00156000  0.15914000  0.24001000  1
  O  O412  1  0.38805000  0.06182000  0.97301000  1
  O  O413  1  0.11195000  0.06182000  0.47301000  1
  O  O414  1  0.29946000  0.04453000  0.50712000  1
  O  O415  1  0.20054000  0.04453000  0.00712000  1
