# generated using pymatgen
data_Zn5H26(C21O10)2
_symmetry_space_group_name_H-M   'P 1'
_cell_length_a   6.33030000
_cell_length_b   12.68190000
_cell_length_c   15.68770000
_cell_angle_alpha   95.71100000
_cell_angle_beta   99.77300000
_cell_angle_gamma   97.97300000
_symmetry_Int_Tables_number   1
_chemical_formula_structural   Zn5H26(C21O10)2
_chemical_formula_sum   'Zn5 H26 C42 O20'
_cell_volume   1219.32878291
_cell_formula_units_Z   1
loop_
 _symmetry_equiv_pos_site_id
 _symmetry_equiv_pos_as_xyz
  1  'x, y, z'
loop_
 _atom_site_type_symbol
 _atom_site_label
 _atom_site_symmetry_multiplicity
 _atom_site_fract_x
 _atom_site_fract_y
 _atom_site_fract_z
 _atom_site_occupancy
  Zn  Zn0  1  0.00000000  0.00000000  0.00000000  1
  Zn  Zn1  1  0.05860000  0.96181000  0.18612000  1
  Zn  Zn2  1  0.48003000  0.04617000  0.89954000  1
  Zn  Zn3  1  0.51997000  0.95383000  0.10046000  1
  Zn  Zn4  1  0.94140000  0.03819000  0.81388000  1
  H  H5  1  0.06750000  0.38430000  0.47220000  1
  H  H6  1  0.10270000  0.25400000  0.36390000  1
  H  H7  1  0.10440000  0.30720000  0.15830000  1
  H  H8  1  0.11800000  0.45970000  0.25310000  1
  H  H9  1  0.18700000  0.16135000  0.91937000  1
  H  H10  1  0.18820000  0.73210000  0.35650000  1
  H  H11  1  0.28900000  0.08650000  0.12400000  1
  H  H12  1  0.35950000  0.31650000  0.78870000  1
  H  H13  1  0.42090000  0.48590000  0.58800000  1
  H  H14  1  0.44850000  0.25270000  0.45680000  1
  H  H15  1  0.45590000  0.27030000  0.10830000  1
  H  H16  1  0.46900000  0.42400000  0.20370000  1
  H  H17  1  0.47980000  0.12600000  0.34390000  1
  H  H18  1  0.52020000  0.87400000  0.65610000  1
  H  H19  1  0.53100000  0.57600000  0.79630000  1
  H  H20  1  0.54410000  0.72970000  0.89170000  1
  H  H21  1  0.55150000  0.74730000  0.54320000  1
  H  H22  1  0.57910000  0.51410000  0.41200000  1
  H  H23  1  0.64050000  0.68350000  0.21130000  1
  H  H24  1  0.71100000  0.91350000  0.87600000  1
  H  H25  1  0.81180000  0.26790000  0.64350000  1
  H  H26  1  0.81300000  0.83865000  0.08063000  1
  H  H27  1  0.88200000  0.54030000  0.74690000  1
  H  H28  1  0.89560000  0.69280000  0.84170000  1
  H  H29  1  0.89730000  0.74600000  0.63610000  1
  H  H30  1  0.93250000  0.61570000  0.52780000  1
  C  C31  1  0.01530000  0.57850000  0.77570000  1
  C  C32  1  0.02400000  0.66960000  0.83260000  1
  C  C33  1  0.02990000  0.74590000  0.61810000  1
  C  C34  1  0.04970000  0.66870000  0.55260000  1
  C  C35  1  0.18520000  0.90660000  0.72890000  1
  C  C36  1  0.20520000  0.82300000  0.65710000  1
  C  C37  1  0.20610000  0.54400000  0.76170000  1
  C  C38  1  0.22120000  0.72730000  0.87660000  1
  C  C39  1  0.22510000  0.82700000  0.93640000  1
  C  C40  1  0.24430000  0.67080000  0.52460000  1
  C  C41  1  0.30040000  0.69650000  0.34430000  1
  C  C42  1  0.32980000  0.80320000  0.22010000  1
  C  C43  1  0.36420000  0.40790000  0.69090000  1
  C  C44  1  0.36700000  0.61980000  0.39480000  1
  C  C45  1  0.40100000  0.82300000  0.62960000  1
  C  C46  1  0.40190000  0.72010000  0.27510000  1
  C  C47  1  0.40300000  0.59980000  0.80530000  1
  C  C48  1  0.41070000  0.69180000  0.86260000  1
  C  C49  1  0.42030000  0.74680000  0.56240000  1
  C  C50  1  0.42850000  0.33230000  0.74270000  1
  C  C51  1  0.46490000  0.43400000  0.62190000  1
  C  C52  1  0.53510000  0.56600000  0.37810000  1
  C  C53  1  0.57150000  0.66770000  0.25730000  1
  C  C54  1  0.57970000  0.25320000  0.43760000  1
  C  C55  1  0.58930000  0.30820000  0.13740000  1
  C  C56  1  0.59700000  0.40020000  0.19470000  1
  C  C57  1  0.59810000  0.27990000  0.72490000  1
  C  C58  1  0.59900000  0.17700000  0.37040000  1
  C  C59  1  0.63300000  0.38020000  0.60520000  1
  C  C60  1  0.63580000  0.59210000  0.30910000  1
  C  C61  1  0.67020000  0.19680000  0.77990000  1
  C  C62  1  0.69960000  0.30350000  0.65570000  1
  C  C63  1  0.75570000  0.32920000  0.47540000  1
  C  C64  1  0.77490000  0.17300000  0.06360000  1
  C  C65  1  0.77880000  0.27270000  0.12340000  1
  C  C66  1  0.79390000  0.45600000  0.23830000  1
  C  C67  1  0.79480000  0.17700000  0.34290000  1
  C  C68  1  0.81480000  0.09340000  0.27110000  1
  C  C69  1  0.95030000  0.33130000  0.44740000  1
  C  C70  1  0.97010000  0.25410000  0.38190000  1
  C  C71  1  0.97600000  0.33040000  0.16740000  1
  C  C72  1  0.98470000  0.42150000  0.22430000  1
  O  O73  1  0.00800000  0.07770000  0.26570000  1
  O  O74  1  0.04720000  0.84880000  0.95210000  1
  O  O75  1  0.18090000  0.45380000  0.70260000  1
  O  O76  1  0.18160000  0.85150000  0.24300000  1
  O  O77  1  0.18700000  0.08210000  0.91300000  1
  O  O78  1  0.25030000  0.01960000  0.10780000  1
  O  O79  1  0.26140000  0.58900000  0.46110000  1
  O  O80  1  0.35400000  0.95480000  0.77690000  1
  O  O81  1  0.40890000  0.88480000  0.96750000  1
  O  O82  1  0.42010000  0.81840000  0.15580000  1
  O  O83  1  0.57990000  0.18160000  0.84420000  1
  O  O84  1  0.59110000  0.11520000  0.03250000  1
  O  O85  1  0.64600000  0.04520000  0.22310000  1
  O  O86  1  0.73860000  0.41100000  0.53890000  1
  O  O87  1  0.74970000  0.98040000  0.89220000  1
  O  O88  1  0.81300000  0.91790000  0.08700000  1
  O  O89  1  0.81840000  0.14850000  0.75700000  1
  O  O90  1  0.81910000  0.54620000  0.29740000  1
  O  O91  1  0.95280000  0.15120000  0.04790000  1
  O  O92  1  0.99200000  0.92230000  0.73430000  1
