# generated using pymatgen
data_KCuPH10C6(NO3)2
_symmetry_space_group_name_H-M   'P 1'
_cell_length_a   8.68104484
_cell_length_b   16.69390000
_cell_length_c   16.69390000
_cell_angle_alpha   117.06050000
_cell_angle_beta   99.98193487
_cell_angle_gamma   99.98193487
_symmetry_Int_Tables_number   1
_chemical_formula_structural   KCuPH10C6(NO3)2
_chemical_formula_sum   'K6 Cu6 P6 H60 C36 N12 O36'
_cell_volume   2032.21386200
_cell_formula_units_Z   6
loop_
 _symmetry_equiv_pos_site_id
 _symmetry_equiv_pos_as_xyz
  1  'x, y, z'
loop_
 _atom_site_type_symbol
 _atom_site_label
 _atom_site_symmetry_multiplicity
 _atom_site_fract_x
 _atom_site_fract_y
 _atom_site_fract_z
 _atom_site_occupancy
  K  K0  1  0.61646000  0.24654000  0.68814000  1
  K  K1  1  0.07168000  0.68814000  0.44160000  1
  K  K2  1  0.36992000  0.44160000  0.75346000  1
  K  K3  1  0.63008000  0.55840000  0.24654000  1
  K  K4  1  0.92832000  0.31186000  0.55840000  1
  K  K5  1  0.38354000  0.75346000  0.31186000  1
  Cu  Cu6  1  0.58787000  0.62746000  0.60003000  1
  Cu  Cu7  1  0.98784000  0.39997000  0.02743000  1
  Cu  Cu8  1  0.96041000  0.97257000  0.37254000  1
  Cu  Cu9  1  0.03959000  0.02743000  0.62746000  1
  Cu  Cu10  1  0.01216000  0.60003000  0.97257000  1
  Cu  Cu11  1  0.41213000  0.37254000  0.39997000  1
  P  P12  1  0.78354000  0.62376000  0.80176000  1
  P  P13  1  0.01822000  0.80176000  0.17800000  1
  P  P14  1  0.15978000  0.17800000  0.37624000  1
  P  P15  1  0.84022000  0.82200000  0.62376000  1
  P  P16  1  0.98178000  0.19824000  0.82200000  1
  P  P17  1  0.21646000  0.37624000  0.19824000  1
  H  H18  1  0.91830000  0.18410000  0.94540000  1
  H  H19  1  0.38200000  0.13350000  0.42050000  1
  H  H20  1  0.26920000  0.05340000  0.32120000  1
  H  H21  1  0.31830000  0.95070000  0.37710000  1
  H  H22  1  0.73420000  0.76130000  0.81590000  1
  H  H23  1  0.76050000  0.13970000  0.86020000  1
  H  H24  1  0.38530000  0.01720000  0.48640000  1
  H  H25  1  0.27810000  0.48730000  0.39570000  1
  H  H26  1  0.75370000  0.28630000  0.89390000  1
  H  H27  1  0.88240000  0.60430000  0.09160000  1
  H  H28  1  0.05200000  0.32120000  0.26780000  1
  H  H29  1  0.62080000  0.72050000  0.86030000  1
  H  H30  1  0.46740000  0.60760000  0.71370000  1
  H  H31  1  0.03850000  0.42050000  0.28700000  1
  H  H32  1  0.97290000  0.05460000  0.23870000  1
  H  H33  1  0.78420000  0.73220000  0.05340000  1
  H  H34  1  0.48750000  0.78900000  0.76360000  1
  H  H35  1  0.20920000  0.09160000  0.48730000  1
  H  H36  1  0.72390000  0.23640000  0.02540000  1
  H  H37  1  0.63240000  0.57360000  0.95070000  1
  H  H38  1  0.37160000  0.95570000  0.71440000  1
  H  H39  1  0.05880000  0.37710000  0.42640000  1
  H  H40  1  0.10110000  0.48640000  0.46920000  1
  H  H41  1  0.58410000  0.24130000  0.95570000  1
  H  H42  1  0.90030000  0.13980000  0.27950000  1
  H  H43  1  0.75150000  0.71300000  0.13350000  1
  H  H44  1  0.63190000  0.53080000  0.01720000  1
  H  H45  1  0.34280000  0.71440000  0.75870000  1
  H  H46  1  0.14020000  0.89390000  0.60760000  1
  H  H47  1  0.30150000  0.02540000  0.78900000  1
  H  H48  1  0.69850000  0.97460000  0.21100000  1
  H  H49  1  0.85980000  0.10610000  0.39240000  1
  H  H50  1  0.65720000  0.28560000  0.24130000  1
  H  H51  1  0.36810000  0.46920000  0.98280000  1
  H  H52  1  0.24850000  0.28700000  0.86650000  1
  H  H53  1  0.09970000  0.86020000  0.72050000  1
  H  H54  1  0.41590000  0.75870000  0.04430000  1
  H  H55  1  0.89890000  0.51360000  0.53080000  1
  H  H56  1  0.94120000  0.62290000  0.57360000  1
  H  H57  1  0.62840000  0.04430000  0.28560000  1
  H  H58  1  0.36760000  0.42640000  0.04930000  1
  H  H59  1  0.27610000  0.76360000  0.97460000  1
  H  H60  1  0.79080000  0.90840000  0.51270000  1
  H  H61  1  0.51250000  0.21100000  0.23640000  1
  H  H62  1  0.21580000  0.26780000  0.94660000  1
  H  H63  1  0.02710000  0.94540000  0.76130000  1
  H  H64  1  0.96150000  0.57950000  0.71300000  1
  H  H65  1  0.53260000  0.39240000  0.28630000  1
  H  H66  1  0.37920000  0.27950000  0.13970000  1
  H  H67  1  0.94800000  0.67880000  0.73220000  1
  H  H68  1  0.11760000  0.39570000  0.90840000  1
  H  H69  1  0.24630000  0.71370000  0.10610000  1
  H  H70  1  0.72190000  0.51270000  0.60430000  1
  H  H71  1  0.61470000  0.98280000  0.51360000  1
  H  H72  1  0.23950000  0.86030000  0.13980000  1
  H  H73  1  0.26580000  0.23870000  0.18410000  1
  H  H74  1  0.68170000  0.04930000  0.62290000  1
  H  H75  1  0.73080000  0.94660000  0.67880000  1
  H  H76  1  0.61800000  0.86650000  0.57950000  1
  H  H77  1  0.08170000  0.81590000  0.05460000  1
  C  C78  1  0.85730000  0.19290000  0.89700000  1
  C  C79  1  0.26930000  0.09830000  0.38370000  1
  C  C80  1  0.66440000  0.70410000  0.80710000  1
  C  C81  1  0.28660000  0.98200000  0.43400000  1
  C  C82  1  0.11440000  0.38370000  0.28540000  1
  C  C83  1  0.72710000  0.46130000  0.90910000  1
  C  C84  1  0.18200000  0.90910000  0.44780000  1
  C  C85  1  0.82900000  0.71460000  0.09830000  1
  C  C86  1  0.26580000  0.44780000  0.53870000  1
  C  C87  1  0.69540000  0.54800000  0.98200000  1
  C  C88  1  0.33320000  0.70240000  0.62940000  1
  C  C89  1  0.69490000  0.27300000  0.99690000  1
  C  C90  1  0.14740000  0.43400000  0.45200000  1
  C  C91  1  0.42190000  0.72390000  0.72700000  1
  C  C92  1  0.36920000  0.07300000  0.70240000  1
  C  C93  1  0.96030000  0.10300000  0.29590000  1
  C  C94  1  0.70380000  0.37060000  0.07300000  1
  C  C95  1  0.30200000  0.99690000  0.72390000  1
  C  C96  1  0.69800000  0.00310000  0.27610000  1
  C  C97  1  0.29620000  0.62940000  0.92700000  1
  C  C98  1  0.03970000  0.89700000  0.70410000  1
  C  C99  1  0.63080000  0.92700000  0.29760000  1
  C  C100  1  0.57810000  0.27610000  0.27300000  1
  C  C101  1  0.85260000  0.56600000  0.54800000  1
  C  C102  1  0.30510000  0.72700000  0.00310000  1
  C  C103  1  0.66680000  0.29760000  0.37060000  1
  C  C104  1  0.30460000  0.45200000  0.01800000  1
  C  C105  1  0.73420000  0.55220000  0.46130000  1
  C  C106  1  0.17100000  0.28540000  0.90170000  1
  C  C107  1  0.81800000  0.09090000  0.55220000  1
  C  C108  1  0.27290000  0.53870000  0.09090000  1
  C  C109  1  0.88560000  0.61630000  0.71460000  1
  C  C110  1  0.71340000  0.01800000  0.56600000  1
  C  C111  1  0.33560000  0.29590000  0.19290000  1
  C  C112  1  0.73070000  0.90170000  0.61630000  1
  C  C113  1  0.14270000  0.80710000  0.10300000  1
  N  N114  1  0.80900000  0.27970000  0.94100000  1
  N  N115  1  0.22950000  0.42720000  0.37990000  1
  N  N116  1  0.52930000  0.66130000  0.72030000  1
  N  N117  1  0.84960000  0.62010000  0.04730000  1
  N  N118  1  0.19770000  0.04730000  0.42720000  1
  N  N119  1  0.86800000  0.05900000  0.33870000  1
  N  N120  1  0.13200000  0.94100000  0.66130000  1
  N  N121  1  0.80230000  0.95270000  0.57280000  1
  N  N122  1  0.15040000  0.37990000  0.95270000  1
  N  N123  1  0.47070000  0.33870000  0.27970000  1
  N  N124  1  0.77050000  0.57280000  0.62010000  1
  N  N125  1  0.19100000  0.72030000  0.05900000  1
  O  O126  1  0.09140000  0.33240000  0.10540000  1
  O  O127  1  0.87190000  0.46990000  0.90170000  1
  O  O128  1  0.24100000  0.22700000  0.33240000  1
  O  O129  1  0.66400000  0.52930000  0.76380000  1
  O  O130  1  0.40200000  0.43180000  0.53010000  1
  O  O131  1  0.09980000  0.76380000  0.23450000  1
  O  O132  1  0.38600000  0.65250000  0.56170000  1
  O  O133  1  0.51540000  0.11390000  0.73500000  1
  O  O134  1  0.24860000  0.85960000  0.47090000  1
  O  O135  1  0.98600000  0.89460000  0.22700000  1
  O  O136  1  0.61100000  0.38870000  0.85960000  1
  O  O137  1  0.82430000  0.43830000  0.09080000  1
  O  O138  1  0.13470000  0.23450000  0.47070000  1
  O  O139  1  0.26650000  0.09080000  0.65250000  1
  O  O140  1  0.22230000  0.47090000  0.61130000  1
  O  O141  1  0.21960000  0.73500000  0.62110000  1
  O  O142  1  0.02980000  0.90170000  0.43180000  1
  O  O143  1  0.40150000  0.62110000  0.88610000  1
  O  O144  1  0.59850000  0.37890000  0.11390000  1
  O  O145  1  0.97020000  0.09830000  0.56820000  1
  O  O146  1  0.78040000  0.26500000  0.37890000  1
  O  O147  1  0.77770000  0.52910000  0.38870000  1
  O  O148  1  0.73350000  0.90920000  0.34750000  1
  O  O149  1  0.86530000  0.76550000  0.52930000  1
  O  O150  1  0.17570000  0.56170000  0.90920000  1
  O  O151  1  0.38900000  0.61130000  0.14040000  1
  O  O152  1  0.01400000  0.10540000  0.77300000  1
  O  O153  1  0.75140000  0.14040000  0.52910000  1
  O  O154  1  0.48460000  0.88610000  0.26500000  1
  O  O155  1  0.61400000  0.34750000  0.43830000  1
  O  O156  1  0.90020000  0.23620000  0.76550000  1
  O  O157  1  0.59800000  0.56820000  0.46990000  1
  O  O158  1  0.33600000  0.47070000  0.23620000  1
  O  O159  1  0.75900000  0.77300000  0.66760000  1
  O  O160  1  0.12810000  0.53010000  0.09830000  1
  O  O161  1  0.90860000  0.66760000  0.89460000  1
