# generated using pymatgen
data_FeH12(CN2)12
_symmetry_space_group_name_H-M   'P 1'
_cell_length_a   8.03060000
_cell_length_b   8.88620000
_cell_length_c   19.40800000
_cell_angle_alpha   90.00000000
_cell_angle_beta   90.00000000
_cell_angle_gamma   92.81600000
_symmetry_Int_Tables_number   1
_chemical_formula_structural   FeH12(CN2)12
_chemical_formula_sum   'Fe2 H24 C24 N48'
_cell_volume   1383.31190773
_cell_formula_units_Z   2
loop_
 _symmetry_equiv_pos_site_id
 _symmetry_equiv_pos_as_xyz
  1  'x, y, z'
loop_
 _atom_site_type_symbol
 _atom_site_label
 _atom_site_symmetry_multiplicity
 _atom_site_fract_x
 _atom_site_fract_y
 _atom_site_fract_z
 _atom_site_occupancy
  Fe  Fe0  1  0.00000000  0.00000000  0.00000000  1
  Fe  Fe1  1  0.50000000  0.50000000  0.50000000  1
  H  H2  1  0.98100000  0.79790000  0.13280000  1
  H  H3  1  0.96610000  0.83540000  0.85670000  1
  H  H4  1  0.96490000  0.33310000  0.35370000  1
  H  H5  1  0.95090000  0.37700000  0.66230000  1
  H  H6  1  0.89370000  0.64710000  0.49780000  1
  H  H7  1  0.82010000  0.46310000  0.99640000  1
  H  H8  1  0.67990000  0.03690000  0.49640000  1
  H  H9  1  0.60630000  0.85290000  0.99780000  1
  H  H10  1  0.54910000  0.12300000  0.16230000  1
  H  H11  1  0.53510000  0.16690000  0.85370000  1
  H  H12  1  0.53390000  0.66460000  0.35670000  1
  H  H13  1  0.51900000  0.70210000  0.63280000  1
  H  H14  1  0.48100000  0.29790000  0.36720000  1
  H  H15  1  0.46610000  0.33540000  0.64330000  1
  H  H16  1  0.46490000  0.83310000  0.14630000  1
  H  H17  1  0.45090000  0.87700000  0.83770000  1
  H  H18  1  0.39370000  0.14710000  0.00220000  1
  H  H19  1  0.32010000  0.96310000  0.50360000  1
  H  H20  1  0.17990000  0.53690000  0.00360000  1
  H  H21  1  0.10630000  0.35290000  0.50220000  1
  H  H22  1  0.04910000  0.62300000  0.33770000  1
  H  H23  1  0.03510000  0.66690000  0.64630000  1
  H  H24  1  0.03390000  0.16460000  0.14330000  1
  H  H25  1  0.01900000  0.20210000  0.86720000  1
  C  C26  1  0.92170000  0.14120000  0.13460000  1
  C  C27  1  0.90730000  0.17860000  0.87680000  1
  C  C28  1  0.85650000  0.33970000  0.36980000  1
  C  C29  1  0.84320000  0.38130000  0.64500000  1
  C  C30  1  0.81380000  0.71940000  0.49730000  1
  C  C31  1  0.80520000  0.56630000  0.99630000  1
  C  C32  1  0.69480000  0.93370000  0.49630000  1
  C  C33  1  0.68620000  0.78060000  0.99730000  1
  C  C34  1  0.65680000  0.11870000  0.14500000  1
  C  C35  1  0.64350000  0.16030000  0.86980000  1
  C  C36  1  0.59270000  0.32140000  0.37680000  1
  C  C37  1  0.57830000  0.35880000  0.63460000  1
  C  C38  1  0.42170000  0.64120000  0.36540000  1
  C  C39  1  0.40730000  0.67860000  0.62320000  1
  C  C40  1  0.35650000  0.83970000  0.13020000  1
  C  C41  1  0.34320000  0.88130000  0.85500000  1
  C  C42  1  0.31380000  0.21940000  0.00270000  1
  C  C43  1  0.30520000  0.06630000  0.50370000  1
  C  C44  1  0.19480000  0.43370000  0.00370000  1
  C  C45  1  0.18620000  0.28060000  0.50270000  1
  C  C46  1  0.15680000  0.61870000  0.35500000  1
  C  C47  1  0.14350000  0.66030000  0.63020000  1
  C  C48  1  0.09270000  0.82140000  0.12320000  1
  C  C49  1  0.07830000  0.85880000  0.86540000  1
  N  N50  1  0.99820000  0.06940000  0.49990000  1
  N  N51  1  0.92080000  0.66830000  0.99510000  1
  N  N52  1  0.86380000  0.08400000  0.08010000  1
  N  N53  1  0.85400000  0.10440000  0.92910000  1
  N  N54  1  0.84550000  0.80720000  0.99640000  1
  N  N55  1  0.84440000  0.86820000  0.49750000  1
  N  N56  1  0.82540000  0.22390000  0.24340000  1
  N  N57  1  0.81650000  0.40450000  0.42520000  1
  N  N58  1  0.80670000  0.27760000  0.77450000  1
  N  N59  1  0.80560000  0.43020000  0.58630000  1
  N  N60  1  0.79620000  0.16330000  0.17830000  1
  N  N61  1  0.77950000  0.21770000  0.83810000  1
  N  N62  1  0.72050000  0.28230000  0.33810000  1
  N  N63  1  0.70380000  0.33670000  0.67830000  1
  N  N64  1  0.69440000  0.06980000  0.08630000  1
  N  N65  1  0.69330000  0.22240000  0.27450000  1
  N  N66  1  0.68350000  0.09550000  0.92520000  1
  N  N67  1  0.67460000  0.27610000  0.74340000  1
  N  N68  1  0.65560000  0.63180000  0.99750000  1
  N  N69  1  0.65450000  0.69280000  0.49640000  1
  N  N70  1  0.64600000  0.39560000  0.42910000  1
  N  N71  1  0.63620000  0.41600000  0.58010000  1
  N  N72  1  0.57920000  0.83170000  0.49510000  1
  N  N73  1  0.50180000  0.43060000  0.99990000  1
  N  N74  1  0.49820000  0.56940000  0.00010000  1
  N  N75  1  0.42080000  0.16830000  0.50490000  1
  N  N76  1  0.36380000  0.58400000  0.41990000  1
  N  N77  1  0.35400000  0.60440000  0.57090000  1
  N  N78  1  0.34550000  0.30720000  0.50360000  1
  N  N79  1  0.34440000  0.36820000  0.00250000  1
  N  N80  1  0.32540000  0.72390000  0.25660000  1
  N  N81  1  0.31650000  0.90450000  0.07480000  1
  N  N82  1  0.30670000  0.77760000  0.72550000  1
  N  N83  1  0.30560000  0.93020000  0.91370000  1
  N  N84  1  0.29620000  0.66330000  0.32170000  1
  N  N85  1  0.27950000  0.71770000  0.66190000  1
  N  N86  1  0.22050000  0.78230000  0.16190000  1
  N  N87  1  0.20380000  0.83670000  0.82170000  1
  N  N88  1  0.19440000  0.56980000  0.41370000  1
  N  N89  1  0.19330000  0.72240000  0.22550000  1
  N  N90  1  0.18350000  0.59550000  0.57480000  1
  N  N91  1  0.17460000  0.77610000  0.75660000  1
  N  N92  1  0.15560000  0.13180000  0.50250000  1
  N  N93  1  0.15450000  0.19280000  0.00360000  1
  N  N94  1  0.14600000  0.89560000  0.07090000  1
  N  N95  1  0.13620000  0.91600000  0.91990000  1
  N  N96  1  0.07920000  0.33170000  0.00490000  1
  N  N97  1  0.00180000  0.93060000  0.50010000  1
