# generated using pymatgen
data_Mn3CrH21C15(N2O)6
_symmetry_space_group_name_H-M   'P 1'
_cell_length_a   8.11560000
_cell_length_b   13.57390000
_cell_length_c   13.57390000
_cell_angle_alpha   120.00000000
_cell_angle_beta   90.00000000
_cell_angle_gamma   90.00000000
_symmetry_Int_Tables_number   1
_chemical_formula_structural   Mn3CrH21C15(N2O)6
_chemical_formula_sum   'Mn6 Cr2 H42 C30 N24 O12'
_cell_volume   1294.97253009
_cell_formula_units_Z   2
loop_
 _symmetry_equiv_pos_site_id
 _symmetry_equiv_pos_as_xyz
  1  'x, y, z'
loop_
 _atom_site_type_symbol
 _atom_site_label
 _atom_site_symmetry_multiplicity
 _atom_site_fract_x
 _atom_site_fract_y
 _atom_site_fract_z
 _atom_site_occupancy
  Mn  Mn0  1  0.45562000  0.96358000  0.66818000  1
  Mn  Mn1  1  0.45562000  0.70460000  0.03642000  1
  Mn  Mn2  1  0.95562000  0.66818000  0.70460000  1
  Mn  Mn3  1  0.45562000  0.33182000  0.29540000  1
  Mn  Mn4  1  0.95562000  0.29540000  0.96358000  1
  Mn  Mn5  1  0.95562000  0.03642000  0.33182000  1
  Cr  Cr6  1  0.07670000  0.66666667  0.33333333  1
  Cr  Cr7  1  0.57670000  0.33333333  0.66666667  1
  H  H8  1  0.69610000  0.98380000  0.54500000  1
  H  H9  1  0.94000000  0.95410000  0.60630000  1
  H  H10  1  0.55770000  0.91810000  0.19720000  1
  H  H11  1  0.84450000  0.91460000  0.68120000  1
  H  H12  1  0.29180000  0.86740000  0.28480000  1
  H  H13  1  0.70200000  0.86640000  0.51980000  1
  H  H14  1  0.55480000  0.85170000  0.25510000  1
  H  H15  1  0.55770000  0.80280000  0.72090000  1
  H  H16  1  0.84450000  0.76660000  0.08540000  1
  H  H17  1  0.55480000  0.74490000  0.59660000  1
  H  H18  1  0.05770000  0.72090000  0.91810000  1
  H  H19  1  0.29180000  0.71520000  0.58260000  1
  H  H20  1  0.34450000  0.68120000  0.76660000  1
  H  H21  1  0.70200000  0.65340000  0.13360000  1
  H  H22  1  0.94000000  0.65220000  0.04590000  1
  H  H23  1  0.44000000  0.60630000  0.65220000  1
  H  H24  1  0.05480000  0.59660000  0.85170000  1
  H  H25  1  0.79180000  0.58260000  0.86740000  1
  H  H26  1  0.69610000  0.56120000  0.01620000  1
  H  H27  1  0.19610000  0.54500000  0.56120000  1
  H  H28  1  0.20200000  0.51980000  0.65340000  1
  H  H29  1  0.70200000  0.48020000  0.34660000  1
  H  H30  1  0.69610000  0.45500000  0.43880000  1
  H  H31  1  0.19610000  0.43880000  0.98380000  1
  H  H32  1  0.29180000  0.41740000  0.13260000  1
  H  H33  1  0.55480000  0.40340000  0.14830000  1
  H  H34  1  0.94000000  0.39370000  0.34780000  1
  H  H35  1  0.44000000  0.34780000  0.95410000  1
  H  H36  1  0.20200000  0.34660000  0.86640000  1
  H  H37  1  0.84450000  0.31880000  0.23340000  1
  H  H38  1  0.79180000  0.28480000  0.41740000  1
  H  H39  1  0.55770000  0.27910000  0.08190000  1
  H  H40  1  0.05480000  0.25510000  0.40340000  1
  H  H41  1  0.34450000  0.23340000  0.91460000  1
  H  H42  1  0.05770000  0.19720000  0.27910000  1
  H  H43  1  0.05480000  0.14830000  0.74490000  1
  H  H44  1  0.20200000  0.13360000  0.48020000  1
  H  H45  1  0.79180000  0.13260000  0.71520000  1
  H  H46  1  0.34450000  0.08540000  0.31880000  1
  H  H47  1  0.05770000  0.08190000  0.80280000  1
  H  H48  1  0.44000000  0.04590000  0.39370000  1
  H  H49  1  0.19610000  0.01620000  0.45500000  1
  C  C50  1  0.84070000  0.96580000  0.65070000  1
  C  C51  1  0.33490000  0.91300000  0.25290000  1
  C  C52  1  0.21920000  0.89300000  0.15550000  1
  C  C53  1  0.21920000  0.84450000  0.73750000  1
  C  C54  1  0.22670000  0.79820000  0.44580000  1
  C  C55  1  0.94090000  0.79010000  0.32080000  1
  C  C56  1  0.33490000  0.74710000  0.66010000  1
  C  C57  1  0.71920000  0.73750000  0.89300000  1
  C  C58  1  0.84070000  0.68490000  0.03420000  1
  C  C59  1  0.94090000  0.67920000  0.46930000  1
  C  C60  1  0.83490000  0.66010000  0.91300000  1
  C  C61  1  0.34070000  0.65070000  0.68490000  1
  C  C62  1  0.22670000  0.64760000  0.20180000  1
  C  C63  1  0.22670000  0.55420000  0.35240000  1
  C  C64  1  0.94090000  0.53070000  0.20990000  1
  C  C65  1  0.44090000  0.46930000  0.79010000  1
  C  C66  1  0.72670000  0.44580000  0.64760000  1
  C  C67  1  0.72670000  0.35240000  0.79820000  1
  C  C68  1  0.84070000  0.34930000  0.31510000  1
  C  C69  1  0.33490000  0.33990000  0.08700000  1
  C  C70  1  0.44090000  0.32080000  0.53070000  1
  C  C71  1  0.34070000  0.31510000  0.96580000  1
  C  C72  1  0.21920000  0.26250000  0.10700000  1
  C  C73  1  0.83490000  0.25290000  0.33990000  1
  C  C74  1  0.44090000  0.20990000  0.67920000  1
  C  C75  1  0.72670000  0.20180000  0.55420000  1
  C  C76  1  0.71920000  0.15550000  0.26250000  1
  C  C77  1  0.71920000  0.10700000  0.84450000  1
  C  C78  1  0.83490000  0.08700000  0.74710000  1
  C  C79  1  0.34070000  0.03420000  0.34930000  1
  N  N80  1  0.69510000  0.93910000  0.57650000  1
  N  N81  1  0.30900000  0.86930000  0.50620000  1
  N  N82  1  0.49920000  0.86740000  0.20720000  1
  N  N83  1  0.88870000  0.86710000  0.31890000  1
  N  N84  1  0.49920000  0.79280000  0.66020000  1
  N  N85  1  0.88870000  0.68110000  0.54820000  1
  N  N86  1  0.99920000  0.66020000  0.86740000  1
  N  N87  1  0.69510000  0.63740000  0.06090000  1
  N  N88  1  0.30900000  0.63690000  0.13070000  1
  N  N89  1  0.19510000  0.57650000  0.63740000  1
  N  N90  1  0.38870000  0.54820000  0.86710000  1
  N  N91  1  0.80900000  0.50620000  0.63690000  1
  N  N92  1  0.30900000  0.49380000  0.36310000  1
  N  N93  1  0.88870000  0.45180000  0.13290000  1
  N  N94  1  0.69510000  0.42350000  0.36260000  1
  N  N95  1  0.80900000  0.36310000  0.86930000  1
  N  N96  1  0.19510000  0.36260000  0.93910000  1
  N  N97  1  0.49920000  0.33980000  0.13260000  1
  N  N98  1  0.38870000  0.31890000  0.45180000  1
  N  N99  1  0.99920000  0.20720000  0.33980000  1
  N  N100  1  0.38870000  0.13290000  0.68110000  1
  N  N101  1  0.99920000  0.13260000  0.79280000  1
  N  N102  1  0.80900000  0.13070000  0.49380000  1
  N  N103  1  0.19510000  0.06090000  0.42350000  1
  O  O104  1  0.09360000  0.95030000  0.17750000  1
  O  O105  1  0.25360000  0.94500000  0.76070000  1
  O  O106  1  0.09360000  0.82250000  0.77280000  1
  O  O107  1  0.25360000  0.81570000  0.05500000  1
  O  O108  1  0.59360000  0.77280000  0.95030000  1
  O  O109  1  0.75360000  0.76070000  0.81570000  1
  O  O110  1  0.25360000  0.23930000  0.18430000  1
  O  O111  1  0.09360000  0.22720000  0.04970000  1
  O  O112  1  0.75360000  0.18430000  0.94500000  1
  O  O113  1  0.59360000  0.17750000  0.22720000  1
  O  O114  1  0.75360000  0.05500000  0.23930000  1
  O  O115  1  0.59360000  0.04970000  0.82250000  1
