# generated using pymatgen
data_ZnH16C24(NO4)2
_symmetry_space_group_name_H-M   'P 1'
_cell_length_a   10.43749119
_cell_length_b   10.43749119
_cell_length_c   13.59100000
_cell_angle_alpha   81.96363305
_cell_angle_beta   81.96363305
_cell_angle_gamma   77.17558949
_symmetry_Int_Tables_number   1
_chemical_formula_structural   ZnH16C24(NO4)2
_chemical_formula_sum   'Zn2 H32 C48 N4 O16'
_cell_volume   1420.40743765
_cell_formula_units_Z   2
loop_
 _symmetry_equiv_pos_site_id
 _symmetry_equiv_pos_as_xyz
  1  'x, y, z'
loop_
 _atom_site_type_symbol
 _atom_site_label
 _atom_site_symmetry_multiplicity
 _atom_site_fract_x
 _atom_site_fract_y
 _atom_site_fract_z
 _atom_site_occupancy
  C  C0  1  0.30450000  0.77750000  0.72590000  1
  C  C1  1  0.77750000  0.30450000  0.22590000  1
  C  C2  1  0.12460000  0.95960000  0.72610000  1
  C  C3  1  0.95960000  0.12460000  0.22610000  1
  C  C4  1  0.25660000  0.90940000  0.70090000  1
  C  C5  1  0.90940000  0.25660000  0.20090000  1
  C  C6  1  0.31610000  0.92270000  0.28450000  1
  C  C7  1  0.92270000  0.31610000  0.78450000  1
  C  C8  1  0.60050000  0.67330000  0.22120000  1
  C  C9  1  0.67330000  0.60050000  0.72120000  1
  C  C10  1  0.30880000  0.02020000  0.44610000  1
  C  C11  1  0.02020000  0.30880000  0.94610000  1
  C  C12  1  0.30950000  0.03610000  0.34110000  1
  C  C13  1  0.03610000  0.30950000  0.84110000  1
  C  C14  1  0.35760000  0.99360000  0.65690000  1
  C  C15  1  0.99360000  0.35760000  0.15690000  1
  C  C16  1  0.68560000  0.73280000  0.66300000  1
  C  C17  1  0.73280000  0.68560000  0.16300000  1
  C  C18  1  0.68600000  0.74920000  0.55850000  1
  C  C19  1  0.74920000  0.68600000  0.05850000  1
  C  C20  1  0.30980000  0.12720000  0.49650000  1
  C  C21  1  0.12720000  0.30980000  0.99650000  1
  C  C22  1  0.31210000  0.16090000  0.28820000  1
  C  C23  1  0.16090000  0.31210000  0.78820000  1
  C  C24  1  0.68790000  0.83910000  0.71180000  1
  C  C25  1  0.83910000  0.68790000  0.21180000  1
  C  C26  1  0.69020000  0.87280000  0.50350000  1
  C  C27  1  0.87280000  0.69020000  0.00350000  1
  C  C28  1  0.31400000  0.25080000  0.44150000  1
  C  C29  1  0.25080000  0.31400000  0.94150000  1
  C  C30  1  0.31440000  0.26720000  0.33700000  1
  C  C31  1  0.26720000  0.31440000  0.83700000  1
  C  C32  1  0.64240000  0.00640000  0.34310000  1
  C  C33  1  0.00640000  0.64240000  0.84310000  1
  C  C34  1  0.69050000  0.96390000  0.65890000  1
  C  C35  1  0.96390000  0.69050000  0.15890000  1
  C  C36  1  0.69120000  0.97980000  0.55390000  1
  C  C37  1  0.97980000  0.69120000  0.05390000  1
  C  C38  1  0.39950000  0.32670000  0.77880000  1
  C  C39  1  0.32670000  0.39950000  0.27880000  1
  C  C40  1  0.68390000  0.07730000  0.71550000  1
  C  C41  1  0.07730000  0.68390000  0.21550000  1
  C  C42  1  0.74340000  0.09060000  0.29910000  1
  C  C43  1  0.09060000  0.74340000  0.79910000  1
  C  C44  1  0.87540000  0.04040000  0.27390000  1
  C  C45  1  0.04040000  0.87540000  0.77390000  1
  C  C46  1  0.69550000  0.22250000  0.27410000  1
  C  C47  1  0.22250000  0.69550000  0.77410000  1
  H  H48  1  0.39400000  0.74240000  0.71020000  1
  H  H49  1  0.74240000  0.39400000  0.21020000  1
  H  H50  1  0.09050000  0.04950000  0.71160000  1
  H  H51  1  0.04950000  0.09050000  0.21160000  1
  H  H52  1  0.30760000  0.93760000  0.48180000  1
  H  H53  1  0.93760000  0.30760000  0.98180000  1
  H  H54  1  0.67760000  0.68340000  0.02550000  1
  H  H55  1  0.68340000  0.67760000  0.52550000  1
  H  H56  1  0.42590000  0.94170000  0.61410000  1
  H  H57  1  0.94170000  0.42590000  0.11410000  1
  H  H58  1  0.39930000  0.01210000  0.71140000  1
  H  H59  1  0.01210000  0.39930000  0.21140000  1
  H  H60  1  0.27580000  0.18820000  0.62950000  1
  H  H61  1  0.18820000  0.27580000  0.12950000  1
  H  H62  1  0.31210000  0.17210000  0.21900000  1
  H  H63  1  0.17210000  0.31210000  0.71900000  1
  H  H64  1  0.68790000  0.82790000  0.78100000  1
  H  H65  1  0.82790000  0.68790000  0.28100000  1
  H  H66  1  0.72420000  0.81180000  0.37050000  1
  H  H67  1  0.81180000  0.72420000  0.87050000  1
  H  H68  1  0.60070000  0.98790000  0.28860000  1
  H  H69  1  0.98790000  0.60070000  0.78860000  1
  H  H70  1  0.57410000  0.05830000  0.38590000  1
  H  H71  1  0.05830000  0.57410000  0.88590000  1
  H  H72  1  0.32240000  0.31660000  0.97450000  1
  H  H73  1  0.31660000  0.32240000  0.47450000  1
  H  H74  1  0.69240000  0.06240000  0.51820000  1
  H  H75  1  0.06240000  0.69240000  0.01820000  1
  H  H76  1  0.90950000  0.95050000  0.28840000  1
  H  H77  1  0.95050000  0.90950000  0.78840000  1
  H  H78  1  0.60600000  0.25760000  0.28980000  1
  H  H79  1  0.25760000  0.60600000  0.78980000  1
  N  N80  1  0.30690000  0.11870000  0.59930000  1
  N  N81  1  0.11870000  0.30690000  0.09930000  1
  N  N82  1  0.69310000  0.88130000  0.40070000  1
  N  N83  1  0.88130000  0.69310000  0.90070000  1
  O  O84  1  0.29816000  0.81256000  0.33333333  1
  O  O85  1  0.81256000  0.29816000  0.83340000  1
  O  O86  1  0.51067000  0.65927000  0.17030000  1
  O  O87  1  0.65927000  0.51067000  0.67030000  1
  O  O88  1  0.58780000  0.67500000  0.31340000  1
  O  O89  1  0.67500000  0.58780000  0.81340000  1
  O  O90  1  0.34090000  0.93830000  0.19110000  1
  O  O91  1  0.93830000  0.34090000  0.69110000  1
  O  O92  1  0.65910000  0.06170000  0.80890000  1
  O  O93  1  0.06170000  0.65910000  0.30890000  1
  O  O94  1  0.41220000  0.32500000  0.68660000  1
  O  O95  1  0.32500000  0.41220000  0.18660000  1
  O  O96  1  0.48933000  0.34073000  0.82970000  1
  O  O97  1  0.34073000  0.48933000  0.32970000  1
  O  O98  1  0.70184000  0.18744000  0.66660000  1
  O  O99  1  0.18744000  0.70184000  0.16660000  1
  Zn  Zn100  1  0.33665000  0.66335000  0.25000000  1
  Zn  Zn101  1  0.66335000  0.33665000  0.75000000  1
