# generated using pymatgen
data_ZnH10C11(N2O)2
_symmetry_space_group_name_H-M   'P 1'
_cell_length_a   9.45110000
_cell_length_b   9.80230000
_cell_length_c   19.82299359
_cell_angle_alpha   100.26967869
_cell_angle_beta   103.79137727
_cell_angle_gamma   90.00000000
_symmetry_Int_Tables_number   1
_chemical_formula_structural   ZnH10C11(N2O)2
_chemical_formula_sum   'Zn4 H40 C44 N16 O8'
_cell_volume   1753.19833861
_cell_formula_units_Z   4
loop_
 _symmetry_equiv_pos_site_id
 _symmetry_equiv_pos_as_xyz
  1  'x, y, z'
loop_
 _atom_site_type_symbol
 _atom_site_label
 _atom_site_symmetry_multiplicity
 _atom_site_fract_x
 _atom_site_fract_y
 _atom_site_fract_z
 _atom_site_occupancy
  C  C0  1  0.46300000  0.02300000  0.08580000  1
  C  C1  1  0.62280000  0.52300000  0.08580000  1
  C  C2  1  0.37230000  0.10060000  0.11780000  1
  C  C3  1  0.74550000  0.60060000  0.11780000  1
  C  C4  1  0.56020000  0.94100000  0.12180000  1
  C  C5  1  0.56160000  0.44100000  0.12180000  1
  C  C6  1  0.37580000  0.09760000  0.18860000  1
  C  C7  1  0.81280000  0.59760000  0.18860000  1
  C  C8  1  0.55820000  0.93490000  0.19200000  1
  C  C9  1  0.63380000  0.43490000  0.19200000  1
  C  C10  1  0.47080000  0.01880000  0.22480000  1
  C  C11  1  0.75400000  0.51880000  0.22480000  1
  C  C12  1  0.47610000  0.01660000  0.30200000  1
  C  C13  1  0.82590000  0.51660000  0.30200000  1
  C  C14  1  0.23990000  0.37360000  0.35320000  1
  C  C15  1  0.11330000  0.87360000  0.35320000  1
  C  C16  1  0.21550000  0.83560000  0.41540000  1
  C  C17  1  0.19990000  0.33560000  0.41540000  1
  C  C18  1  0.64570000  0.35620000  0.44640000  1
  C  C19  1  0.80070000  0.85620000  0.44640000  1
  C  C20  1  0.67991000  0.25830000  0.49782000  1
  C  C21  1  0.81791000  0.75830000  0.49782000  1
  C  C22  1  0.32009000  0.74170000  0.50218000  1
  C  C23  1  0.18209000  0.24170000  0.50218000  1
  C  C24  1  0.35430000  0.64380000  0.55360000  1
  C  C25  1  0.19930000  0.14380000  0.55360000  1
  C  C26  1  0.78450000  0.16440000  0.58460000  1
  C  C27  1  0.80010000  0.66440000  0.58460000  1
  C  C28  1  0.76010000  0.62640000  0.64680000  1
  C  C29  1  0.88670000  0.12640000  0.64680000  1
  C  C30  1  0.52390000  0.98340000  0.69800000  1
  C  C31  1  0.17410000  0.48340000  0.69800000  1
  C  C32  1  0.52920000  0.98120000  0.77520000  1
  C  C33  1  0.24600000  0.48120000  0.77520000  1
  C  C34  1  0.44180000  0.06510000  0.80800000  1
  C  C35  1  0.36620000  0.56510000  0.80800000  1
  C  C36  1  0.62420000  0.90240000  0.81140000  1
  C  C37  1  0.18720000  0.40240000  0.81140000  1
  C  C38  1  0.43980000  0.05900000  0.87820000  1
  C  C39  1  0.43840000  0.55900000  0.87820000  1
  C  C40  1  0.62770000  0.89940000  0.88220000  1
  C  C41  1  0.25450000  0.39940000  0.88220000  1
  C  C42  1  0.53700000  0.97700000  0.91420000  1
  C  C43  1  0.37720000  0.47700000  0.91420000  1
  H  H44  1  0.30740000  0.15620000  0.09320000  1
  H  H45  1  0.78580000  0.65620000  0.09320000  1
  H  H46  1  0.47430000  0.39060000  0.10020000  1
  H  H47  1  0.62590000  0.89060000  0.10020000  1
  H  H48  1  0.31210000  0.15040000  0.21060000  1
  H  H49  1  0.89850000  0.65040000  0.21060000  1
  H  H50  1  0.59930000  0.37370000  0.21600000  1
  H  H51  1  0.61670000  0.87370000  0.21600000  1
  H  H52  1  0.24400000  0.29100000  0.31960000  1
  H  H53  1  0.07560000  0.79100000  0.31960000  1
  H  H54  1  0.16820000  0.43240000  0.33180000  1
  H  H55  1  0.16360000  0.93240000  0.33180000  1
  H  H56  1  0.33360000  0.42200000  0.36780000  1
  H  H57  1  0.03420000  0.92200000  0.36780000  1
  H  H58  1  0.59100000  0.30680000  0.40140000  1
  H  H59  1  0.81040000  0.80680000  0.40140000  1
  H  H60  1  0.70610000  0.89470000  0.44100000  1
  H  H61  1  0.73490000  0.39470000  0.44100000  1
  H  H62  1  0.58930000  0.42970000  0.46380000  1
  H  H63  1  0.87450000  0.92970000  0.46380000  1
  H  H64  1  0.41070000  0.57030000  0.53620000  1
  H  H65  1  0.12550000  0.07030000  0.53620000  1
  H  H66  1  0.29390000  0.10530000  0.55900000  1
  H  H67  1  0.26510000  0.60530000  0.55900000  1
  H  H68  1  0.40900000  0.69320000  0.59860000  1
  H  H69  1  0.18960000  0.19320000  0.59860000  1
  H  H70  1  0.66640000  0.57800000  0.63220000  1
  H  H71  1  0.96580000  0.07800000  0.63220000  1
  H  H72  1  0.83180000  0.56760000  0.66820000  1
  H  H73  1  0.83640000  0.06760000  0.66820000  1
  H  H74  1  0.75600000  0.70900000  0.68040000  1
  H  H75  1  0.92440000  0.20900000  0.68040000  1
  H  H76  1  0.40070000  0.62630000  0.78400000  1
  H  H77  1  0.38330000  0.12630000  0.78400000  1
  H  H78  1  0.68790000  0.84960000  0.78940000  1
  H  H79  1  0.10150000  0.34960000  0.78940000  1
  H  H80  1  0.52570000  0.60940000  0.89980000  1
  H  H81  1  0.37410000  0.10940000  0.89980000  1
  H  H82  1  0.69260000  0.84380000  0.90680000  1
  H  H83  1  0.21420000  0.34380000  0.90680000  1
  N  N84  1  0.45310000  0.03160000  0.01300000  1
  N  N85  1  0.55990000  0.53160000  0.01300000  1
  N  N86  1  0.33970000  0.90880000  0.44740000  1
  N  N87  1  0.10770000  0.40880000  0.44740000  1
  N  N88  1  0.24989000  0.22980000  0.44758000  1
  N  N89  1  0.19769000  0.72980000  0.44758000  1
  N  N90  1  0.59383000  0.15360000  0.49686000  1
  N  N91  1  0.90303000  0.65360000  0.49686000  1
  N  N92  1  0.40617000  0.84640000  0.50314000  1
  N  N93  1  0.09697000  0.34640000  0.50314000  1
  N  N94  1  0.75011000  0.77020000  0.55242000  1
  N  N95  1  0.80231000  0.27020000  0.55242000  1
  N  N96  1  0.66030000  0.09120000  0.55260000  1
  N  N97  1  0.89230000  0.59120000  0.55260000  1
  N  N98  1  0.54690000  0.96840000  0.98700000  1
  N  N99  1  0.44010000  0.46840000  0.98700000  1
  O  O100  1  0.39140000  0.09150000  0.32960000  1
  O  O101  1  0.93820000  0.59150000  0.32960000  1
  O  O102  1  0.56100000  0.94920000  0.33400000  1
  O  O103  1  0.77300000  0.44920000  0.33400000  1
  O  O104  1  0.43900000  0.05080000  0.66600000  1
  O  O105  1  0.22700000  0.55080000  0.66600000  1
  O  O106  1  0.60860000  0.90850000  0.67040000  1
  O  O107  1  0.06180000  0.40850000  0.67040000  1
  Zn  Zn108  1  0.40206000  0.09078000  0.42800000  1
  Zn  Zn109  1  0.02594000  0.59078000  0.42800000  1
  Zn  Zn110  1  0.59794000  0.90922000  0.57200000  1
  Zn  Zn111  1  0.97406000  0.40922000  0.57200000  1
