# generated using pymatgen
data_Co2H31C39(N4O3)2
_symmetry_space_group_name_H-M   'P 1'
_cell_length_a   11.79700000
_cell_length_b   17.88400000
_cell_length_c   20.24300000
_cell_angle_alpha   111.77000000
_cell_angle_beta   90.00000000
_cell_angle_gamma   90.00000000
_symmetry_Int_Tables_number   1
_chemical_formula_structural   Co2H31C39(N4O3)2
_chemical_formula_sum   'Co8 H124 C156 N32 O24'
_cell_volume   3966.22435771
_cell_formula_units_Z   4
loop_
 _symmetry_equiv_pos_site_id
 _symmetry_equiv_pos_as_xyz
  1  'x, y, z'
loop_
 _atom_site_type_symbol
 _atom_site_label
 _atom_site_symmetry_multiplicity
 _atom_site_fract_x
 _atom_site_fract_y
 _atom_site_fract_z
 _atom_site_occupancy
  Co  Co0  1  0.32728000  0.51216000  0.25097000  1
  Co  Co1  1  0.17272000  0.51216000  0.75097000  1
  Co  Co2  1  0.39205000  0.50435000  0.55348000  1
  Co  Co3  1  0.10795000  0.50435000  0.05348000  1
  Co  Co4  1  0.89205000  0.49565000  0.94652000  1
  Co  Co5  1  0.60795000  0.49565000  0.44652000  1
  Co  Co6  1  0.82728000  0.48784000  0.24903000  1
  Co  Co7  1  0.67272000  0.48784000  0.74903000  1
  H  H8  1  0.47360000  0.99840000  0.35210000  1
  H  H9  1  0.02640000  0.99840000  0.85210000  1
  H  H10  1  0.91520000  0.99580000  0.34080000  1
  H  H11  1  0.58480000  0.99580000  0.84080000  1
  H  H12  1  0.82540000  0.98630000  0.66666667  1
  H  H13  1  0.75130000  0.98630000  0.99900000  1
  H  H14  1  0.74870000  0.98630000  0.49900000  1
  H  H15  1  0.67460000  0.98630000  0.16670000  1
  H  H16  1  0.26520000  0.91050000  0.51880000  1
  H  H17  1  0.23480000  0.91050000  0.01880000  1
  H  H18  1  0.33010000  0.90240000  0.86360000  1
  H  H19  1  0.16990000  0.90240000  0.36360000  1
  H  H20  1  0.39110000  0.90140000  0.17700000  1
  H  H21  1  0.10890000  0.90140000  0.67700000  1
  H  H22  1  0.48230000  0.89500000  0.37530000  1
  H  H23  1  0.01770000  0.89500000  0.87530000  1
  H  H24  1  0.83230000  0.88930000  0.70380000  1
  H  H25  1  0.66770000  0.88930000  0.20380000  1
  H  H26  1  0.96210000  0.88540000  0.17160000  1
  H  H27  1  0.53790000  0.88540000  0.67160000  1
  H  H28  1  0.93570000  0.88180000  0.36660000  1
  H  H29  1  0.56430000  0.88180000  0.86660000  1
  H  H30  1  0.76340000  0.87190000  0.52280000  1
  H  H31  1  0.73660000  0.87190000  0.02280000  1
  H  H32  1  0.31710000  0.79630000  0.90040000  1
  H  H33  1  0.18290000  0.79630000  0.40040000  1
  H  H34  1  0.27410000  0.79530000  0.54340000  1
  H  H35  1  0.22590000  0.79530000  0.04340000  1
  H  H36  1  0.39180000  0.79190000  0.20930000  1
  H  H37  1  0.10820000  0.79190000  0.70930000  1
  H  H38  1  0.47650000  0.79050000  0.72580000  1
  H  H39  1  0.02350000  0.79050000  0.22580000  1
  H  H40  1  0.77040000  0.78170000  0.07620000  1
  H  H41  1  0.72960000  0.78170000  0.57620000  1
  H  H42  1  0.49620000  0.78010000  0.40070000  1
  H  H43  1  0.00380000  0.78010000  0.90070000  1
  H  H44  1  0.92720000  0.77950000  0.40740000  1
  H  H45  1  0.57280000  0.77950000  0.90740000  1
  H  H46  1  0.81340000  0.77540000  0.73010000  1
  H  H47  1  0.68660000  0.77540000  0.23010000  1
  H  H48  1  0.36080000  0.68090000  0.22730000  1
  H  H49  1  0.13920000  0.68090000  0.72730000  1
  H  H50  1  0.36670000  0.66880000  0.53190000  1
  H  H51  1  0.13330000  0.66880000  0.03190000  1
  H  H52  1  0.29430000  0.65710000  0.88850000  1
  H  H53  1  0.20570000  0.65710000  0.38850000  1
  H  H54  1  0.76090000  0.65520000  0.23080000  1
  H  H55  1  0.73910000  0.65520000  0.73080000  1
  H  H56  1  0.93770000  0.65440000  0.90220000  1
  H  H57  1  0.56230000  0.65440000  0.40220000  1
  H  H58  1  0.46750000  0.64830000  0.70810000  1
  H  H59  1  0.03250000  0.64830000  0.20810000  1
  H  H60  1  0.78540000  0.64370000  0.06940000  1
  H  H61  1  0.71460000  0.64370000  0.56940000  1
  H  H62  1  0.93790000  0.63730000  0.38750000  1
  H  H63  1  0.56210000  0.63730000  0.88750000  1
  H  H64  1  0.42590000  0.51900000  0.73430000  1
  H  H65  1  0.07410000  0.51900000  0.23430000  1
  H  H66  1  0.39740000  0.51850000  0.10830000  1
  H  H67  1  0.10260000  0.51850000  0.60830000  1
  H  H68  1  0.28980000  0.50930000  0.40560000  1
  H  H69  1  0.21020000  0.50930000  0.90560000  1
  H  H70  1  0.78980000  0.49070000  0.09440000  1
  H  H71  1  0.71020000  0.49070000  0.59440000  1
  H  H72  1  0.89740000  0.48150000  0.39170000  1
  H  H73  1  0.60260000  0.48150000  0.89170000  1
  H  H74  1  0.92590000  0.48100000  0.76570000  1
  H  H75  1  0.57410000  0.48100000  0.26570000  1
  H  H76  1  0.43790000  0.36270000  0.11250000  1
  H  H77  1  0.06210000  0.36270000  0.61250000  1
  H  H78  1  0.28540000  0.35630000  0.43060000  1
  H  H79  1  0.21460000  0.35630000  0.93060000  1
  H  H80  1  0.96750000  0.35170000  0.79190000  1
  H  H81  1  0.53250000  0.35170000  0.29190000  1
  H  H82  1  0.43770000  0.34560000  0.59780000  1
  H  H83  1  0.06230000  0.34560000  0.09780000  1
  H  H84  1  0.26090000  0.34480000  0.26920000  1
  H  H85  1  0.23910000  0.34480000  0.76920000  1
  H  H86  1  0.79430000  0.34290000  0.61150000  1
  H  H87  1  0.70570000  0.34290000  0.11150000  1
  H  H88  1  0.86670000  0.33120000  0.96810000  1
  H  H89  1  0.63330000  0.33120000  0.46810000  1
  H  H90  1  0.86080000  0.31910000  0.27270000  1
  H  H91  1  0.63920000  0.31910000  0.77270000  1
  H  H92  1  0.31340000  0.22460000  0.76990000  1
  H  H93  1  0.18660000  0.22460000  0.26990000  1
  H  H94  1  0.42720000  0.22050000  0.09260000  1
  H  H95  1  0.07280000  0.22050000  0.59260000  1
  H  H96  1  0.99620000  0.21990000  0.09930000  1
  H  H97  1  0.50380000  0.21990000  0.59930000  1
  H  H98  1  0.27040000  0.21830000  0.42380000  1
  H  H99  1  0.22960000  0.21830000  0.92380000  1
  H  H100  1  0.97650000  0.20950000  0.77420000  1
  H  H101  1  0.52350000  0.20950000  0.27420000  1
  H  H102  1  0.89180000  0.20810000  0.29070000  1
  H  H103  1  0.60820000  0.20810000  0.79070000  1
  H  H104  1  0.77410000  0.20470000  0.95660000  1
  H  H105  1  0.72590000  0.20470000  0.45660000  1
  H  H106  1  0.81710000  0.20370000  0.59960000  1
  H  H107  1  0.68290000  0.20370000  0.09960000  1
  H  H108  1  0.26340000  0.12810000  0.97720000  1
  H  H109  1  0.23660000  0.12810000  0.47720000  1
  H  H110  1  0.43570000  0.11820000  0.13340000  1
  H  H111  1  0.06430000  0.11820000  0.63340000  1
  H  H112  1  0.46210000  0.11460000  0.32840000  1
  H  H113  1  0.03790000  0.11460000  0.82840000  1
  H  H114  1  0.33230000  0.11070000  0.79620000  1
  H  H115  1  0.16770000  0.11070000  0.29620000  1
  H  H116  1  0.98230000  0.10500000  0.12470000  1
  H  H117  1  0.51770000  0.10500000  0.62470000  1
  H  H118  1  0.89110000  0.09860000  0.32300000  1
  H  H119  1  0.60890000  0.09860000  0.82300000  1
  H  H120  1  0.83010000  0.09760000  0.63640000  1
  H  H121  1  0.66990000  0.09760000  0.13640000  1
  H  H122  1  0.76520000  0.08950000  0.98120000  1
  H  H123  1  0.73480000  0.08950000  0.48120000  1
  H  H124  1  0.32540000  0.01370000  0.83330000  1
  H  H125  1  0.25130000  0.01370000  0.50100000  1
  H  H126  1  0.24870000  0.01370000  0.00100000  1
  H  H127  1  0.17460000  0.01370000  0.33333333  1
  H  H128  1  0.41520000  0.00420000  0.15920000  1
  H  H129  1  0.08480000  0.00420000  0.65920000  1
  H  H130  1  0.97360000  0.00160000  0.14790000  1
  H  H131  1  0.52640000  0.00160000  0.64790000  1
  C  C132  1  0.28440000  0.97180000  0.25170000  1
  C  C133  1  0.21560000  0.97180000  0.75170000  1
  C  C134  1  0.39480000  0.96960000  0.58030000  1
  C  C135  1  0.10520000  0.96960000  0.08030000  1
  C  C136  1  0.28180000  0.96900000  0.80750000  1
  C  C137  1  0.21820000  0.96900000  0.30750000  1
  C  C138  1  0.47560000  0.95990000  0.62610000  1
  C  C139  1  0.02440000  0.95990000  0.12610000  1
  C  C140  1  0.79040000  0.95550000  0.26800000  1
  C  C141  1  0.70960000  0.95550000  0.76800000  1
  C  C142  1  0.88680000  0.95510000  0.93500000  1
  C  C143  1  0.61320000  0.95510000  0.43500000  1
  C  C144  1  0.86960000  0.95130000  0.31770000  1
  C  C145  1  0.63040000  0.95130000  0.81770000  1
  C  C146  1  0.80330000  0.94500000  0.97870000  1
  C  C147  1  0.69670000  0.94500000  0.47870000  1
  C  C148  1  0.32060000  0.90610000  0.54980000  1
  C  C149  1  0.17940000  0.90610000  0.04980000  1
  C  C150  1  0.34700000  0.90250000  0.21540000  1
  C  C151  1  0.15300000  0.90250000  0.71540000  1
  C  C152  1  0.28480000  0.90220000  0.82600000  1
  C  C153  1  0.21520000  0.90220000  0.32600000  1
  C  C154  1  0.96080000  0.89120000  0.90580000  1
  C  C155  1  0.53920000  0.89120000  0.40580000  1
  C  C156  1  0.48290000  0.89020000  0.64040000  1
  C  C157  1  0.01710000  0.89020000  0.14040000  1
  C  C158  1  0.77750000  0.88810000  0.73640000  1
  C  C159  1  0.72250000  0.88810000  0.23640000  1
  C  C160  1  0.88210000  0.88300000  0.33333333  1
  C  C161  1  0.61790000  0.88300000  0.83330000  1
  C  C162  1  0.79420000  0.87640000  0.99310000  1
  C  C163  1  0.70580000  0.87640000  0.49310000  1
  C  C164  1  0.32620000  0.83650000  0.56390000  1
  C  C165  1  0.17380000  0.83650000  0.06390000  1
  C  C166  1  0.34660000  0.83610000  0.23380000  1
  C  C167  1  0.15340000  0.83610000  0.73380000  1
  C  C168  1  0.27900000  0.83520000  0.28880000  1
  C  C169  1  0.22100000  0.83520000  0.78880000  1
  C  C170  1  0.40890000  0.82830000  0.60850000  1
  C  C171  1  0.09110000  0.82830000  0.10850000  1
  C  C172  1  0.95240000  0.82180000  0.92060000  1
  C  C173  1  0.54760000  0.82180000  0.42060000  1
  C  C174  1  0.76630000  0.81950000  0.75180000  1
  C  C175  1  0.73370000  0.81950000  0.25180000  1
  C  C176  1  0.81510000  0.81660000  0.29960000  1
  C  C177  1  0.68490000  0.81660000  0.79960000  1
  C  C178  1  0.86890000  0.81450000  0.96430000  1
  C  C179  1  0.63110000  0.81450000  0.46430000  1
  C  C180  1  0.27880000  0.75640000  0.86400000  1
  C  C181  1  0.22120000  0.75640000  0.36400000  1
  C  C182  1  0.45260000  0.74880000  0.68480000  1
  C  C183  1  0.04740000  0.74880000  0.18480000  1
  C  C184  1  0.80600000  0.73950000  0.04030000  1
  C  C185  1  0.69400000  0.73950000  0.54030000  1
  C  C186  1  0.89570000  0.73750000  0.36940000  1
  C  C187  1  0.60430000  0.73750000  0.86940000  1
  C  C188  1  0.31900000  0.69180000  0.26880000  1
  C  C189  1  0.18100000  0.69180000  0.76880000  1
  C  C190  1  0.39240000  0.68120000  0.57810000  1
  C  C191  1  0.10760000  0.68120000  0.07810000  1
  C  C192  1  0.26570000  0.67930000  0.85710000  1
  C  C193  1  0.23430000  0.67930000  0.35710000  1
  C  C194  1  0.44810000  0.67020000  0.67450000  1
  C  C195  1  0.05190000  0.67020000  0.17450000  1
  C  C196  1  0.89800000  0.66880000  0.94490000  1
  C  C197  1  0.60200000  0.66880000  0.44490000  1
  C  C198  1  0.80410000  0.66820000  0.27190000  1
  C  C199  1  0.69590000  0.66820000  0.77190000  1
  C  C200  1  0.81460000  0.66330000  0.03630000  1
  C  C201  1  0.68540000  0.66330000  0.53630000  1
  C  C202  1  0.90090000  0.65900000  0.35810000  1
  C  C203  1  0.59910000  0.65900000  0.85810000  1
  C  C204  1  0.31920000  0.51600000  0.10230000  1
  C  C205  1  0.18080000  0.51600000  0.60230000  1
  C  C206  1  0.36820000  0.50970000  0.40120000  1
  C  C207  1  0.13180000  0.50970000  0.90120000  1
  C  C208  1  0.92140000  0.50540000  0.73240000  1
  C  C209  1  0.57860000  0.50540000  0.23240000  1
  C  C210  1  0.42140000  0.49460000  0.76760000  1
  C  C211  1  0.07860000  0.49460000  0.26760000  1
  C  C212  1  0.86820000  0.49030000  0.09880000  1
  C  C213  1  0.63180000  0.49030000  0.59880000  1
  C  C214  1  0.81920000  0.48400000  0.39770000  1
  C  C215  1  0.68080000  0.48400000  0.89770000  1
  C  C216  1  0.40090000  0.34100000  0.14190000  1
  C  C217  1  0.09910000  0.34100000  0.64190000  1
  C  C218  1  0.31460000  0.33670000  0.46370000  1
  C  C219  1  0.18540000  0.33670000  0.96370000  1
  C  C220  1  0.30410000  0.33180000  0.22810000  1
  C  C221  1  0.19590000  0.33180000  0.72810000  1
  C  C222  1  0.39800000  0.33120000  0.55510000  1
  C  C223  1  0.10200000  0.33120000  0.05510000  1
  C  C224  1  0.94810000  0.32980000  0.82550000  1
  C  C225  1  0.55190000  0.32980000  0.32550000  1
  C  C226  1  0.76570000  0.32070000  0.64290000  1
  C  C227  1  0.73430000  0.32070000  0.14290000  1
  C  C228  1  0.89240000  0.31880000  0.92190000  1
  C  C229  1  0.60760000  0.31880000  0.42190000  1
  C  C230  1  0.81900000  0.30820000  0.23120000  1
  C  C231  1  0.68100000  0.30820000  0.73120000  1
  C  C232  1  0.39570000  0.26250000  0.13060000  1
  C  C233  1  0.10430000  0.26250000  0.63060000  1
  C  C234  1  0.30600000  0.26050000  0.45970000  1
  C  C235  1  0.19400000  0.26050000  0.95970000  1
  C  C236  1  0.95260000  0.25120000  0.81520000  1
  C  C237  1  0.54740000  0.25120000  0.31520000  1
  C  C238  1  0.77880000  0.24360000  0.63600000  1
  C  C239  1  0.72120000  0.24360000  0.13600000  1
  C  C240  1  0.36890000  0.18550000  0.53570000  1
  C  C241  1  0.13110000  0.18550000  0.03570000  1
  C  C242  1  0.31510000  0.18340000  0.20040000  1
  C  C243  1  0.18490000  0.18340000  0.70040000  1
  C  C244  1  0.26630000  0.18050000  0.74820000  1
  C  C245  1  0.23370000  0.18050000  0.24820000  1
  C  C246  1  0.45240000  0.17820000  0.57940000  1
  C  C247  1  0.04760000  0.17820000  0.07940000  1
  C  C248  1  0.90890000  0.17170000  0.89150000  1
  C  C249  1  0.59110000  0.17170000  0.39150000  1
  C  C250  1  0.77900000  0.16480000  0.21120000  1
  C  C251  1  0.72100000  0.16480000  0.71120000  1
  C  C252  1  0.84660000  0.16390000  0.26620000  1
  C  C253  1  0.65340000  0.16390000  0.76620000  1
  C  C254  1  0.82620000  0.16350000  0.93610000  1
  C  C255  1  0.67380000  0.16350000  0.43610000  1
  C  C256  1  0.29420000  0.12360000  0.50690000  1
  C  C257  1  0.20580000  0.12360000  0.00690000  1
  C  C258  1  0.38210000  0.11700000  0.16670000  1
  C  C259  1  0.11790000  0.11700000  0.66666667  1
  C  C260  1  0.27750000  0.11190000  0.76360000  1
  C  C261  1  0.22250000  0.11190000  0.26360000  1
  C  C262  1  0.98290000  0.10980000  0.85960000  1
  C  C263  1  0.51710000  0.10980000  0.35960000  1
  C  C264  1  0.46080000  0.10880000  0.59420000  1
  C  C265  1  0.03920000  0.10880000  0.09420000  1
  C  C266  1  0.78480000  0.09780000  0.67400000  1
  C  C267  1  0.71520000  0.09780000  0.17400000  1
  C  C268  1  0.84700000  0.09750000  0.28460000  1
  C  C269  1  0.65300000  0.09750000  0.78460000  1
  C  C270  1  0.82060000  0.09390000  0.95020000  1
  C  C271  1  0.67940000  0.09390000  0.45020000  1
  C  C272  1  0.30330000  0.05500000  0.52130000  1
  C  C273  1  0.19670000  0.05500000  0.02130000  1
  C  C274  1  0.36960000  0.04870000  0.18230000  1
  C  C275  1  0.13040000  0.04870000  0.68230000  1
  C  C276  1  0.38680000  0.04490000  0.56500000  1
  C  C277  1  0.11320000  0.04490000  0.06500000  1
  C  C278  1  0.29040000  0.04450000  0.23200000  1
  C  C279  1  0.20960000  0.04450000  0.73200000  1
  C  C280  1  0.97560000  0.04010000  0.87390000  1
  C  C281  1  0.52440000  0.04010000  0.37390000  1
  C  C282  1  0.78180000  0.03100000  0.69250000  1
  C  C283  1  0.71820000  0.03100000  0.19250000  1
  C  C284  1  0.89480000  0.03040000  0.91970000  1
  C  C285  1  0.60520000  0.03040000  0.41970000  1
  C  C286  1  0.78440000  0.02820000  0.24830000  1
  C  C287  1  0.71560000  0.02820000  0.74830000  1
  N  N288  1  0.27490000  0.76510000  0.30720000  1
  N  N289  1  0.22510000  0.76510000  0.80720000  1
  N  N290  1  0.41530000  0.75580000  0.62340000  1
  N  N291  1  0.08470000  0.75580000  0.12340000  1
  N  N292  1  0.83440000  0.74420000  0.31370000  1
  N  N293  1  0.66560000  0.74420000  0.81370000  1
  N  N294  1  0.85940000  0.74360000  0.98180000  1
  N  N295  1  0.64060000  0.74360000  0.48180000  1
  N  N296  1  0.29600000  0.63780000  0.29710000  1
  N  N297  1  0.20400000  0.63780000  0.79710000  1
  N  N298  1  0.41050000  0.62750000  0.60710000  1
  N  N299  1  0.08950000  0.62750000  0.10710000  1
  N  N300  1  0.87280000  0.61880000  0.97640000  1
  N  N301  1  0.62720000  0.61880000  0.47640000  1
  N  N302  1  0.84390000  0.61510000  0.29700000  1
  N  N303  1  0.65610000  0.61510000  0.79700000  1
  N  N304  1  0.34390000  0.38490000  0.20300000  1
  N  N305  1  0.15610000  0.38490000  0.70300000  1
  N  N306  1  0.37280000  0.38120000  0.52360000  1
  N  N307  1  0.12720000  0.38120000  0.02360000  1
  N  N308  1  0.91050000  0.37250000  0.89290000  1
  N  N309  1  0.58950000  0.37250000  0.39290000  1
  N  N310  1  0.79600000  0.36220000  0.20290000  1
  N  N311  1  0.70400000  0.36220000  0.70290000  1
  N  N312  1  0.35940000  0.25640000  0.51820000  1
  N  N313  1  0.14060000  0.25640000  0.01820000  1
  N  N314  1  0.33440000  0.25580000  0.18630000  1
  N  N315  1  0.16560000  0.25580000  0.68630000  1
  N  N316  1  0.91530000  0.24420000  0.87660000  1
  N  N317  1  0.58470000  0.24420000  0.37660000  1
  N  N318  1  0.77490000  0.23490000  0.19280000  1
  N  N319  1  0.72510000  0.23490000  0.69280000  1
  O  O320  1  0.48860000  0.53050000  0.21652000  1
  O  O321  1  0.01140000  0.53050000  0.71652000  1
  O  O322  1  0.28010000  0.51610000  0.04508000  1
  O  O323  1  0.21990000  0.51610000  0.54508000  1
  O  O324  1  0.25970000  0.51280000  0.15190000  1
  O  O325  1  0.24030000  0.51280000  0.65190000  1
  O  O326  1  0.40850000  0.51260000  0.34623000  1
  O  O327  1  0.09150000  0.51260000  0.84623000  1
  O  O328  1  0.82630000  0.50960000  0.70834000  1
  O  O329  1  0.67370000  0.50960000  0.20834000  1
  O  O330  1  0.42860000  0.50710000  0.45231000  1
  O  O331  1  0.07140000  0.50710000  0.95231000  1
  O  O332  1  0.92860000  0.49290000  0.04769000  1
  O  O333  1  0.57140000  0.49290000  0.54769000  1
  O  O334  1  0.32630000  0.49040000  0.79166000  1
  O  O335  1  0.17370000  0.49040000  0.29166000  1
  O  O336  1  0.90850000  0.48740000  0.15377000  1
  O  O337  1  0.59150000  0.48740000  0.65377000  1
  O  O338  1  0.75970000  0.48720000  0.34810000  1
  O  O339  1  0.74030000  0.48720000  0.84810000  1
  O  O340  1  0.78010000  0.48390000  0.45492000  1
  O  O341  1  0.71990000  0.48390000  0.95492000  1
  O  O342  1  0.98860000  0.46950000  0.28348000  1
  O  O343  1  0.51140000  0.46950000  0.78348000  1
