# generated using pymatgen
data_DyH12C21(NO2)3
_symmetry_space_group_name_H-M   'P 1'
_cell_length_a   8.70820000
_cell_length_b   16.20780000
_cell_length_c   20.87750000
_cell_angle_alpha   94.74800000
_cell_angle_beta   90.00000000
_cell_angle_gamma   90.00000000
_symmetry_Int_Tables_number   1
_chemical_formula_structural   DyH12C21(NO2)3
_chemical_formula_sum   'Dy4 H48 C84 N12 O24'
_cell_volume   2936.55449723
_cell_formula_units_Z   4
loop_
 _symmetry_equiv_pos_site_id
 _symmetry_equiv_pos_as_xyz
  1  'x, y, z'
loop_
 _atom_site_type_symbol
 _atom_site_label
 _atom_site_symmetry_multiplicity
 _atom_site_fract_x
 _atom_site_fract_y
 _atom_site_fract_z
 _atom_site_occupancy
  Dy  Dy0  1  0.77775000  0.75728000  0.28731000  1
  Dy  Dy1  1  0.27775000  0.74272000  0.21269000  1
  Dy  Dy2  1  0.72225000  0.25728000  0.78731000  1
  Dy  Dy3  1  0.22225000  0.24272000  0.71269000  1
  H  H4  1  0.88540000  0.99920000  0.35460000  1
  H  H5  1  0.52130000  0.98900000  0.40790000  1
  H  H6  1  0.73660000  0.98700000  0.75260000  1
  H  H7  1  0.78070000  0.96440000  0.22930000  1
  H  H8  1  0.40480000  0.96140000  0.11760000  1
  H  H9  1  0.65980000  0.94430000  0.52580000  1
  H  H10  1  0.20990000  0.89260000  0.77070000  1
  H  H11  1  0.58350000  0.89220000  0.87780000  1
  H  H12  1  0.04720000  0.86420000  0.43660000  1
  H  H13  1  0.11210000  0.85800000  0.62220000  1
  H  H14  1  0.73560000  0.84200000  0.73020000  1
  H  H15  1  0.22820000  0.79920000  0.36990000  1
  H  H16  1  0.72820000  0.70080000  0.13010000  1
  H  H17  1  0.23560000  0.65800000  0.76980000  1
  H  H18  1  0.61210000  0.64200000  0.87780000  1
  H  H19  1  0.54720000  0.63580000  0.06340000  1
  H  H20  1  0.08350000  0.60780000  0.62220000  1
  H  H21  1  0.70990000  0.60740000  0.72930000  1
  H  H22  1  0.15980000  0.55570000  0.97420000  1
  H  H23  1  0.90480000  0.53860000  0.38240000  1
  H  H24  1  0.28070000  0.53560000  0.27070000  1
  H  H25  1  0.23660000  0.51300000  0.74740000  1
  H  H26  1  0.02130000  0.51100000  0.09210000  1
  H  H27  1  0.38540000  0.50080000  0.14540000  1
  H  H28  1  0.61460000  0.49920000  0.85460000  1
  H  H29  1  0.97870000  0.48900000  0.90790000  1
  H  H30  1  0.76340000  0.48700000  0.25260000  1
  H  H31  1  0.71930000  0.46440000  0.72930000  1
  H  H32  1  0.09520000  0.46140000  0.61760000  1
  H  H33  1  0.84020000  0.44430000  0.02580000  1
  H  H34  1  0.29010000  0.39260000  0.27070000  1
  H  H35  1  0.91650000  0.39220000  0.37780000  1
  H  H36  1  0.45280000  0.36420000  0.93660000  1
  H  H37  1  0.38790000  0.35800000  0.12220000  1
  H  H38  1  0.76440000  0.34200000  0.23020000  1
  H  H39  1  0.27180000  0.29920000  0.86990000  1
  H  H40  1  0.77180000  0.20080000  0.63010000  1
  H  H41  1  0.26440000  0.15800000  0.26980000  1
  H  H42  1  0.88790000  0.14200000  0.37780000  1
  H  H43  1  0.95280000  0.13580000  0.56340000  1
  H  H44  1  0.41650000  0.10780000  0.12220000  1
  H  H45  1  0.79010000  0.10740000  0.22930000  1
  H  H46  1  0.34020000  0.05570000  0.47420000  1
  H  H47  1  0.59520000  0.03860000  0.88240000  1
  H  H48  1  0.21930000  0.03560000  0.77070000  1
  H  H49  1  0.26340000  0.01300000  0.24740000  1
  H  H50  1  0.47870000  0.01100000  0.59210000  1
  H  H51  1  0.11460000  0.00080000  0.64540000  1
  C  C52  1  0.68240000  0.99550000  0.54730000  1
  C  C53  1  0.07400000  0.99220000  0.29740000  1
  C  C54  1  0.70670000  0.99210000  0.20710000  1
  C  C55  1  0.48190000  0.99020000  0.14080000  1
  C  C56  1  0.03880000  0.96910000  0.66290000  1
  C  C57  1  0.17360000  0.96780000  0.46130000  1
  C  C58  1  0.42530000  0.96510000  0.41280000  1
  C  C59  1  0.81330000  0.96140000  0.72710000  1
  C  C60  1  0.59270000  0.94840000  0.17390000  1
  C  C61  1  0.28860000  0.92160000  0.79260000  1
  C  C62  1  0.51000000  0.92140000  0.85660000  1
  C  C63  1  0.06610000  0.89990000  0.28070000  1
  C  C64  1  0.14100000  0.88970000  0.43020000  1
  C  C65  1  0.38960000  0.88900000  0.37950000  1
  C  C66  1  0.03850000  0.88350000  0.64940000  1
  C  C67  1  0.39520000  0.87970000  0.82330000  1
  C  C68  1  0.81250000  0.87420000  0.71400000  1
  C  C69  1  0.58270000  0.85670000  0.17780000  1
  C  C70  1  0.24910000  0.85120000  0.39020000  1
  C  C71  1  0.50520000  0.84720000  0.33460000  1
  C  C72  1  0.92990000  0.83820000  0.67620000  1
  C  C73  1  0.42990000  0.66180000  0.82380000  1
  C  C74  1  0.00520000  0.65280000  0.16540000  1
  C  C75  1  0.74910000  0.64880000  0.10980000  1
  C  C76  1  0.08270000  0.64330000  0.32220000  1
  C  C77  1  0.31250000  0.62580000  0.78600000  1
  C  C78  1  0.89520000  0.62030000  0.67670000  1
  C  C79  1  0.53850000  0.61650000  0.85060000  1
  C  C80  1  0.88960000  0.61100000  0.12050000  1
  C  C81  1  0.64100000  0.61030000  0.06980000  1
  C  C82  1  0.56610000  0.60010000  0.21930000  1
  C  C83  1  0.01000000  0.57860000  0.64340000  1
  C  C84  1  0.78860000  0.57840000  0.70740000  1
  C  C85  1  0.09270000  0.55160000  0.32610000  1
  C  C86  1  0.31330000  0.53860000  0.77290000  1
  C  C87  1  0.92530000  0.53490000  0.08720000  1
  C  C88  1  0.67360000  0.53220000  0.03870000  1
  C  C89  1  0.53880000  0.53090000  0.83710000  1
  C  C90  1  0.98190000  0.50980000  0.35920000  1
  C  C91  1  0.20670000  0.50790000  0.29290000  1
  C  C92  1  0.57400000  0.50780000  0.20260000  1
  C  C93  1  0.18240000  0.50450000  0.95270000  1
  C  C94  1  0.81760000  0.49550000  0.04730000  1
  C  C95  1  0.42600000  0.49220000  0.79740000  1
  C  C96  1  0.79330000  0.49210000  0.70710000  1
  C  C97  1  0.01810000  0.49020000  0.64080000  1
  C  C98  1  0.46120000  0.46910000  0.16290000  1
  C  C99  1  0.32640000  0.46780000  0.96130000  1
  C  C100  1  0.07470000  0.46510000  0.91280000  1
  C  C101  1  0.68670000  0.46140000  0.22710000  1
  C  C102  1  0.90730000  0.44840000  0.67390000  1
  C  C103  1  0.21140000  0.42160000  0.29260000  1
  C  C104  1  0.99000000  0.42140000  0.35660000  1
  C  C105  1  0.43390000  0.39990000  0.78070000  1
  C  C106  1  0.35900000  0.38970000  0.93020000  1
  C  C107  1  0.11040000  0.38900000  0.87950000  1
  C  C108  1  0.46150000  0.38350000  0.14940000  1
  C  C109  1  0.10480000  0.37970000  0.32330000  1
  C  C110  1  0.68750000  0.37420000  0.21400000  1
  C  C111  1  0.91730000  0.35670000  0.67780000  1
  C  C112  1  0.25090000  0.35120000  0.89020000  1
  C  C113  1  0.99480000  0.34720000  0.83460000  1
  C  C114  1  0.57010000  0.33820000  0.17620000  1
  C  C115  1  0.07010000  0.16180000  0.32380000  1
  C  C116  1  0.49480000  0.15280000  0.66540000  1
  C  C117  1  0.75090000  0.14880000  0.60980000  1
  C  C118  1  0.41730000  0.14330000  0.82220000  1
  C  C119  1  0.18750000  0.12580000  0.28600000  1
  C  C120  1  0.60480000  0.12030000  0.17670000  1
  C  C121  1  0.96150000  0.11650000  0.35060000  1
  C  C122  1  0.61040000  0.11100000  0.62050000  1
  C  C123  1  0.85900000  0.11030000  0.56980000  1
  C  C124  1  0.93390000  0.10010000  0.71930000  1
  C  C125  1  0.49000000  0.07860000  0.14340000  1
  C  C126  1  0.71140000  0.07840000  0.20740000  1
  C  C127  1  0.40730000  0.05160000  0.82610000  1
  C  C128  1  0.18670000  0.03860000  0.27290000  1
  C  C129  1  0.57470000  0.03490000  0.58720000  1
  C  C130  1  0.82640000  0.03220000  0.53870000  1
  C  C131  1  0.96120000  0.03090000  0.33710000  1
  C  C132  1  0.51810000  0.00980000  0.85920000  1
  C  C133  1  0.29330000  0.00790000  0.79290000  1
  C  C134  1  0.92600000  0.00780000  0.70260000  1
  C  C135  1  0.31760000  0.00450000  0.45270000  1
  N  N136  1  0.93420000  0.98520000  0.49950000  1
  N  N137  1  0.36090000  0.78380000  0.81090000  1
  N  N138  1  0.45800000  0.75570000  0.84110000  1
  N  N139  1  0.95800000  0.74430000  0.65890000  1
  N  N140  1  0.86090000  0.71620000  0.68910000  1
  N  N141  1  0.43420000  0.51480000  0.00050000  1
  N  N142  1  0.56580000  0.48520000  0.99950000  1
  N  N143  1  0.13910000  0.28380000  0.31090000  1
  N  N144  1  0.04200000  0.25570000  0.34110000  1
  N  N145  1  0.54200000  0.24430000  0.15890000  1
  N  N146  1  0.63910000  0.21620000  0.18910000  1
  N  N147  1  0.06580000  0.01480000  0.50050000  1
  O  O148  1  0.64190000  0.87240000  0.33730000  1
  O  O149  1  0.17740000  0.86740000  0.24880000  1
  O  O150  1  0.95270000  0.86210000  0.29940000  1
  O  O151  1  0.69850000  0.82150000  0.19900000  1
  O  O152  1  0.46040000  0.82070000  0.16110000  1
  O  O153  1  0.46450000  0.78710000  0.29460000  1
  O  O154  1  0.96450000  0.71290000  0.20540000  1
  O  O155  1  0.96040000  0.67930000  0.33890000  1
  O  O156  1  0.19850000  0.67850000  0.30100000  1
  O  O157  1  0.45270000  0.63790000  0.20060000  1
  O  O158  1  0.67740000  0.63260000  0.25120000  1
  O  O159  1  0.14190000  0.62760000  0.16270000  1
  O  O160  1  0.85810000  0.37240000  0.83730000  1
  O  O161  1  0.32260000  0.36740000  0.74880000  1
  O  O162  1  0.54730000  0.36210000  0.79940000  1
  O  O163  1  0.80150000  0.32150000  0.69900000  1
  O  O164  1  0.03960000  0.32070000  0.66110000  1
  O  O165  1  0.03550000  0.28710000  0.79460000  1
  O  O166  1  0.53550000  0.21290000  0.70540000  1
  O  O167  1  0.53960000  0.17930000  0.83890000  1
  O  O168  1  0.30150000  0.17850000  0.80100000  1
  O  O169  1  0.04730000  0.13790000  0.70060000  1
  O  O170  1  0.82260000  0.13260000  0.75120000  1
  O  O171  1  0.35810000  0.12760000  0.66270000  1
