# generated using pymatgen
data_NaEuC8(NO4)2
_symmetry_space_group_name_H-M   'P 1'
_cell_length_a   6.72600000
_cell_length_b   14.38600000
_cell_length_c   15.30600000
_cell_angle_alpha   90.00000000
_cell_angle_beta   90.00000000
_cell_angle_gamma   90.00000000
_symmetry_Int_Tables_number   1
_chemical_formula_structural   NaEuC8(NO4)2
_chemical_formula_sum   'Na4 Eu4 C32 N8 O32'
_cell_volume   1481.01217222
_cell_formula_units_Z   4
loop_
 _symmetry_equiv_pos_site_id
 _symmetry_equiv_pos_as_xyz
  1  'x, y, z'
loop_
 _atom_site_type_symbol
 _atom_site_label
 _atom_site_symmetry_multiplicity
 _atom_site_fract_x
 _atom_site_fract_y
 _atom_site_fract_z
 _atom_site_occupancy
  Na  Na0  1  0.75000000  0.18900000  0.23610000  1
  Na  Na1  1  0.25000000  0.68900000  0.26390000  1
  Na  Na2  1  0.75000000  0.31100000  0.73610000  1
  Na  Na3  1  0.25000000  0.81100000  0.76390000  1
  Eu  Eu4  1  0.25000000  0.37890000  0.19846000  1
  Eu  Eu5  1  0.75000000  0.87890000  0.30154000  1
  Eu  Eu6  1  0.25000000  0.12110000  0.69846000  1
  Eu  Eu7  1  0.75000000  0.62110000  0.80154000  1
  C  C8  1  0.25000000  0.49180000  0.00210000  1
  C  C9  1  0.75000000  0.66690000  0.02000000  1
  C  C10  1  0.25000000  0.24010000  0.02710000  1
  C  C11  1  0.25000000  0.56640000  0.07120000  1
  C  C12  1  0.75000000  0.49250000  0.08570000  1
  C  C13  1  0.75000000  0.65210000  0.10650000  1
  C  C14  1  0.75000000  0.39930000  0.12910000  1
  C  C15  1  0.75000000  0.72900000  0.17340000  1
  C  C16  1  0.25000000  0.22900000  0.32660000  1
  C  C17  1  0.25000000  0.89930000  0.37090000  1
  C  C18  1  0.25000000  0.15210000  0.39350000  1
  C  C19  1  0.25000000  0.99250000  0.41430000  1
  C  C20  1  0.75000000  0.06640000  0.42880000  1
  C  C21  1  0.75000000  0.74010000  0.47290000  1
  C  C22  1  0.25000000  0.16690000  0.48000000  1
  C  C23  1  0.75000000  0.99180000  0.49790000  1
  C  C24  1  0.25000000  0.00820000  0.50210000  1
  C  C25  1  0.75000000  0.83310000  0.52000000  1
  C  C26  1  0.25000000  0.25990000  0.52710000  1
  C  C27  1  0.25000000  0.93360000  0.57120000  1
  C  C28  1  0.75000000  0.00750000  0.58570000  1
  C  C29  1  0.75000000  0.84790000  0.60650000  1
  C  C30  1  0.75000000  0.10070000  0.62910000  1
  C  C31  1  0.75000000  0.77100000  0.67340000  1
  C  C32  1  0.25000000  0.27100000  0.82660000  1
  C  C33  1  0.25000000  0.60070000  0.87090000  1
  C  C34  1  0.25000000  0.34790000  0.89350000  1
  C  C35  1  0.25000000  0.50750000  0.91430000  1
  C  C36  1  0.75000000  0.43360000  0.92880000  1
  C  C37  1  0.75000000  0.75990000  0.97290000  1
  C  C38  1  0.25000000  0.33310000  0.98000000  1
  C  C39  1  0.75000000  0.50820000  0.99790000  1
  N  N40  1  0.25000000  0.40450000  0.03350000  1
  N  N41  1  0.75000000  0.56310000  0.14300000  1
  N  N42  1  0.25000000  0.06310000  0.35700000  1
  N  N43  1  0.75000000  0.90450000  0.46650000  1
  N  N44  1  0.25000000  0.09550000  0.53350000  1
  N  N45  1  0.75000000  0.93690000  0.64300000  1
  N  N46  1  0.25000000  0.43690000  0.85700000  1
  N  N47  1  0.75000000  0.59550000  0.96650000  1
  O  O48  1  0.75000000  0.83010000  0.02290000  1
  O  O49  1  0.25000000  0.64750000  0.04950000  1
  O  O50  1  0.25000000  0.24110000  0.10840000  1
  O  O51  1  0.58690000  0.36240000  0.14790000  1
  O  O52  1  0.91310000  0.36240000  0.14790000  1
  O  O53  1  0.25000000  0.53710000  0.15020000  1
  O  O54  1  0.58500000  0.75490000  0.20560000  1
  O  O55  1  0.91500000  0.75490000  0.20560000  1
  O  O56  1  0.08500000  0.25490000  0.29440000  1
  O  O57  1  0.41500000  0.25490000  0.29440000  1
  O  O58  1  0.75000000  0.03710000  0.34980000  1
  O  O59  1  0.08690000  0.86240000  0.35210000  1
  O  O60  1  0.41310000  0.86240000  0.35210000  1
  O  O61  1  0.75000000  0.74110000  0.39160000  1
  O  O62  1  0.75000000  0.14750000  0.45050000  1
  O  O63  1  0.25000000  0.33010000  0.47710000  1
  O  O64  1  0.75000000  0.66990000  0.52290000  1
  O  O65  1  0.25000000  0.85250000  0.54950000  1
  O  O66  1  0.25000000  0.25890000  0.60840000  1
  O  O67  1  0.58690000  0.13760000  0.64790000  1
  O  O68  1  0.91310000  0.13760000  0.64790000  1
  O  O69  1  0.25000000  0.96290000  0.65020000  1
  O  O70  1  0.58500000  0.74510000  0.70560000  1
  O  O71  1  0.91500000  0.74510000  0.70560000  1
  O  O72  1  0.08500000  0.24510000  0.79440000  1
  O  O73  1  0.41500000  0.24510000  0.79440000  1
  O  O74  1  0.75000000  0.46290000  0.84980000  1
  O  O75  1  0.08690000  0.63760000  0.85210000  1
  O  O76  1  0.41310000  0.63760000  0.85210000  1
  O  O77  1  0.75000000  0.75890000  0.89160000  1
  O  O78  1  0.75000000  0.35250000  0.95050000  1
  O  O79  1  0.25000000  0.16990000  0.97710000  1
