# generated using pymatgen
data_TbH8C16NO6
_symmetry_space_group_name_H-M   'P 1'
_cell_length_a   13.09030000
_cell_length_b   13.95330000
_cell_length_c   15.98041084
_cell_angle_alpha   96.90799529
_cell_angle_beta   114.17808656
_cell_angle_gamma   90.00000000
_symmetry_Int_Tables_number   1
_chemical_formula_structural   TbH8C16NO6
_chemical_formula_sum   'Tb4 H32 C64 N4 O24'
_cell_volume   2639.57174415
_cell_formula_units_Z   4
loop_
 _symmetry_equiv_pos_site_id
 _symmetry_equiv_pos_as_xyz
  1  'x, y, z'
loop_
 _atom_site_type_symbol
 _atom_site_label
 _atom_site_symmetry_multiplicity
 _atom_site_fract_x
 _atom_site_fract_y
 _atom_site_fract_z
 _atom_site_occupancy
  Tb  Tb0  1  0.48325000  0.95895000  0.37108000  1
  Tb  Tb1  1  0.11217000  0.54105000  0.62892000  1
  Tb  Tb2  1  0.88783000  0.45895000  0.37108000  1
  Tb  Tb3  1  0.51675000  0.04105000  0.62892000  1
  H  H4  1  0.13910000  0.04240000  0.11000000  1
  H  H5  1  0.06850000  0.40520000  0.03060000  1
  H  H6  1  0.33030000  0.22550000  0.28220000  1
  H  H7  1  0.03790000  0.09480000  0.96940000  1
  H  H8  1  0.81700000  0.07130000  0.68760000  1
  H  H9  1  0.02910000  0.45760000  0.89000000  1
  H  H10  1  0.32900000  0.30900000  0.16600000  1
  H  H11  1  0.87060000  0.57130000  0.68760000  1
  H  H12  1  0.67250000  0.69730000  0.46820000  1
  H  H13  1  0.37720000  0.35150000  0.05800000  1
  H  H14  1  0.79570000  0.19730000  0.46820000  1
  H  H15  1  0.16300000  0.19100000  0.83400000  1
  H  H16  1  0.04810000  0.27450000  0.71780000  1
  H  H17  1  0.42140000  0.10300000  0.08900000  1
  H  H18  1  0.31920000  0.14850000  0.94200000  1
  H  H19  1  0.33240000  0.39700000  0.91100000  1
  H  H20  1  0.66760000  0.60300000  0.08900000  1
  H  H21  1  0.68080000  0.85150000  0.05800000  1
  H  H22  1  0.57860000  0.89700000  0.91100000  1
  H  H23  1  0.95190000  0.72550000  0.28220000  1
  H  H24  1  0.83700000  0.80900000  0.16600000  1
  H  H25  1  0.20430000  0.80270000  0.53180000  1
  H  H26  1  0.62280000  0.64850000  0.94200000  1
  H  H27  1  0.32750000  0.30270000  0.53180000  1
  H  H28  1  0.12940000  0.42870000  0.31240000  1
  H  H29  1  0.67100000  0.69100000  0.83400000  1
  H  H30  1  0.97090000  0.54240000  0.11000000  1
  H  H31  1  0.18300000  0.92870000  0.31240000  1
  H  H32  1  0.96210000  0.90520000  0.03060000  1
  H  H33  1  0.66970000  0.77450000  0.71780000  1
  H  H34  1  0.93150000  0.59480000  0.96940000  1
  H  H35  1  0.86090000  0.95760000  0.89000000  1
  C  C36  1  0.69700000  0.73680000  0.68020000  1
  C  C37  1  0.58330000  0.82760000  0.54860000  1
  C  C38  1  0.77360000  0.66740000  0.71680000  1
  C  C39  1  0.66140000  0.74980000  0.58720000  1
  C  C40  1  0.17630000  0.06380000  0.07660000  1
  C  C41  1  0.25940000  0.34740000  0.15320000  1
  C  C42  1  0.12370000  0.40530000  0.00800000  1
  C  C43  1  0.11570000  0.09470000  0.99200000  1
  C  C44  1  0.35490000  0.02680000  0.20240000  1
  C  C45  1  0.81610000  0.61480000  0.66220000  1
  C  C46  1  0.22590000  0.37510000  0.05820000  1
  C  C47  1  0.69970000  0.69180000  0.53100000  1
  C  C48  1  0.09970000  0.43620000  0.92340000  1
  C  C49  1  0.68620000  0.06500000  0.50740000  1
  C  C50  1  0.29000000  0.06440000  0.11120000  1
  C  C51  1  0.84610000  0.11480000  0.66220000  1
  C  C52  1  0.77920000  0.62510000  0.56860000  1
  C  C53  1  0.78940000  0.12510000  0.56860000  1
  C  C54  1  0.16770000  0.12490000  0.94180000  1
  C  C55  1  0.94320000  0.16740000  0.71680000  1
  C  C56  1  0.10620000  0.15260000  0.84680000  1
  C  C57  1  0.34340000  0.09860000  0.06360000  1
  C  C58  1  0.30630000  0.37230000  0.02400000  1
  C  C59  1  0.17880000  0.43560000  0.88880000  1
  C  C60  1  0.83130000  0.19180000  0.53100000  1
  C  C61  1  0.98320000  0.23680000  0.68020000  1
  C  C62  1  0.28230000  0.12770000  0.97600000  1
  C  C63  1  0.82120000  0.56500000  0.50740000  1
  C  C64  1  0.92580000  0.24980000  0.58720000  1
  C  C65  1  0.27980000  0.40140000  0.93640000  1
  C  C66  1  0.15250000  0.47320000  0.79760000  1
  C  C67  1  0.96530000  0.32760000  0.54860000  1
  C  C68  1  0.03470000  0.67240000  0.45140000  1
  C  C69  1  0.84750000  0.52680000  0.20240000  1
  C  C70  1  0.72020000  0.59860000  0.06360000  1
  C  C71  1  0.07420000  0.75020000  0.41280000  1
  C  C72  1  0.17880000  0.43500000  0.49260000  1
  C  C73  1  0.71770000  0.87230000  0.02400000  1
  C  C74  1  0.01680000  0.76320000  0.31980000  1
  C  C75  1  0.16870000  0.80820000  0.46900000  1
  C  C76  1  0.82120000  0.56440000  0.11120000  1
  C  C77  1  0.69370000  0.62770000  0.97600000  1
  C  C78  1  0.65660000  0.90140000  0.93640000  1
  C  C79  1  0.89380000  0.84740000  0.15320000  1
  C  C80  1  0.05680000  0.83260000  0.28320000  1
  C  C81  1  0.83230000  0.87510000  0.05820000  1
  C  C82  1  0.21060000  0.87490000  0.43140000  1
  C  C83  1  0.22080000  0.37490000  0.43140000  1
  C  C84  1  0.15390000  0.88520000  0.33780000  1
  C  C85  1  0.71000000  0.93560000  0.88880000  1
  C  C86  1  0.31380000  0.93500000  0.49260000  1
  C  C87  1  0.90030000  0.56380000  0.07660000  1
  C  C88  1  0.30030000  0.30820000  0.46900000  1
  C  C89  1  0.77410000  0.62490000  0.94180000  1
  C  C90  1  0.18390000  0.38520000  0.33780000  1
  C  C91  1  0.64510000  0.97320000  0.79760000  1
  C  C92  1  0.88430000  0.90530000  0.00800000  1
  C  C93  1  0.87630000  0.59470000  0.99200000  1
  C  C94  1  0.74060000  0.65260000  0.84680000  1
  C  C95  1  0.82370000  0.93620000  0.92340000  1
  C  C96  1  0.33860000  0.25020000  0.41280000  1
  C  C97  1  0.22640000  0.33260000  0.28320000  1
  C  C98  1  0.41670000  0.17240000  0.45140000  1
  C  C99  1  0.30300000  0.26320000  0.31980000  1
  N  N100  1  0.81056000  0.64730000  0.80892000  1
  N  N101  1  0.99836000  0.14730000  0.80892000  1
  N  N102  1  0.00164000  0.85270000  0.19108000  1
  N  N103  1  0.18944000  0.35270000  0.19108000  1
  O  O104  1  0.45353000  0.12550000  0.40006000  1
  O  O105  1  0.30461000  0.99990000  0.24782000  1
  O  O106  1  0.62238000  0.03250000  0.54176000  1
  O  O107  1  0.56155000  0.83890000  0.46570000  1
  O  O108  1  0.46021000  0.02430000  0.22982000  1
  O  O109  1  0.66209000  0.04560000  0.42258000  1
  O  O110  1  0.05679000  0.50010000  0.75218000  1
  O  O111  1  0.76049000  0.54560000  0.42258000  1
  O  O112  1  0.91938000  0.53250000  0.54176000  1
  O  O113  1  0.90415000  0.33890000  0.46570000  1
  O  O114  1  0.05347000  0.37450000  0.59994000  1
  O  O115  1  0.23039000  0.47570000  0.77018000  1
  O  O116  1  0.76961000  0.52430000  0.22982000  1
  O  O117  1  0.94653000  0.62550000  0.40006000  1
  O  O118  1  0.09585000  0.66110000  0.53430000  1
  O  O119  1  0.08062000  0.46750000  0.45824000  1
  O  O120  1  0.23951000  0.45440000  0.57742000  1
  O  O121  1  0.94321000  0.49990000  0.24782000  1
  O  O122  1  0.33791000  0.95440000  0.57742000  1
  O  O123  1  0.53979000  0.97570000  0.77018000  1
  O  O124  1  0.43845000  0.16110000  0.53430000  1
  O  O125  1  0.37762000  0.96750000  0.45824000  1
  O  O126  1  0.69539000  0.00010000  0.75218000  1
  O  O127  1  0.54647000  0.87450000  0.59994000  1
