# generated using pymatgen
data_TbH3(CO2)3
_symmetry_space_group_name_H-M   'P 1'
_cell_length_a   6.60800000
_cell_length_b   6.70678574
_cell_length_c   6.70678574
_cell_angle_alpha   64.60127922
_cell_angle_beta   73.45353333
_cell_angle_gamma   73.45353333
_symmetry_Int_Tables_number   1
_chemical_formula_structural   TbH3(CO2)3
_chemical_formula_sum   'Tb1 H3 C3 O6'
_cell_volume   252.80540223
_cell_formula_units_Z   1
loop_
 _symmetry_equiv_pos_site_id
 _symmetry_equiv_pos_as_xyz
  1  'x, y, z'
loop_
 _atom_site_type_symbol
 _atom_site_label
 _atom_site_symmetry_multiplicity
 _atom_site_fract_x
 _atom_site_fract_y
 _atom_site_fract_z
 _atom_site_occupancy
  C  C0  1  0.50000000  0.55300000  0.44700000  1
  C  C1  1  0.03490000  0.55030000  0.97750000  1
  C  C2  1  0.96510000  0.02250000  0.44970000  1
  H  H3  1  0.50000000  0.42370000  0.57630000  1
  H  H4  1  0.89880000  0.64000000  0.97020000  1
  H  H5  1  0.10120000  0.02980000  0.36000000  1
  O  O6  1  0.33750000  0.62550000  0.35930000  1
  O  O7  1  0.88120000  0.17400000  0.51900000  1
  O  O8  1  0.11620000  0.51160000  0.14420000  1
  O  O9  1  0.88380000  0.85580000  0.48840000  1
  O  O10  1  0.11880000  0.48100000  0.82600000  1
  O  O11  1  0.66250000  0.64070000  0.37450000  1
  Tb  Tb12  1  1.00000000  0.48740000  0.51260000  1
