# generated using pymatgen
data_AgH28(C19N2)2
_symmetry_space_group_name_H-M   'P 1'
_cell_length_a   16.69950000
_cell_length_b   16.69950000
_cell_length_c   17.84468978
_cell_angle_alpha   117.89886513
_cell_angle_beta   117.89886513
_cell_angle_gamma   90.00000000
_symmetry_Int_Tables_number   1
_chemical_formula_structural   AgH28(C19N2)2
_chemical_formula_sum   'Ag4 H112 C152 N16'
_cell_volume   3731.03194038
_cell_formula_units_Z   4
loop_
 _symmetry_equiv_pos_site_id
 _symmetry_equiv_pos_as_xyz
  1  'x, y, z'
loop_
 _atom_site_type_symbol
 _atom_site_label
 _atom_site_symmetry_multiplicity
 _atom_site_fract_x
 _atom_site_fract_y
 _atom_site_fract_z
 _atom_site_occupancy
  Ag  Ag0  1  0.37186000  0.37186000  0.74372000  1
  Ag  Ag1  1  0.62814000  0.62814000  0.25628000  1
  Ag  Ag2  1  0.62186000  0.12186000  0.24372000  1
  Ag  Ag3  1  0.87814000  0.37814000  0.75628000  1
  C  C4  1  0.06380000  0.06380000  0.12760000  1
  C  C5  1  0.19480000  0.19480000  0.38960000  1
  C  C6  1  0.80520000  0.80520000  0.61040000  1
  C  C7  1  0.93620000  0.93620000  0.87240000  1
  C  C8  1  0.05520000  0.55520000  0.11040000  1
  C  C9  1  0.18620000  0.68620000  0.37240000  1
  C  C10  1  0.31380000  0.81380000  0.62760000  1
  C  C11  1  0.44480000  0.94480000  0.88960000  1
  C  C12  1  0.09677000  0.17297000  0.19294000  1
  C  C13  1  0.15383000  0.57703000  0.30706000  1
  C  C14  1  0.18907000  0.83767000  0.37754000  1
  C  C15  1  0.06153000  0.91233000  0.12246000  1
  C  C16  1  0.83832000  0.91282000  0.67384000  1
  C  C17  1  0.41448000  0.83718000  0.82616000  1
  C  C18  1  0.44760000  0.09660000  0.89240000  1
  C  C19  1  0.95570000  0.61760000  0.90860000  1
  C  C20  1  0.29710000  0.13240000  0.59140000  1
  C  C21  1  0.80520000  0.65340000  0.60760000  1
  C  C22  1  0.99348000  0.71698000  0.98136000  1
  C  C23  1  0.26212000  0.03302000  0.51864000  1
  C  C24  1  0.74870000  0.45810000  0.48640000  1
  C  C25  1  0.51230000  0.29190000  0.01360000  1
  C  C26  1  0.72750000  0.93360000  0.44320000  1
  C  C27  1  0.53430000  0.81640000  0.05680000  1
  C  C28  1  0.71790000  0.35680000  0.42120000  1
  C  C29  1  0.54670000  0.39320000  0.07880000  1
  C  C30  1  0.75970000  0.89610000  0.50360000  1
  C  C31  1  0.50610000  0.85390000  0.99640000  1
  C  C32  1  0.43630000  0.15080000  0.85260000  1
  C  C33  1  0.83370000  0.59920000  0.64740000  1
  C  C34  1  0.80790000  0.50140000  0.58900000  1
  C  C35  1  0.46890000  0.24860000  0.91100000  1
  C  C36  1  0.12010000  0.26090000  0.11580000  1
  C  C37  1  0.25430000  0.48910000  0.38420000  1
  C  C38  1  0.28970000  0.46290000  0.45440000  1
  C  C39  1  0.08530000  0.28710000  0.04560000  1
  C  C40  1  0.28850000  0.88210000  0.44180000  1
  C  C41  1  0.09670000  0.86790000  0.05820000  1
  C  C42  1  0.32410000  0.97720000  0.51080000  1
  C  C43  1  0.06330000  0.77280000  0.98920000  1
  C  C44  1  0.19480000  0.69610000  0.24000000  1
  C  C45  1  0.20480000  0.05390000  0.26000000  1
  C  C46  1  0.45420000  0.95500000  0.75840000  1
  C  C47  1  0.94580000  0.79500000  0.74160000  1
  C  C48  1  0.20500000  0.20420000  0.25840000  1
  C  C49  1  0.19660000  0.54580000  0.24160000  1
  C  C50  1  0.16282000  0.58832000  0.17384000  1
  C  C51  1  0.23898000  0.16168000  0.32616000  1
  C  C52  1  0.94610000  0.94480000  0.74000000  1
  C  C53  1  0.45610000  0.80520000  0.76000000  1
  C  C54  1  0.42297000  0.84677000  0.69294000  1
  C  C55  1  0.98003000  0.90323000  0.80706000  1
  C  C56  1  0.14610000  0.50970000  0.00360000  1
  C  C57  1  0.39250000  0.24030000  0.49640000  1
  C  C58  1  0.60680000  0.46790000  0.92120000  1
  C  C59  1  0.93560000  0.28210000  0.57880000  1
  C  C60  1  0.08767000  0.93907000  0.87754000  1
  C  C61  1  0.46013000  0.81093000  0.62246000  1
  C  C62  1  0.34660000  0.19760000  0.39240000  1
  C  C63  1  0.20420000  0.55240000  0.10760000  1
  C  C64  1  0.13210000  0.03850000  0.94180000  1
  C  C65  1  0.44030000  0.71150000  0.55820000  1
  C  C66  1  0.86760000  0.70570000  0.40860000  1
  C  C67  1  0.70900000  0.04430000  0.09140000  1
  C  C68  1  0.51090000  0.87010000  0.61580000  1
  C  C69  1  0.14510000  0.87990000  0.88420000  1
  C  C70  1  0.75140000  0.55790000  0.08900000  1
  C  C71  1  0.91240000  0.19210000  0.41100000  1
  C  C72  1  0.18360000  0.47750000  0.94320000  1
  C  C73  1  0.49040000  0.27250000  0.55680000  1
  C  C74  1  0.70810000  0.49870000  0.98640000  1
  C  C75  1  0.97170000  0.25130000  0.51360000  1
  C  C76  1  0.22720000  0.07410000  0.01080000  1
  C  C77  1  0.46640000  0.67590000  0.48920000  1
  C  C78  1  0.40080000  0.18630000  0.35260000  1
  C  C79  1  0.29820000  0.56370000  0.14740000  1
  C  C80  1  0.96698000  0.74348000  0.48136000  1
  C  C81  1  0.73562000  0.00652000  0.01864000  1
  C  C82  1  0.71290000  0.03970000  0.95440000  1
  C  C83  1  0.00850000  0.71030000  0.54560000  1
  C  C84  1  0.53710000  0.83530000  0.54560000  1
  C  C85  1  0.24150000  0.91470000  0.95440000  1
  C  C86  1  0.28302000  0.01212000  0.01864000  1
  C  C87  1  0.51438000  0.73788000  0.48136000  1
  C  C88  1  0.84920000  0.58370000  0.14740000  1
  C  C89  1  0.95180000  0.16630000  0.35260000  1
  C  C90  1  0.02280000  0.81330000  0.48920000  1
  C  C91  1  0.78360000  0.93670000  0.01080000  1
  C  C92  1  0.54190000  0.26230000  0.51360000  1
  C  C93  1  0.27830000  0.48770000  0.98640000  1
  C  C94  1  0.06640000  0.28430000  0.55680000  1
  C  C95  1  0.75960000  0.46570000  0.94320000  1
  C  C96  1  0.49860000  0.21890000  0.41100000  1
  C  C97  1  0.33760000  0.53110000  0.08900000  1
  C  C98  1  0.73910000  0.00430000  0.88420000  1
  C  C99  1  0.10490000  0.74570000  0.61580000  1
  C  C100  1  0.38240000  0.04710000  0.09140000  1
  C  C101  1  0.54100000  0.70290000  0.40860000  1
  C  C102  1  0.11790000  0.84670000  0.55820000  1
  C  C103  1  0.80970000  0.90330000  0.94180000  1
  C  C104  1  0.90340000  0.55520000  0.10760000  1
  C  C105  1  0.04580000  0.19480000  0.39240000  1
  C  C106  1  0.16233000  0.81153000  0.62246000  1
  C  C107  1  0.78987000  0.93847000  0.87754000  1
  C  C108  1  0.64320000  0.29670000  0.57880000  1
  C  C109  1  0.31440000  0.45330000  0.92120000  1
  C  C110  1  0.10390000  0.25610000  0.49640000  1
  C  C111  1  0.85750000  0.49390000  0.00360000  1
  C  C112  1  0.82703000  0.90383000  0.80706000  1
  C  C113  1  0.26997000  0.84617000  0.69294000  1
  C  C114  1  0.30390000  0.95480000  0.76000000  1
  C  C115  1  0.79390000  0.79520000  0.74000000  1
  C  C116  1  0.08718000  0.16448000  0.32616000  1
  C  C117  1  0.01102000  0.58552000  0.17384000  1
  C  C118  1  0.04500000  0.69580000  0.24160000  1
  C  C119  1  0.05340000  0.05420000  0.25840000  1
  C  C120  1  0.79580000  0.94660000  0.74160000  1
  C  C121  1  0.30420000  0.80340000  0.75840000  1
  C  C122  1  0.05520000  0.20610000  0.26000000  1
  C  C123  1  0.04520000  0.54390000  0.24000000  1
  C  C124  1  0.92590000  0.21640000  0.98920000  1
  C  C125  1  0.18670000  0.53360000  0.51080000  1
  C  C126  1  0.96150000  0.19030000  0.05820000  1
  C  C127  1  0.15330000  0.55970000  0.44180000  1
  C  C128  1  0.96030000  0.75850000  0.04560000  1
  C  C129  1  0.16470000  0.99150000  0.45440000  1
  C  C130  1  0.12990000  0.89510000  0.38420000  1
  C  C131  1  0.99570000  0.85490000  0.11580000  1
  C  C132  1  0.44210000  0.66240000  0.91100000  1
  C  C133  1  0.78110000  0.08760000  0.58900000  1
  C  C134  1  0.81370000  0.04820000  0.64740000  1
  C  C135  1  0.41630000  0.70180000  0.85260000  1
  C  C136  1  0.49030000  0.14250000  0.99640000  1
  C  C137  1  0.74390000  0.60750000  0.50360000  1
  C  C138  1  0.53210000  0.68560000  0.07880000  1
  C  C139  1  0.70330000  0.06440000  0.42120000  1
  C  C140  1  0.52250000  0.24040000  0.05680000  1
  C  C141  1  0.71570000  0.50960000  0.44320000  1
  C  C142  1  0.50130000  0.72170000  0.01360000  1
  C  C143  1  0.73770000  0.02830000  0.48640000  1
  C  C144  1  0.25652000  0.48562000  0.51864000  1
  C  C145  1  0.98788000  0.26438000  0.98136000  1
  C  C146  1  0.41168000  0.98898000  0.82616000  1
  C  C147  1  0.83552000  0.76102000  0.67384000  1
  C  C148  1  0.80240000  0.95420000  0.60760000  1
  C  C149  1  0.29430000  0.45900000  0.59140000  1
  C  C150  1  0.95290000  0.29100000  0.90860000  1
  C  C151  1  0.44480000  0.79580000  0.89240000  1
  C  C152  1  0.15323000  0.73003000  0.30706000  1
  C  C153  1  0.09617000  0.01997000  0.19294000  1
  C  C154  1  0.06093000  0.21013000  0.12246000  1
  C  C155  1  0.18847000  0.53987000  0.37754000  1
  H  H156  1  0.95770000  0.00450000  0.91500000  1
  H  H157  1  0.29270000  0.74550000  0.58500000  1
  H  H158  1  0.21700000  0.26300000  0.43220000  1
  H  H159  1  0.03480000  0.48700000  0.06780000  1
  H  H160  1  0.69950000  0.89470000  0.37440000  1
  H  H161  1  0.57510000  0.85530000  0.12560000  1
  H  H162  1  0.40550000  0.12130000  0.78340000  1
  H  H163  1  0.87210000  0.62870000  0.71660000  1
  H  H164  1  0.75290000  0.83170000  0.47480000  1
  H  H165  1  0.52810000  0.91830000  0.02520000  1
  H  H166  1  0.82980000  0.46580000  0.61800000  1
  H  H167  1  0.46180000  0.28420000  0.88200000  1
  H  H168  1  0.51300000  0.96700000  0.93220000  1
  H  H169  1  0.83080000  0.78300000  0.56780000  1
  H  H170  1  0.25450000  0.70770000  0.41500000  1
  H  H171  1  0.08950000  0.04230000  0.08500000  1
  H  H172  1  0.43300000  0.98110000  0.71620000  1
  H  H173  1  0.96680000  0.76890000  0.78380000  1
  H  H174  1  0.17430000  0.72280000  0.19840000  1
  H  H175  1  0.22590000  0.02720000  0.30160000  1
  H  H176  1  0.96770000  0.01310000  0.78140000  1
  H  H177  1  0.43630000  0.73690000  0.71860000  1
  H  H178  1  0.22740000  0.27250000  0.30000000  1
  H  H179  1  0.17740000  0.47750000  0.20000000  1
  H  H180  1  0.08170000  0.50290000  0.97480000  1
  H  H181  1  0.35690000  0.24710000  0.52520000  1
  H  H182  1  0.18510000  0.27820000  0.15980000  1
  H  H183  1  0.27530000  0.47180000  0.34020000  1
  H  H184  1  0.33540000  0.43050000  0.45880000  1
  H  H185  1  0.12660000  0.31950000  0.04120000  1
  H  H186  1  0.33000000  0.84570000  0.43680000  1
  H  H187  1  0.14320000  0.90430000  0.06320000  1
  H  H188  1  0.38900000  0.00470000  0.55220000  1
  H  H189  1  0.08680000  0.74530000  0.94780000  1
  H  H190  1  0.26310000  0.71770000  0.28140000  1
  H  H191  1  0.23170000  0.03230000  0.21860000  1
  H  H192  1  0.52250000  0.97740000  0.80000000  1
  H  H193  1  0.97250000  0.77260000  0.70000000  1
  H  H194  1  0.23110000  0.18300000  0.21620000  1
  H  H195  1  0.26490000  0.56700000  0.28380000  1
  H  H196  1  0.97280000  0.92430000  0.69840000  1
  H  H197  1  0.52440000  0.82570000  0.80160000  1
  H  H198  1  0.09570000  0.08000000  0.93680000  1
  H  H199  1  0.40890000  0.67000000  0.56320000  1
  H  H200  1  0.71580000  0.57980000  0.11800000  1
  H  H201  1  0.84780000  0.17020000  0.38200000  1
  H  H202  1  0.52820000  0.93510000  0.65980000  1
  H  H203  1  0.11840000  0.81490000  0.84020000  1
  H  H204  1  0.68050000  0.08540000  0.95880000  1
  H  H205  1  0.97170000  0.66460000  0.54120000  1
  H  H206  1  0.14470000  0.44950000  0.87440000  1
  H  H207  1  0.52030000  0.30050000  0.62560000  1
  H  H208  1  0.25470000  0.13900000  0.05220000  1
  H  H209  1  0.45250000  0.61100000  0.44780000  1
  H  H210  1  0.37130000  0.15550000  0.28340000  1
  H  H211  1  0.33790000  0.59450000  0.21660000  1
  H  H212  1  0.87870000  0.62210000  0.21660000  1
  H  H213  1  0.91210000  0.12790000  0.28340000  1
  H  H214  1  0.99530000  0.83680000  0.44780000  1
  H  H215  1  0.79750000  0.91320000  0.05220000  1
  H  H216  1  0.10530000  0.32510000  0.62560000  1
  H  H217  1  0.72970000  0.42490000  0.87440000  1
  H  H218  1  0.56950000  0.87660000  0.54120000  1
  H  H219  1  0.27830000  0.87340000  0.95880000  1
  H  H220  1  0.72180000  0.02530000  0.84020000  1
  H  H221  1  0.13160000  0.72470000  0.65980000  1
  H  H222  1  0.53420000  0.21180000  0.38200000  1
  H  H223  1  0.40220000  0.53820000  0.11800000  1
  H  H224  1  0.15430000  0.89320000  0.56320000  1
  H  H225  1  0.84110000  0.85680000  0.93680000  1
  H  H226  1  0.27720000  0.97590000  0.80160000  1
  H  H227  1  0.72560000  0.77410000  0.69840000  1
  H  H228  1  0.01890000  0.71680000  0.28380000  1
  H  H229  1  0.98510000  0.03320000  0.21620000  1
  H  H230  1  0.72750000  0.92740000  0.70000000  1
  H  H231  1  0.27750000  0.82260000  0.80000000  1
  H  H232  1  0.98690000  0.18630000  0.21860000  1
  H  H233  1  0.01830000  0.56370000  0.28140000  1
  H  H234  1  0.86100000  0.20250000  0.94780000  1
  H  H235  1  0.16320000  0.54750000  0.55220000  1
  H  H236  1  0.92000000  0.15890000  0.06320000  1
  H  H237  1  0.10680000  0.59110000  0.43680000  1
  H  H238  1  0.91460000  0.72170000  0.04120000  1
  H  H239  1  0.12340000  0.02830000  0.45880000  1
  H  H240  1  0.06490000  0.86840000  0.34020000  1
  H  H241  1  0.97470000  0.88160000  0.15980000  1
  H  H242  1  0.16830000  0.27810000  0.52520000  1
  H  H243  1  0.89310000  0.47190000  0.97480000  1
  H  H244  1  0.02260000  0.72250000  0.20000000  1
  H  H245  1  0.07260000  0.02750000  0.30000000  1
  H  H246  1  0.28230000  0.98170000  0.71860000  1
  H  H247  1  0.81370000  0.76830000  0.78140000  1
  H  H248  1  0.07570000  0.27440000  0.30160000  1
  H  H249  1  0.02410000  0.47560000  0.19840000  1
  H  H250  1  0.81700000  0.01490000  0.78380000  1
  H  H251  1  0.28320000  0.73510000  0.71620000  1
  H  H252  1  0.99550000  0.04270000  0.08500000  1
  H  H253  1  0.16050000  0.70730000  0.41500000  1
  H  H254  1  0.73700000  0.78480000  0.56780000  1
  H  H255  1  0.41920000  0.96520000  0.93220000  1
  H  H256  1  0.42020000  0.59780000  0.88200000  1
  H  H257  1  0.78820000  0.15220000  0.61800000  1
  H  H258  1  0.49710000  0.10690000  0.02520000  1
  H  H259  1  0.72190000  0.64310000  0.47480000  1
  H  H260  1  0.84450000  0.08790000  0.71660000  1
  H  H261  1  0.37790000  0.66210000  0.78340000  1
  H  H262  1  0.55050000  0.27030000  0.12560000  1
  H  H263  1  0.67490000  0.47970000  0.37440000  1
  H  H264  1  0.03300000  0.58080000  0.06780000  1
  H  H265  1  0.21520000  0.16920000  0.43220000  1
  H  H266  1  0.29230000  0.83950000  0.58500000  1
  H  H267  1  0.95730000  0.91050000  0.91500000  1
  N  N268  1  0.92864000  0.53814000  0.85248000  1
  N  N269  1  0.32616000  0.21186000  0.64752000  1
  N  N270  1  0.69280000  0.27670000  0.36460000  1
  N  N271  1  0.57820000  0.47330000  0.13540000  1
  N  N272  1  0.52670000  0.44280000  0.86460000  1
  N  N273  1  0.91210000  0.30720000  0.63540000  1
  N  N274  1  0.78814000  0.67864000  0.35248000  1
  N  N275  1  0.68566000  0.07136000  0.14752000  1
  N  N276  1  0.46186000  0.07616000  0.14752000  1
  N  N277  1  0.56434000  0.67384000  0.35248000  1
  N  N278  1  0.72330000  0.32820000  0.63540000  1
  N  N279  1  0.33790000  0.42180000  0.86460000  1
  N  N280  1  0.55720000  0.66210000  0.13540000  1
  N  N281  1  0.67180000  0.08790000  0.36460000  1
  N  N282  1  0.32136000  0.43566000  0.64752000  1
  N  N283  1  0.92384000  0.31434000  0.85248000  1
