# generated using pymatgen
data_CoH6C8S(NO)4
_symmetry_space_group_name_H-M   'P 1'
_cell_length_a   16.83500000
_cell_length_b   16.84200000
_cell_length_c   20.25800000
_cell_angle_alpha   90.00000000
_cell_angle_beta   90.00000000
_cell_angle_gamma   90.00000000
_symmetry_Int_Tables_number   1
_chemical_formula_structural   CoH6C8S(NO)4
_chemical_formula_sum   'Co16 H96 C128 S16 N64 O64'
_cell_volume   5743.85344806
_cell_formula_units_Z   16
loop_
 _symmetry_equiv_pos_site_id
 _symmetry_equiv_pos_as_xyz
  1  'x, y, z'
loop_
 _atom_site_type_symbol
 _atom_site_label
 _atom_site_symmetry_multiplicity
 _atom_site_fract_x
 _atom_site_fract_y
 _atom_site_fract_z
 _atom_site_occupancy
  Co  Co0  1  0.36795000  0.96221000  0.75764000  1
  Co  Co1  1  0.38641000  0.94997000  0.24015000  1
  Co  Co2  1  0.25509000  0.86994000  0.99845000  1
  Co  Co3  1  0.30195000  0.85372000  0.49930000  1
  Co  Co4  1  0.69805000  0.64628000  0.99930000  1
  Co  Co5  1  0.74491000  0.63006000  0.49845000  1
  Co  Co6  1  0.61359000  0.55003000  0.74015000  1
  Co  Co7  1  0.63205000  0.53779000  0.25764000  1
  Co  Co8  1  0.13205000  0.46221000  0.24236000  1
  Co  Co9  1  0.11359000  0.44997000  0.75985000  1
  Co  Co10  1  0.24491000  0.36994000  0.00155000  1
  Co  Co11  1  0.19805000  0.35372000  0.50070000  1
  Co  Co12  1  0.80195000  0.14628000  0.00070000  1
  Co  Co13  1  0.75509000  0.13006000  0.50155000  1
  Co  Co14  1  0.88641000  0.05003000  0.25985000  1
  Co  Co15  1  0.86795000  0.03779000  0.74236000  1
  H  H16  1  0.54850000  0.99190000  0.96540000  1
  H  H17  1  0.81600000  0.98250000  0.89240000  1
  H  H18  1  0.03330000  0.98180000  0.17980000  1
  H  H19  1  0.13870000  0.97770000  0.06410000  1
  H  H20  1  0.84910000  0.97170000  0.41540000  1
  H  H21  1  0.48110000  0.96690000  0.09070000  1
  H  H22  1  0.52300000  0.96230000  0.48680000  1
  H  H23  1  0.45830000  0.95200000  0.61450000  1
  H  H24  1  0.00720000  0.94860000  0.66510000  1
  H  H25  1  0.16850000  0.94680000  0.57540000  1
  H  H26  1  0.15680000  0.92920000  0.22060000  1
  H  H27  1  0.77230000  0.92690000  0.19040000  1
  H  H28  1  0.80360000  0.92000000  0.02060000  1
  H  H29  1  0.77010000  0.90960000  0.66540000  1
  H  H30  1  0.12710000  0.90580000  0.71300000  1
  H  H31  1  0.19690000  0.89990000  0.83870000  1
  H  H32  1  0.22090000  0.89860000  0.34600000  1
  H  H33  1  0.85410000  0.89230000  0.53970000  1
  H  H34  1  0.72860000  0.80480000  0.23130000  1
  H  H35  1  0.75410000  0.79990000  0.06810000  1
  H  H36  1  0.71890000  0.79320000  0.71180000  1
  H  H37  1  0.27290000  0.77380000  0.85430000  1
  H  H38  1  0.30140000  0.76870000  0.34240000  1
  H  H39  1  0.81440000  0.76700000  0.57750000  1
  H  H40  1  0.18560000  0.73300000  0.07750000  1
  H  H41  1  0.69860000  0.73130000  0.84240000  1
  H  H42  1  0.72710000  0.72620000  0.35430000  1
  H  H43  1  0.28110000  0.70680000  0.21180000  1
  H  H44  1  0.24590000  0.70010000  0.56810000  1
  H  H45  1  0.27140000  0.69520000  0.73130000  1
  H  H46  1  0.14590000  0.60770000  0.03970000  1
  H  H47  1  0.77910000  0.60140000  0.84600000  1
  H  H48  1  0.80310000  0.60010000  0.33870000  1
  H  H49  1  0.87290000  0.59420000  0.21300000  1
  H  H50  1  0.22990000  0.59040000  0.16540000  1
  H  H51  1  0.19640000  0.58000000  0.52060000  1
  H  H52  1  0.22770000  0.57310000  0.69040000  1
  H  H53  1  0.84320000  0.57080000  0.72060000  1
  H  H54  1  0.83150000  0.55320000  0.07540000  1
  H  H55  1  0.99280000  0.55140000  0.16510000  1
  H  H56  1  0.54170000  0.54800000  0.11450000  1
  H  H57  1  0.47700000  0.53770000  0.98680000  1
  H  H58  1  0.51890000  0.53310000  0.59070000  1
  H  H59  1  0.15090000  0.52830000  0.91540000  1
  H  H60  1  0.86130000  0.52230000  0.56410000  1
  H  H61  1  0.96670000  0.51820000  0.67980000  1
  H  H62  1  0.18400000  0.51750000  0.39240000  1
  H  H63  1  0.45150000  0.50810000  0.46540000  1
  H  H64  1  0.95150000  0.49190000  0.03460000  1
  H  H65  1  0.68400000  0.48250000  0.10760000  1
  H  H66  1  0.46670000  0.48180000  0.82020000  1
  H  H67  1  0.36130000  0.47770000  0.93590000  1
  H  H68  1  0.65090000  0.47170000  0.58460000  1
  H  H69  1  0.01890000  0.46690000  0.90930000  1
  H  H70  1  0.97700000  0.46230000  0.51320000  1
  H  H71  1  0.04170000  0.45200000  0.38550000  1
  H  H72  1  0.49280000  0.44860000  0.33490000  1
  H  H73  1  0.33150000  0.44680000  0.42460000  1
  H  H74  1  0.34320000  0.42920000  0.77940000  1
  H  H75  1  0.72770000  0.42690000  0.80960000  1
  H  H76  1  0.69640000  0.42000000  0.97940000  1
  H  H77  1  0.72990000  0.40960000  0.33460000  1
  H  H78  1  0.37290000  0.40580000  0.28700000  1
  H  H79  1  0.30310000  0.39990000  0.16130000  1
  H  H80  1  0.27910000  0.39860000  0.65400000  1
  H  H81  1  0.64590000  0.39230000  0.46030000  1
  H  H82  1  0.77140000  0.30480000  0.76870000  1
  H  H83  1  0.74590000  0.29990000  0.93190000  1
  H  H84  1  0.78110000  0.29320000  0.28820000  1
  H  H85  1  0.22710000  0.27380000  0.14570000  1
  H  H86  1  0.19860000  0.26870000  0.65760000  1
  H  H87  1  0.68560000  0.26700000  0.42250000  1
  H  H88  1  0.31440000  0.23300000  0.92250000  1
  H  H89  1  0.80140000  0.23130000  0.15760000  1
  H  H90  1  0.77290000  0.22620000  0.64570000  1
  H  H91  1  0.21890000  0.20680000  0.78820000  1
  H  H92  1  0.25410000  0.20010000  0.43190000  1
  H  H93  1  0.22860000  0.19520000  0.26870000  1
  H  H94  1  0.35410000  0.10770000  0.96030000  1
  H  H95  1  0.72090000  0.10140000  0.15400000  1
  H  H96  1  0.69690000  0.10010000  0.66130000  1
  H  H97  1  0.62710000  0.09420000  0.78700000  1
  H  H98  1  0.27010000  0.09040000  0.83460000  1
  H  H99  1  0.30360000  0.08000000  0.47940000  1
  H  H100  1  0.27230000  0.07310000  0.30960000  1
  H  H101  1  0.65680000  0.07080000  0.27940000  1
  H  H102  1  0.66850000  0.05320000  0.92460000  1
  H  H103  1  0.50720000  0.05140000  0.83490000  1
  H  H104  1  0.95830000  0.04800000  0.88550000  1
  H  H105  1  0.02300000  0.03770000  0.01320000  1
  H  H106  1  0.98110000  0.03310000  0.40930000  1
  H  H107  1  0.34910000  0.02830000  0.08460000  1
  H  H108  1  0.63870000  0.02230000  0.43590000  1
  H  H109  1  0.53330000  0.01820000  0.32020000  1
  H  H110  1  0.31600000  0.01750000  0.60760000  1
  H  H111  1  0.04850000  0.00810000  0.53460000  1
  C  C112  1  0.05750000  0.99720000  0.92390000  1
  C  C113  1  0.52690000  0.99530000  0.10310000  1
  C  C114  1  0.02260000  0.99220000  0.81410000  1
  C  C115  1  0.04560000  0.98670000  0.33160000  1
  C  C116  1  0.50410000  0.98190000  0.62370000  1
  C  C117  1  0.04780000  0.97870000  0.22450000  1
  C  C118  1  0.08220000  0.97680000  0.44190000  1
  C  C119  1  0.12610000  0.97660000  0.01890000  1
  C  C120  1  0.13090000  0.95770000  0.91100000  1
  C  C121  1  0.02310000  0.95740000  0.70900000  1
  C  C122  1  0.11830000  0.95050000  0.31410000  1
  C  C123  1  0.09400000  0.94950000  0.80050000  1
  C  C124  1  0.15330000  0.94880000  0.53080000  1
  C  C125  1  0.15510000  0.93790000  0.42460000  1
  C  C126  1  0.79470000  0.93240000  0.88200000  1
  C  C127  1  0.15070000  0.92930000  0.84790000  1
  C  C128  1  0.17380000  0.92410000  0.35890000  1
  C  C129  1  0.82820000  0.92230000  0.40240000  1
  C  C130  1  0.77920000  0.90890000  0.23390000  1
  C  C131  1  0.78100000  0.90840000  0.81720000  1
  C  C132  1  0.80780000  0.90680000  0.33730000  1
  C  C133  1  0.76770000  0.89810000  0.71070000  1
  C  C134  1  0.77500000  0.87810000  0.92970000  1
  C  C135  1  0.81630000  0.86180000  0.44710000  1
  C  C136  1  0.76800000  0.83480000  0.32090000  1
  C  C137  1  0.74440000  0.83450000  0.80360000  1
  C  C138  1  0.75570000  0.81180000  0.02280000  1
  C  C139  1  0.73920000  0.80250000  0.91590000  1
  C  C140  1  0.77980000  0.78790000  0.42970000  1
  C  C141  1  0.80930000  0.78470000  0.53370000  1
  C  C142  1  0.72280000  0.78010000  0.85250000  1
  C  C143  1  0.75310000  0.77340000  0.36620000  1
  C  C144  1  0.24690000  0.72660000  0.86620000  1
  C  C145  1  0.27720000  0.71990000  0.35250000  1
  C  C146  1  0.19070000  0.71530000  0.03370000  1
  C  C147  1  0.22020000  0.71210000  0.92970000  1
  C  C148  1  0.26080000  0.69750000  0.41590000  1
  C  C149  1  0.24430000  0.68820000  0.52280000  1
  C  C150  1  0.25560000  0.66550000  0.30360000  1
  C  C151  1  0.23200000  0.66520000  0.82090000  1
  C  C152  1  0.18370000  0.63820000  0.94710000  1
  C  C153  1  0.22500000  0.62190000  0.42970000  1
  C  C154  1  0.23230000  0.60190000  0.21070000  1
  C  C155  1  0.19220000  0.59320000  0.83730000  1
  C  C156  1  0.21900000  0.59160000  0.31720000  1
  C  C157  1  0.22080000  0.59110000  0.73390000  1
  C  C158  1  0.17180000  0.57770000  0.90240000  1
  C  C159  1  0.82620000  0.57590000  0.85890000  1
  C  C160  1  0.84930000  0.57070000  0.34790000  1
  C  C161  1  0.20530000  0.56760000  0.38200000  1
  C  C162  1  0.84490000  0.56210000  0.92460000  1
  C  C163  1  0.84670000  0.55120000  0.03080000  1
  C  C164  1  0.90600000  0.55050000  0.30050000  1
  C  C165  1  0.88170000  0.54950000  0.81410000  1
  C  C166  1  0.97690000  0.54260000  0.20900000  1
  C  C167  1  0.86910000  0.54230000  0.41100000  1
  C  C168  1  0.87390000  0.52340000  0.51890000  1
  C  C169  1  0.91780000  0.52320000  0.94190000  1
  C  C170  1  0.95220000  0.52130000  0.72450000  1
  C  C171  1  0.49590000  0.51810000  0.12370000  1
  C  C172  1  0.95440000  0.51330000  0.83160000  1
  C  C173  1  0.97740000  0.50780000  0.31410000  1
  C  C174  1  0.47310000  0.50470000  0.60310000  1
  C  C175  1  0.94250000  0.50280000  0.42390000  1
  C  C176  1  0.44250000  0.49720000  0.07610000  1
  C  C177  1  0.97310000  0.49530000  0.89690000  1
  C  C178  1  0.47740000  0.49220000  0.18590000  1
  C  C179  1  0.45440000  0.48670000  0.66840000  1
  C  C180  1  0.99590000  0.48190000  0.37630000  1
  C  C181  1  0.45220000  0.47870000  0.77550000  1
  C  C182  1  0.41780000  0.47680000  0.55810000  1
  C  C183  1  0.37390000  0.47660000  0.98110000  1
  C  C184  1  0.36910000  0.45770000  0.08900000  1
  C  C185  1  0.47690000  0.45740000  0.29100000  1
  C  C186  1  0.38170000  0.45050000  0.68590000  1
  C  C187  1  0.40600000  0.44950000  0.19950000  1
  C  C188  1  0.34670000  0.44880000  0.46920000  1
  C  C189  1  0.34490000  0.43790000  0.57540000  1
  C  C190  1  0.70530000  0.43240000  0.11800000  1
  C  C191  1  0.34930000  0.42930000  0.15210000  1
  C  C192  1  0.32620000  0.42410000  0.64110000  1
  C  C193  1  0.67180000  0.42230000  0.59760000  1
  C  C194  1  0.72080000  0.40890000  0.76610000  1
  C  C195  1  0.71900000  0.40840000  0.18280000  1
  C  C196  1  0.69220000  0.40680000  0.66270000  1
  C  C197  1  0.73230000  0.39810000  0.28930000  1
  C  C198  1  0.72500000  0.37810000  0.07030000  1
  C  C199  1  0.68370000  0.36180000  0.55290000  1
  C  C200  1  0.73200000  0.33480000  0.67910000  1
  C  C201  1  0.75560000  0.33450000  0.19640000  1
  C  C202  1  0.74430000  0.31180000  0.97720000  1
  C  C203  1  0.76080000  0.30250000  0.08410000  1
  C  C204  1  0.72020000  0.28790000  0.57030000  1
  C  C205  1  0.69070000  0.28470000  0.46630000  1
  C  C206  1  0.77720000  0.28010000  0.14750000  1
  C  C207  1  0.74690000  0.27340000  0.63380000  1
  C  C208  1  0.25310000  0.22660000  0.13380000  1
  C  C209  1  0.22280000  0.21990000  0.64750000  1
  C  C210  1  0.30930000  0.21530000  0.96630000  1
  C  C211  1  0.27980000  0.21210000  0.07030000  1
  C  C212  1  0.23920000  0.19750000  0.58410000  1
  C  C213  1  0.25570000  0.18820000  0.47720000  1
  C  C214  1  0.24440000  0.16550000  0.69640000  1
  C  C215  1  0.26800000  0.16520000  0.17910000  1
  C  C216  1  0.31630000  0.13820000  0.05290000  1
  C  C217  1  0.27500000  0.12190000  0.57030000  1
  C  C218  1  0.26770000  0.10190000  0.78930000  1
  C  C219  1  0.30780000  0.09320000  0.16270000  1
  C  C220  1  0.28100000  0.09160000  0.68280000  1
  C  C221  1  0.27920000  0.09110000  0.26610000  1
  C  C222  1  0.32820000  0.07770000  0.09760000  1
  C  C223  1  0.67380000  0.07590000  0.14110000  1
  C  C224  1  0.65070000  0.07070000  0.65210000  1
  C  C225  1  0.29470000  0.06760000  0.61800000  1
  C  C226  1  0.65510000  0.06210000  0.07540000  1
  C  C227  1  0.65330000  0.05120000  0.96920000  1
  C  C228  1  0.59400000  0.05050000  0.69950000  1
  C  C229  1  0.61830000  0.04950000  0.18590000  1
  C  C230  1  0.52310000  0.04260000  0.79100000  1
  C  C231  1  0.63090000  0.04230000  0.58900000  1
  C  C232  1  0.62610000  0.02340000  0.48110000  1
  C  C233  1  0.58220000  0.02320000  0.05810000  1
  C  C234  1  0.54780000  0.02130000  0.27550000  1
  C  C235  1  0.00410000  0.01810000  0.87630000  1
  C  C236  1  0.54560000  0.01330000  0.16840000  1
  C  C237  1  0.52260000  0.00780000  0.68590000  1
  C  C238  1  0.02690000  0.00470000  0.39690000  1
  C  C239  1  0.55750000  0.00280000  0.57610000  1
  S  S240  1  0.39494000  0.94684000  0.40102000  1
  S  S241  1  0.39342000  0.93603000  0.90572000  1
  S  S242  1  0.29783000  0.85803000  0.14691000  1
  S  S243  1  0.29508000  0.83590000  0.66397000  1
  S  S244  1  0.70492000  0.66410000  0.16397000  1
  S  S245  1  0.70217000  0.64197000  0.64691000  1
  S  S246  1  0.60658000  0.56397000  0.40572000  1
  S  S247  1  0.60506000  0.55316000  0.90102000  1
  S  S248  1  0.10506000  0.44684000  0.59898000  1
  S  S249  1  0.10658000  0.43603000  0.09428000  1
  S  S250  1  0.20217000  0.35803000  0.85309000  1
  S  S251  1  0.20492000  0.33590000  0.33603000  1
  S  S252  1  0.79508000  0.16410000  0.83603000  1
  S  S253  1  0.79783000  0.14197000  0.35309000  1
  S  S254  1  0.89342000  0.06397000  0.59428000  1
  S  S255  1  0.89494000  0.05316000  0.09898000  1
  N  N256  1  0.97990000  0.99850000  0.75390000  1
  N  N257  1  0.50060000  0.99550000  0.22590000  1
  N  N258  1  0.55880000  0.98870000  0.50860000  1
  N  N259  1  0.08390000  0.98500000  0.51000000  1
  N  N260  1  0.81820000  0.95150000  0.28110000  1
  N  N261  1  0.11890000  0.94740000  0.24550000  1
  N  N262  1  0.79340000  0.94690000  0.75720000  1
  N  N263  1  0.16940000  0.94230000  0.97350000  1
  N  N264  1  0.09040000  0.93110000  0.73470000  1
  N  N265  1  0.19620000  0.91740000  0.48330000  1
  N  N266  1  0.78370000  0.88090000  0.99790000  1
  N  N267  1  0.83270000  0.85600000  0.51490000  1
  N  N268  1  0.75240000  0.84050000  0.25520000  1
  N  N269  1  0.73860000  0.83210000  0.73480000  1
  N  N270  1  0.73050000  0.76250000  0.97560000  1
  N  N271  1  0.22170000  0.75980000  0.98700000  1
  N  N272  1  0.77830000  0.74020000  0.48700000  1
  N  N273  1  0.26950000  0.73750000  0.47560000  1
  N  N274  1  0.26140000  0.66790000  0.23480000  1
  N  N275  1  0.24760000  0.65950000  0.75520000  1
  N  N276  1  0.16730000  0.64400000  0.01490000  1
  N  N277  1  0.21630000  0.61910000  0.49790000  1
  N  N278  1  0.80380000  0.58260000  0.98330000  1
  N  N279  1  0.90960000  0.56890000  0.23470000  1
  N  N280  1  0.83060000  0.55770000  0.47350000  1
  N  N281  1  0.20660000  0.55310000  0.25720000  1
  N  N282  1  0.88110000  0.55260000  0.74550000  1
  N  N283  1  0.18180000  0.54850000  0.78110000  1
  N  N284  1  0.91610000  0.51500000  0.01000000  1
  N  N285  1  0.44120000  0.51130000  0.00860000  1
  N  N286  1  0.49940000  0.50450000  0.72590000  1
  N  N287  1  0.02010000  0.50150000  0.25390000  1
  N  N288  1  0.52010000  0.49850000  0.24610000  1
  N  N289  1  0.99940000  0.49550000  0.77410000  1
  N  N290  1  0.94120000  0.48870000  0.49140000  1
  N  N291  1  0.41610000  0.48500000  0.49000000  1
  N  N292  1  0.68180000  0.45150000  0.71890000  1
  N  N293  1  0.38110000  0.44740000  0.75450000  1
  N  N294  1  0.70660000  0.44690000  0.24280000  1
  N  N295  1  0.33060000  0.44230000  0.02650000  1
  N  N296  1  0.40960000  0.43110000  0.26530000  1
  N  N297  1  0.30380000  0.41740000  0.51670000  1
  N  N298  1  0.71630000  0.38090000  0.00210000  1
  N  N299  1  0.66730000  0.35600000  0.48510000  1
  N  N300  1  0.74760000  0.34050000  0.74480000  1
  N  N301  1  0.76140000  0.33210000  0.26520000  1
  N  N302  1  0.76950000  0.26250000  0.02440000  1
  N  N303  1  0.27830000  0.25980000  0.01300000  1
  N  N304  1  0.72170000  0.24020000  0.51300000  1
  N  N305  1  0.23050000  0.23750000  0.52440000  1
  N  N306  1  0.23860000  0.16790000  0.76520000  1
  N  N307  1  0.25240000  0.15950000  0.24480000  1
  N  N308  1  0.33270000  0.14400000  0.98510000  1
  N  N309  1  0.28370000  0.11910000  0.50210000  1
  N  N310  1  0.69620000  0.08260000  0.01670000  1
  N  N311  1  0.59040000  0.06890000  0.76530000  1
  N  N312  1  0.66940000  0.05770000  0.52650000  1
  N  N313  1  0.29340000  0.05310000  0.74280000  1
  N  N314  1  0.61890000  0.05260000  0.25450000  1
  N  N315  1  0.31820000  0.04850000  0.21890000  1
  N  N316  1  0.58390000  0.01500000  0.99000000  1
  N  N317  1  0.05880000  0.01130000  0.99140000  1
  N  N318  1  0.00060000  0.00450000  0.27410000  1
  N  N319  1  0.47990000  0.00150000  0.74610000  1
  O  O320  1  0.37380000  0.99890000  0.45610000  1
  O  O321  1  0.37670000  0.98400000  0.33740000  1
  O  O322  1  0.87090000  0.97990000  0.59160000  1
  O  O323  1  0.48200000  0.92820000  0.40270000  1
  O  O324  1  0.48020000  0.92480000  0.90650000  1
  O  O325  1  0.36050000  0.90560000  0.84190000  1
  O  O326  1  0.37630000  0.90110000  0.14360000  1
  O  O327  1  0.24330000  0.88860000  0.09460000  1
  O  O328  1  0.36350000  0.88750000  0.68610000  1
  O  O329  1  0.35760000  0.88700000  0.95990000  1
  O  O330  1  0.34650000  0.87370000  0.40720000  1
  O  O331  1  0.26150000  0.87350000  0.21120000  1
  O  O332  1  0.27080000  0.86080000  0.59670000  1
  O  O333  1  0.22830000  0.84740000  0.70990000  1
  O  O334  1  0.31060000  0.77410000  0.13680000  1
  O  O335  1  0.31950000  0.75290000  0.66360000  1
  O  O336  1  0.68050000  0.74710000  0.16360000  1
  O  O337  1  0.68940000  0.72590000  0.63680000  1
  O  O338  1  0.77170000  0.65260000  0.20990000  1
  O  O339  1  0.72920000  0.63920000  0.09670000  1
  O  O340  1  0.73850000  0.62650000  0.71120000  1
  O  O341  1  0.65350000  0.62630000  0.90720000  1
  O  O342  1  0.64240000  0.61300000  0.45990000  1
  O  O343  1  0.63650000  0.61250000  0.18610000  1
  O  O344  1  0.75670000  0.61140000  0.59460000  1
  O  O345  1  0.62370000  0.59890000  0.64360000  1
  O  O346  1  0.63950000  0.59440000  0.34190000  1
  O  O347  1  0.51980000  0.57520000  0.40650000  1
  O  O348  1  0.51800000  0.57180000  0.90270000  1
  O  O349  1  0.12910000  0.52010000  0.09160000  1
  O  O350  1  0.62330000  0.51600000  0.83740000  1
  O  O351  1  0.62620000  0.50110000  0.95610000  1
  O  O352  1  0.12620000  0.49890000  0.54390000  1
  O  O353  1  0.12330000  0.48400000  0.66260000  1
  O  O354  1  0.62910000  0.47990000  0.40840000  1
  O  O355  1  0.01800000  0.42820000  0.59730000  1
  O  O356  1  0.01980000  0.42480000  0.09350000  1
  O  O357  1  0.13950000  0.40560000  0.15810000  1
  O  O358  1  0.12370000  0.40110000  0.85640000  1
  O  O359  1  0.25670000  0.38860000  0.90540000  1
  O  O360  1  0.13650000  0.38750000  0.31390000  1
  O  O361  1  0.14240000  0.38700000  0.04010000  1
  O  O362  1  0.15350000  0.37370000  0.59280000  1
  O  O363  1  0.23850000  0.37350000  0.78880000  1
  O  O364  1  0.22920000  0.36080000  0.40330000  1
  O  O365  1  0.27170000  0.34740000  0.29010000  1
  O  O366  1  0.18940000  0.27410000  0.86320000  1
  O  O367  1  0.18050000  0.25290000  0.33640000  1
  O  O368  1  0.81950000  0.24710000  0.83640000  1
  O  O369  1  0.81060000  0.22590000  0.36320000  1
  O  O370  1  0.72830000  0.15260000  0.79010000  1
  O  O371  1  0.77080000  0.13920000  0.90330000  1
  O  O372  1  0.76150000  0.12650000  0.28880000  1
  O  O373  1  0.84650000  0.12630000  0.09280000  1
  O  O374  1  0.85760000  0.11300000  0.54010000  1
  O  O375  1  0.86350000  0.11250000  0.81390000  1
  O  O376  1  0.74330000  0.11140000  0.40540000  1
  O  O377  1  0.87630000  0.09890000  0.35640000  1
  O  O378  1  0.86050000  0.09440000  0.65810000  1
  O  O379  1  0.98020000  0.07520000  0.59350000  1
  O  O380  1  0.98200000  0.07180000  0.09730000  1
  O  O381  1  0.37090000  0.02010000  0.90840000  1
  O  O382  1  0.87670000  0.01600000  0.16260000  1
  O  O383  1  0.87380000  0.00110000  0.04390000  1
