# generated using pymatgen
data_CoH8C13NO5
_symmetry_space_group_name_H-M   'P 1'
_cell_length_a   12.50961440
_cell_length_b   12.50961440
_cell_length_c   13.59155265
_cell_angle_alpha   114.55392148
_cell_angle_beta   116.87944169
_cell_angle_gamma   93.28443848
_symmetry_Int_Tables_number   1
_chemical_formula_structural   CoH8C13NO5
_chemical_formula_sum   'Co4 H32 C52 N4 O20'
_cell_volume   1644.91716556
_cell_formula_units_Z   4
loop_
 _symmetry_equiv_pos_site_id
 _symmetry_equiv_pos_as_xyz
  1  'x, y, z'
loop_
 _atom_site_type_symbol
 _atom_site_label
 _atom_site_symmetry_multiplicity
 _atom_site_fract_x
 _atom_site_fract_y
 _atom_site_fract_z
 _atom_site_occupancy
  C  C0  1  0.89210000  0.89690000  0.00840000  1
  C  C1  1  0.61150000  0.11630000  0.50840000  1
  C  C2  1  0.93360000  0.98190000  0.98270000  1
  C  C3  1  0.50080000  0.04910000  0.48270000  1
  C  C4  1  0.76980000  0.86480000  0.97780000  1
  C  C5  1  0.61300000  0.20800000  0.47780000  1
  C  C6  1  0.84600000  0.03360000  0.92600000  1
  C  C7  1  0.39240000  0.08000000  0.42600000  1
  C  C8  1  0.72510000  0.00010000  0.89720000  1
  C  C9  1  0.39710000  0.17210000  0.39720000  1
  C  C10  1  0.05260000  0.67330000  0.55390000  1
  C  C11  1  0.38060000  0.50130000  0.05390000  1
  C  C12  1  0.92740000  0.60950000  0.49330000  1
  C  C13  1  0.38380000  0.56590000  0.99330000  1
  C  C14  1  0.25773000  0.82413000  0.74940000  1
  C  C15  1  0.42527000  0.49167000  0.24940000  1
  C  C16  1  0.43886000  0.76186000  0.99380000  1
  C  C17  1  0.73194000  0.55494000  0.49380000  1
  C  C18  1  0.11863000  0.76253000  0.68050000  1
  C  C19  1  0.41797000  0.56187000  0.18050000  1
  C  C20  1  0.42660000  0.69330000  0.05910000  1
  C  C21  1  0.86580000  0.63250000  0.55910000  1
  C  C22  1  0.05570000  0.78830000  0.74560000  1
  C  C23  1  0.45730000  0.68990000  0.24560000  1
  C  C24  1  0.46210000  0.75500000  0.18570000  1
  C  C25  1  0.93070000  0.72360000  0.68570000  1
  C  C26  1  0.53790000  0.24500000  0.81430000  1
  C  C27  1  0.06930000  0.27640000  0.31430000  1
  C  C28  1  0.94430000  0.21170000  0.25440000  1
  C  C29  1  0.54270000  0.31010000  0.75440000  1
  C  C30  1  0.57340000  0.30670000  0.94090000  1
  C  C31  1  0.13420000  0.36750000  0.44090000  1
  C  C32  1  0.88137000  0.23747000  0.31950000  1
  C  C33  1  0.58203000  0.43813000  0.81950000  1
  C  C34  1  0.56114000  0.23814000  0.00620000  1
  C  C35  1  0.26806000  0.44506000  0.50620000  1
  C  C36  1  0.74227000  0.17587000  0.25060000  1
  C  C37  1  0.57473000  0.50833000  0.75060000  1
  C  C38  1  0.07260000  0.39050000  0.50670000  1
  C  C39  1  0.61620000  0.43410000  0.00670000  1
  C  C40  1  0.94740000  0.32670000  0.44610000  1
  C  C41  1  0.61940000  0.49870000  0.94610000  1
  C  C42  1  0.27490000  0.99990000  0.10280000  1
  C  C43  1  0.60290000  0.82790000  0.60280000  1
  C  C44  1  0.15400000  0.96640000  0.07400000  1
  C  C45  1  0.60760000  0.92000000  0.57400000  1
  C  C46  1  0.23020000  0.13520000  0.02220000  1
  C  C47  1  0.38700000  0.79200000  0.52220000  1
  C  C48  1  0.06640000  0.01810000  0.01730000  1
  C  C49  1  0.49920000  0.95090000  0.51730000  1
  C  C50  1  0.10790000  0.10310000  0.99160000  1
  C  C51  1  0.38850000  0.88370000  0.49160000  1
  Co  Co52  1  0.44734000  0.69734000  0.75000000  1
  Co  Co53  1  0.55266000  0.30266000  0.25000000  1
  Co  Co54  1  0.50000000  1.00000000  1.00000000  1
  Co  Co55  1  0.50000000  0.50000000  0.50000000  1
  H  H56  1  0.31410000  0.90110000  0.45300000  1
  H  H57  1  0.05190000  0.13890000  0.95300000  1
  H  H58  1  0.74400000  0.80860000  0.99680000  1
  H  H59  1  0.68820000  0.25280000  0.49680000  1
  H  H60  1  0.09300000  0.65570000  0.50850000  1
  H  H61  1  0.35280000  0.41550000  0.00850000  1
  H  H62  1  0.88420000  0.55070000  0.40750000  1
  H  H63  1  0.35680000  0.52330000  0.90750000  1
  H  H64  1  0.31630000  0.03770000  0.40760000  1
  H  H65  1  0.86990000  0.09130000  0.90760000  1
  H  H66  1  0.66820000  0.03670000  0.86130000  1
  H  H67  1  0.32460000  0.19310000  0.36130000  1
  H  H68  1  0.51050000  0.15920000  0.76910000  1
  H  H69  1  0.90210000  0.15020000  0.16970000  1
  H  H70  1  0.51950000  0.26760000  0.66970000  1
  H  H71  1  0.10990000  0.25860000  0.26910000  1
  H  H72  1  0.09790000  0.84980000  0.83030000  1
  H  H73  1  0.48950000  0.84080000  0.23090000  1
  H  H74  1  0.89010000  0.74140000  0.73090000  1
  H  H75  1  0.48050000  0.73240000  0.33030000  1
  H  H76  1  0.33180000  0.96330000  0.13870000  1
  H  H77  1  0.67540000  0.80690000  0.63870000  1
  H  H78  1  0.68370000  0.96230000  0.59240000  1
  H  H79  1  0.13010000  0.90870000  0.09240000  1
  H  H80  1  0.11580000  0.44930000  0.59250000  1
  H  H81  1  0.64320000  0.47670000  0.09250000  1
  H  H82  1  0.90700000  0.34430000  0.49150000  1
  H  H83  1  0.64720000  0.58450000  0.99150000  1
  H  H84  1  0.25600000  0.19140000  0.00320000  1
  H  H85  1  0.31180000  0.74720000  0.50320000  1
  H  H86  1  0.68590000  0.09890000  0.54700000  1
  H  H87  1  0.94810000  0.86110000  0.04700000  1
  N  N88  1  0.68753000  0.91463000  0.92030000  1
  N  N89  1  0.50567000  0.23277000  0.42030000  1
  N  N90  1  0.31247000  0.08537000  0.07970000  1
  N  N91  1  0.49433000  0.76723000  0.57970000  1
  O  O92  1  0.31174000  0.77892000  0.68970000  1
  O  O93  1  0.41078000  0.37796000  0.18970000  1
  O  O94  1  0.40332000  0.69632000  0.87880000  1
  O  O95  1  0.68248000  0.47548000  0.37880000  1
  O  O96  1  0.56765000  0.88137000  0.88660000  1
  O  O97  1  0.50523000  0.31895000  0.38660000  1
  O  O98  1  0.48499000  0.87759000  0.06050000  1
  O  O99  1  0.68291000  0.57551000  0.56050000  1
  O  O100  1  0.30973000  0.91389000  0.86010000  1
  O  O101  1  0.44621000  0.55037000  0.36010000  1
  O  O102  1  0.69027000  0.08611000  0.13990000  1
  O  O103  1  0.55379000  0.44963000  0.63990000  1
  O  O104  1  0.51501000  0.12241000  0.93950000  1
  O  O105  1  0.31709000  0.42449000  0.43950000  1
  O  O106  1  0.43235000  0.11863000  0.11340000  1
  O  O107  1  0.49477000  0.68105000  0.61340000  1
  O  O108  1  0.59668000  0.30368000  0.12120000  1
  O  O109  1  0.31752000  0.52452000  0.62120000  1
  O  O110  1  0.68826000  0.22108000  0.31030000  1
  O  O111  1  0.58922000  0.62204000  0.81030000  1
