# generated using pymatgen
data_ScH6(C2O)6
_symmetry_space_group_name_H-M   'P 1'
_cell_length_a   8.71570000
_cell_length_b   11.24060000
_cell_length_c   17.72654000
_cell_angle_alpha   84.53076737
_cell_angle_beta   75.76839019
_cell_angle_gamma   67.18930000
_symmetry_Int_Tables_number   1
_chemical_formula_structural   ScH6(C2O)6
_chemical_formula_sum   'Sc4 H24 C48 O24'
_cell_volume   1551.71060873
_cell_formula_units_Z   4
loop_
 _symmetry_equiv_pos_site_id
 _symmetry_equiv_pos_as_xyz
  1  'x, y, z'
loop_
 _atom_site_type_symbol
 _atom_site_label
 _atom_site_symmetry_multiplicity
 _atom_site_fract_x
 _atom_site_fract_y
 _atom_site_fract_z
 _atom_site_occupancy
  Sc  Sc0  1  0.63555000  0.25000000  0.22890000  1
  Sc  Sc1  1  0.88555000  0.75000000  0.72890000  1
  Sc  Sc2  1  0.11445000  0.25000000  0.27110000  1
  Sc  Sc3  1  0.36445000  0.75000000  0.77110000  1
  H  H4  1  0.18867000  0.12785000  0.75082000  1
  H  H5  1  0.29551000  0.92427000  0.60102000  1
  H  H6  1  0.06735000  0.37215000  0.74918000  1
  H  H7  1  0.39847000  0.42365000  0.39850000  1
  H  H8  1  0.74339000  0.06102000  0.01707000  1
  H  H9  1  0.73954000  0.43898000  0.01707000  1
  H  H10  1  0.82081000  0.57573000  0.89898000  1
  H  H11  1  0.18007000  0.55798000  0.51350000  1
  H  H12  1  0.43950000  0.62785000  0.24918000  1
  H  H13  1  0.78021000  0.92427000  0.89898000  1
  H  H14  1  0.19558000  0.06102000  0.48293000  1
  H  H15  1  0.31653000  0.87215000  0.25082000  1
  H  H16  1  0.68347000  0.12785000  0.74918000  1
  H  H17  1  0.22062000  0.07635000  0.10150000  1
  H  H18  1  0.80442000  0.93898000  0.51707000  1
  H  H19  1  0.56050000  0.37215000  0.75082000  1
  H  H20  1  0.82148000  0.43898000  0.48293000  1
  H  H21  1  0.17788000  0.42365000  0.10150000  1
  H  H22  1  0.26046000  0.56102000  0.98293000  1
  H  H23  1  0.25156000  0.94202000  0.98650000  1
  H  H24  1  0.60153000  0.57635000  0.60150000  1
  H  H25  1  0.93265000  0.62785000  0.25082000  1
  H  H26  1  0.70303000  0.07635000  0.39850000  1
  H  H27  1  0.81133000  0.87215000  0.24918000  1
  C  C28  1  0.04844000  0.56290000  0.93602000  1
  C  C29  1  0.09630000  0.63924000  0.86756000  1
  C  C30  1  0.38866000  0.56290000  0.56398000  1
  C  C31  1  0.38534000  0.96080000  0.55592000  1
  C  C32  1  0.26446000  0.63924000  0.63244000  1
  C  C33  1  0.45264000  0.06290000  0.43602000  1
  C  C34  1  0.44126000  0.46080000  0.44408000  1
  C  C35  1  0.85314000  0.46944000  0.00848000  1
  C  C36  1  0.90206000  0.53920000  0.94408000  1
  C  C37  1  0.32258000  0.53056000  0.50848000  1
  C  C38  1  0.33106000  0.03056000  0.49152000  1
  C  C39  1  0.04819000  0.18286000  0.75024000  1
  C  C40  1  0.39690000  0.13924000  0.36756000  1
  C  C41  1  0.01050000  0.97900000  0.75000000  1
  C  C42  1  0.98129000  0.31714000  0.74976000  1
  C  C43  1  0.94036000  0.11928000  0.75000000  1
  C  C44  1  0.63838000  0.03056000  0.00848000  1
  C  C45  1  0.65386000  0.96080000  0.94408000  1
  C  C46  1  0.46386000  0.13924000  0.13244000  1
  C  C47  1  0.80964000  0.38072000  0.75000000  1
  C  C48  1  0.48446000  0.06290000  0.06398000  1
  C  C49  1  0.29843000  0.68286000  0.24976000  1
  C  C50  1  0.76895000  0.18286000  0.74976000  1
  C  C51  1  0.26050000  0.47900000  0.25000000  1
  C  C52  1  0.73950000  0.52100000  0.75000000  1
  C  C53  1  0.23105000  0.81714000  0.25024000  1
  C  C54  1  0.70157000  0.31714000  0.75024000  1
  C  C55  1  0.51554000  0.93710000  0.93602000  1
  C  C56  1  0.19036000  0.61928000  0.25000000  1
  C  C57  1  0.53614000  0.86076000  0.86756000  1
  C  C58  1  0.34614000  0.03920000  0.05592000  1
  C  C59  1  0.36162000  0.96944000  0.99152000  1
  C  C60  1  0.05964000  0.88072000  0.25000000  1
  C  C61  1  0.01871000  0.68286000  0.25024000  1
  C  C62  1  0.98950000  0.02100000  0.25000000  1
  C  C63  1  0.60310000  0.86076000  0.63244000  1
  C  C64  1  0.95181000  0.81714000  0.24976000  1
  C  C65  1  0.66894000  0.96944000  0.50848000  1
  C  C66  1  0.67742000  0.46944000  0.49152000  1
  C  C67  1  0.09794000  0.46080000  0.05592000  1
  C  C68  1  0.14686000  0.53056000  0.99152000  1
  C  C69  1  0.55874000  0.53920000  0.55592000  1
  C  C70  1  0.54736000  0.93710000  0.56398000  1
  C  C71  1  0.73554000  0.36076000  0.36756000  1
  C  C72  1  0.61466000  0.03920000  0.44408000  1
  C  C73  1  0.61134000  0.43710000  0.43602000  1
  C  C74  1  0.90370000  0.36076000  0.13244000  1
  C  C75  1  0.95156000  0.43710000  0.06398000  1
  O  O76  1  0.68147000  0.33138000  0.31544000  1
  O  O77  1  0.77766000  0.33072000  0.14148000  1
  O  O78  1  0.14766000  0.91744000  0.77084000  1
  O  O79  1  0.01285000  0.66862000  0.81544000  1
  O  O80  1  0.50309000  0.16862000  0.31544000  1
  O  O81  1  0.10838000  0.66928000  0.64148000  1
  O  O82  1  0.58086000  0.16928000  0.14148000  1
  O  O83  1  0.93490000  0.91744000  0.72916000  1
  O  O84  1  0.41850000  0.41744000  0.22916000  1
  O  O85  1  0.24986000  0.16928000  0.35852000  1
  O  O86  1  0.83594000  0.58256000  0.72916000  1
  O  O87  1  0.32829000  0.16862000  0.18456000  1
  O  O88  1  0.67171000  0.83138000  0.81544000  1
  O  O89  1  0.16406000  0.41744000  0.27084000  1
  O  O90  1  0.75014000  0.83072000  0.64148000  1
  O  O91  1  0.58150000  0.58256000  0.77084000  1
  O  O92  1  0.06510000  0.08256000  0.27084000  1
  O  O93  1  0.41914000  0.83072000  0.85852000  1
  O  O94  1  0.89162000  0.33072000  0.35852000  1
  O  O95  1  0.49691000  0.83138000  0.68456000  1
  O  O96  1  0.98715000  0.33138000  0.18456000  1
  O  O97  1  0.85234000  0.08256000  0.22916000  1
  O  O98  1  0.22234000  0.66928000  0.85852000  1
  O  O99  1  0.31853000  0.66862000  0.68456000  1
