# generated using pymatgen
data_CdH9C11(N3O2)2
_symmetry_space_group_name_H-M   'P 1'
_cell_length_a   10.85120000
_cell_length_b   11.01400000
_cell_length_c   17.23700000
_cell_angle_alpha   106.17100000
_cell_angle_beta   90.00000000
_cell_angle_gamma   90.00000000
_symmetry_Int_Tables_number   1
_chemical_formula_structural   CdH9C11(N3O2)2
_chemical_formula_sum   'Cd4 H36 C44 N24 O16'
_cell_volume   1978.57445310
_cell_formula_units_Z   4
loop_
 _symmetry_equiv_pos_site_id
 _symmetry_equiv_pos_as_xyz
  1  'x, y, z'
loop_
 _atom_site_type_symbol
 _atom_site_label
 _atom_site_symmetry_multiplicity
 _atom_site_fract_x
 _atom_site_fract_y
 _atom_site_fract_z
 _atom_site_occupancy
  Cd  Cd0  1  0.18550000  0.37870000  0.18443000  1
  Cd  Cd1  1  0.31450000  0.87870000  0.68443000  1
  Cd  Cd2  1  0.68550000  0.12130000  0.31557000  1
  Cd  Cd3  1  0.81450000  0.62130000  0.81557000  1
  H  H4  1  0.04820000  0.91090000  0.11810000  1
  H  H5  1  0.09010000  0.78470000  0.81690000  1
  H  H6  1  0.09100000  0.23160000  0.99100000  1
  H  H7  1  0.12930000  0.00710000  0.08670000  1
  H  H8  1  0.15280000  0.60480000  0.44900000  1
  H  H9  1  0.16620000  0.44800000  0.00180000  1
  H  H10  1  0.19630000  0.70760000  0.20560000  1
  H  H11  1  0.20890000  0.35690000  0.55610000  1
  H  H12  1  0.24110000  0.39610000  0.64950000  1
  H  H13  1  0.25890000  0.89610000  0.14950000  1
  H  H14  1  0.29110000  0.85690000  0.05610000  1
  H  H15  1  0.30370000  0.20760000  0.70560000  1
  H  H16  1  0.33380000  0.94800000  0.50180000  1
  H  H17  1  0.34720000  0.10480000  0.94900000  1
  H  H18  1  0.37070000  0.50710000  0.58670000  1
  H  H19  1  0.40900000  0.73160000  0.49100000  1
  H  H20  1  0.40990000  0.28470000  0.31690000  1
  H  H21  1  0.45180000  0.41090000  0.61810000  1
  H  H22  1  0.54820000  0.58910000  0.38190000  1
  H  H23  1  0.59010000  0.71530000  0.68310000  1
  H  H24  1  0.59100000  0.26840000  0.50900000  1
  H  H25  1  0.62930000  0.49290000  0.41330000  1
  H  H26  1  0.65280000  0.89520000  0.05100000  1
  H  H27  1  0.66620000  0.05200000  0.49820000  1
  H  H28  1  0.69630000  0.79240000  0.29440000  1
  H  H29  1  0.70890000  0.14310000  0.94390000  1
  H  H30  1  0.74110000  0.10390000  0.85050000  1
  H  H31  1  0.75890000  0.60390000  0.35050000  1
  H  H32  1  0.79110000  0.64310000  0.44390000  1
  H  H33  1  0.80370000  0.29240000  0.79440000  1
  H  H34  1  0.83380000  0.55200000  0.99820000  1
  H  H35  1  0.84720000  0.39520000  0.55100000  1
  H  H36  1  0.87070000  0.99290000  0.91330000  1
  H  H37  1  0.90900000  0.76840000  0.00900000  1
  H  H38  1  0.90990000  0.21530000  0.18310000  1
  H  H39  1  0.95180000  0.08910000  0.88190000  1
  C  C40  1  0.02530000  0.46500000  0.41710000  1
  C  C41  1  0.03250000  0.21190000  0.02590000  1
  C  C42  1  0.06180000  0.42760000  0.32960000  1
  C  C43  1  0.06730000  0.59810000  0.55190000  1
  C  C44  1  0.06760000  0.79820000  0.87130000  1
  C  C45  1  0.09110000  0.56250000  0.46970000  1
  C  C46  1  0.11190000  0.91730000  0.07910000  1
  C  C47  1  0.14730000  0.69790000  0.60620000  1
  C  C48  1  0.17660000  0.52690000  0.03990000  1
  C  C49  1  0.19230000  0.66460000  0.15030000  1
  C  C50  1  0.22770000  0.85230000  0.09570000  1
  C  C51  1  0.27230000  0.35230000  0.59570000  1
  C  C52  1  0.30770000  0.16460000  0.65030000  1
  C  C53  1  0.32340000  0.02690000  0.53990000  1
  C  C54  1  0.35270000  0.19790000  0.10620000  1
  C  C55  1  0.38810000  0.41730000  0.57910000  1
  C  C56  1  0.40890000  0.06250000  0.96970000  1
  C  C57  1  0.43240000  0.29820000  0.37130000  1
  C  C58  1  0.43270000  0.09810000  0.05190000  1
  C  C59  1  0.43820000  0.92760000  0.82960000  1
  C  C60  1  0.46750000  0.71190000  0.52590000  1
  C  C61  1  0.47470000  0.96500000  0.91710000  1
  C  C62  1  0.52530000  0.03500000  0.08290000  1
  C  C63  1  0.53250000  0.28810000  0.47410000  1
  C  C64  1  0.56180000  0.07240000  0.17040000  1
  C  C65  1  0.56730000  0.90190000  0.94810000  1
  C  C66  1  0.56760000  0.70180000  0.62870000  1
  C  C67  1  0.59110000  0.93750000  0.03030000  1
  C  C68  1  0.61190000  0.58270000  0.42090000  1
  C  C69  1  0.64730000  0.80210000  0.89380000  1
  C  C70  1  0.67660000  0.97310000  0.46010000  1
  C  C71  1  0.69230000  0.83540000  0.34970000  1
  C  C72  1  0.72770000  0.64770000  0.40430000  1
  C  C73  1  0.77230000  0.14770000  0.90430000  1
  C  C74  1  0.80770000  0.33540000  0.84970000  1
  C  C75  1  0.82340000  0.47310000  0.96010000  1
  C  C76  1  0.85270000  0.30210000  0.39380000  1
  C  C77  1  0.88810000  0.08270000  0.92090000  1
  C  C78  1  0.90890000  0.43750000  0.53030000  1
  C  C79  1  0.93240000  0.20180000  0.12870000  1
  C  C80  1  0.93270000  0.40190000  0.44810000  1
  C  C81  1  0.93820000  0.57240000  0.67040000  1
  C  C82  1  0.96750000  0.78810000  0.97410000  1
  C  C83  1  0.97470000  0.53500000  0.58290000  1
  N  N84  1  0.03490000  0.25380000  0.10590000  1
  N  N85  1  0.06530000  0.86240000  0.99740000  1
  N  N86  1  0.13310000  0.86890000  0.93130000  1
  N  N87  1  0.17450000  0.54100000  0.12060000  1
  N  N88  1  0.19430000  0.63120000  0.01900000  1
  N  N89  1  0.20370000  0.71870000  0.09110000  1
  N  N90  1  0.29630000  0.21870000  0.59110000  1
  N  N91  1  0.30570000  0.13120000  0.51900000  1
  N  N92  1  0.32550000  0.04100000  0.62060000  1
  N  N93  1  0.36690000  0.36890000  0.43130000  1
  N  N94  1  0.43470000  0.36240000  0.49740000  1
  N  N95  1  0.46510000  0.75380000  0.60590000  1
  N  N96  1  0.53490000  0.24620000  0.39410000  1
  N  N97  1  0.56530000  0.63760000  0.50260000  1
  N  N98  1  0.63310000  0.63110000  0.56870000  1
  N  N99  1  0.67450000  0.95900000  0.37940000  1
  N  N100  1  0.69430000  0.86880000  0.48100000  1
  N  N101  1  0.70370000  0.78130000  0.40890000  1
  N  N102  1  0.79630000  0.28130000  0.90890000  1
  N  N103  1  0.80570000  0.36880000  0.98100000  1
  N  N104  1  0.82550000  0.45900000  0.87940000  1
  N  N105  1  0.86690000  0.13110000  0.06870000  1
  N  N106  1  0.93470000  0.13760000  0.00260000  1
  N  N107  1  0.96510000  0.74620000  0.89410000  1
  O  O108  1  0.05570000  0.51050000  0.29160000  1
  O  O109  1  0.10550000  0.32030000  0.29859000  1
  O  O110  1  0.18020000  0.78840000  0.57880000  1
  O  O111  1  0.18050000  0.68740000  0.67270000  1
  O  O112  1  0.31950000  0.18740000  0.17270000  1
  O  O113  1  0.31980000  0.28840000  0.07880000  1
  O  O114  1  0.39450000  0.82030000  0.79859000  1
  O  O115  1  0.44430000  0.01050000  0.79160000  1
  O  O116  1  0.55570000  0.98950000  0.20840000  1
  O  O117  1  0.60550000  0.17970000  0.20141000  1
  O  O118  1  0.68020000  0.71160000  0.92120000  1
  O  O119  1  0.68050000  0.81260000  0.82730000  1
  O  O120  1  0.81950000  0.31260000  0.32730000  1
  O  O121  1  0.81980000  0.21160000  0.42120000  1
  O  O122  1  0.89450000  0.67970000  0.70141000  1
  O  O123  1  0.94430000  0.48950000  0.70840000  1
