# generated using pymatgen
data_AgH12(C3N)6
_symmetry_space_group_name_H-M   'P 1'
_cell_length_a   13.75063207
_cell_length_b   13.75063207
_cell_length_c   24.61413536
_cell_angle_alpha   101.54244418
_cell_angle_beta   101.52627837
_cell_angle_gamma   106.50771129
_symmetry_Int_Tables_number   1
_chemical_formula_structural   AgH12(C3N)6
_chemical_formula_sum   'Ag8 H96 C144 N48'
_cell_volume   4205.60247968
_cell_formula_units_Z   8
loop_
 _symmetry_equiv_pos_site_id
 _symmetry_equiv_pos_as_xyz
  1  'x, y, z'
loop_
 _atom_site_type_symbol
 _atom_site_label
 _atom_site_symmetry_multiplicity
 _atom_site_fract_x
 _atom_site_fract_y
 _atom_site_fract_z
 _atom_site_occupancy
  Ag  Ag0  1  0.20556000  0.92718000  0.13232000  1
  Ag  Ag1  1  0.20514000  0.42676000  0.63232000  1
  Ag  Ag2  1  0.43452000  0.61440000  0.63180000  1
  Ag  Ag3  1  0.01740000  0.69728000  0.13180000  1
  Ag  Ag4  1  0.56548000  0.38560000  0.36820000  1
  Ag  Ag5  1  0.98260000  0.30272000  0.86820000  1
  Ag  Ag6  1  0.79444000  0.07282000  0.86768000  1
  Ag  Ag7  1  0.79486000  0.57324000  0.36768000  1
  C  C8  1  0.38315000  0.88592000  0.52467000  1
  C  C9  1  0.63875000  0.64152000  0.02467000  1
  C  C10  1  0.16278000  0.11555000  0.97833000  1
  C  C11  1  0.86278000  0.31555000  0.47833000  1
  C  C12  1  0.15964000  0.70526000  0.58090000  1
  C  C13  1  0.87564000  0.92126000  0.08090000  1
  C  C14  1  0.13147000  0.58523000  0.49050000  1
  C  C15  1  0.90527000  0.85903000  0.99050000  1
  C  C16  1  0.39977000  0.90618000  0.58415000  1
  C  C17  1  0.67797000  0.68438000  0.08415000  1
  C  C18  1  0.37722000  0.78550000  0.49452000  1
  C  C19  1  0.70902000  0.61730000  0.99452000  1
  C  C20  1  0.47274000  0.37851000  0.00605000  1
  C  C21  1  0.62754000  0.03331000  0.50605000  1
  C  C22  1  0.27433000  0.13118000  0.00731000  1
  C  C23  1  0.87613000  0.23298000  0.50731000  1
  C  C24  1  0.17705000  0.63010000  0.60715000  1
  C  C25  1  0.97705000  0.93010000  0.10715000  1
  C  C26  1  0.14947000  0.51353000  0.52020000  1
  C  C27  1  0.00667000  0.87073000  0.02020000  1
  C  C28  1  0.41349000  0.83083000  0.61112000  1
  C  C29  1  0.78029000  0.69763000  0.11112000  1
  C  C30  1  0.39196000  0.71504000  0.52520000  1
  C  C31  1  0.81016000  0.63324000  0.02520000  1
  C  C32  1  0.60450000  0.43655000  0.08825000  1
  C  C33  1  0.65170000  0.98375000  0.58825000  1
  C  C34  1  0.56626000  0.72133000  0.41179000  1
  C  C35  1  0.69046000  0.34553000  0.91179000  1
  C  C36  1  0.62092000  0.86690000  0.50282000  1
  C  C37  1  0.63592000  0.38190000  0.00282000  1
  C  C38  1  0.57866000  0.49675000  0.18561000  1
  C  C39  1  0.68886000  0.10695000  0.68561000  1
  C  C40  1  0.43512000  0.12862000  0.00174000  1
  C  C41  1  0.87312000  0.06662000  0.50174000  1
  C  C42  1  0.48093000  0.07776000  0.90809000  1
  C  C43  1  0.83033000  0.92716000  0.40809000  1
  C  C44  1  0.38800000  0.25926000  0.18386000  1
  C  C45  1  0.92460000  0.29586000  0.68386000  1
  C  C46  1  0.64543000  0.48022000  0.15185000  1
  C  C47  1  0.67163000  0.00642000  0.65185000  1
  C  C48  1  0.40643000  0.17712000  0.08855000  1
  C  C49  1  0.91143000  0.18212000  0.58855000  1
  C  C50  1  0.60791000  0.75781000  0.47072000  1
  C  C51  1  0.71291000  0.36281000  0.97072000  1
  C  C52  1  0.55596000  0.61851000  0.38467000  1
  C  C53  1  0.76616000  0.32871000  0.88467000  1
  C  C54  1  0.62050000  0.53045000  0.24475000  1
  C  C55  1  0.71430000  0.12425000  0.74475000  1
  C  C56  1  0.50985000  0.10884000  0.96749000  1
  C  C57  1  0.85865000  0.95764000  0.46749000  1
  C  C58  1  0.55552000  0.06209000  0.88001000  1
  C  C59  1  0.81792000  0.82449000  0.38001000  1
  C  C60  1  0.43000000  0.29948000  0.24328000  1
  C  C61  1  0.94380000  0.31328000  0.74328000  1
  C  C62  1  0.44820000  0.21884000  0.15244000  1
  C  C63  1  0.93360000  0.20424000  0.65244000  1
  C  C64  1  0.67358000  0.92787000  0.67865000  1
  C  C65  1  0.75078000  0.50507000  0.17865000  1
  C  C66  1  0.41830000  0.73748000  0.75918000  1
  C  C67  1  0.02170000  0.84088000  0.25918000  1
  C  C68  1  0.63678000  0.69056000  0.50014000  1
  C  C69  1  0.80958000  0.36336000  0.00014000  1
  C  C70  1  0.32038000  0.89896000  0.03434000  1
  C  C71  1  0.13538000  0.21396000  0.53434000  1
  C  C72  1  0.69830000  0.95191000  0.73781000  1
  C  C73  1  0.78590000  0.53951000  0.23781000  1
  C  C74  1  0.61078000  0.11975000  0.99673000  1
  C  C75  1  0.87698000  0.88595000  0.49673000  1
  C  C76  1  0.45387000  0.77900000  0.81827000  1
  C  C77  1  0.03927000  0.86440000  0.31827000  1
  C  C78  1  0.37456000  0.40999000  0.53035000  1
  C  C79  1  0.12036000  0.65579000  0.03035000  1
  C  C80  1  0.62544000  0.59001000  0.46965000  1
  C  C81  1  0.87964000  0.34421000  0.96965000  1
  C  C82  1  0.54613000  0.22100000  0.18173000  1
  C  C83  1  0.96073000  0.13560000  0.68173000  1
  C  C84  1  0.38922000  0.88025000  0.00327000  1
  C  C85  1  0.12302000  0.11405000  0.50327000  1
  C  C86  1  0.30170000  0.04809000  0.26219000  1
  C  C87  1  0.21410000  0.46049000  0.76219000  1
  C  C88  1  0.67962000  0.10104000  0.96566000  1
  C  C89  1  0.86462000  0.78604000  0.46566000  1
  C  C90  1  0.36322000  0.30944000  0.49986000  1
  C  C91  1  0.19042000  0.63664000  0.99986000  1
  C  C92  1  0.58170000  0.26252000  0.24082000  1
  C  C93  1  0.97830000  0.15912000  0.74082000  1
  C  C94  1  0.32642000  0.07213000  0.32135000  1
  C  C95  1  0.24922000  0.49493000  0.82135000  1
  C  C96  1  0.55180000  0.78116000  0.84756000  1
  C  C97  1  0.06640000  0.79576000  0.34756000  1
  C  C98  1  0.57000000  0.70052000  0.75672000  1
  C  C99  1  0.05620000  0.68672000  0.25672000  1
  C  C100  1  0.44448000  0.93791000  0.11999000  1
  C  C101  1  0.18208000  0.17551000  0.61999000  1
  C  C102  1  0.49015000  0.89116000  0.03251000  1
  C  C103  1  0.14135000  0.04236000  0.53251000  1
  C  C104  1  0.37950000  0.46955000  0.75525000  1
  C  C105  1  0.28570000  0.87575000  0.25525000  1
  C  C106  1  0.44404000  0.38149000  0.61533000  1
  C  C107  1  0.23384000  0.67129000  0.11533000  1
  C  C108  1  0.39209000  0.24219000  0.52928000  1
  C  C109  1  0.28709000  0.63719000  0.02928000  1
  C  C110  1  0.59357000  0.82288000  0.91145000  1
  C  C111  1  0.08857000  0.81788000  0.41145000  1
  C  C112  1  0.35457000  0.51978000  0.84815000  1
  C  C113  1  0.32837000  0.99358000  0.34815000  1
  C  C114  1  0.61200000  0.74074000  0.81614000  1
  C  C115  1  0.07540000  0.70414000  0.31614000  1
  C  C116  1  0.51907000  0.92224000  0.09191000  1
  C  C117  1  0.16967000  0.07284000  0.59191000  1
  C  C118  1  0.56488000  0.87138000  0.99826000  1
  C  C119  1  0.12688000  0.93338000  0.49826000  1
  C  C120  1  0.42134000  0.50325000  0.81439000  1
  C  C121  1  0.31114000  0.89305000  0.31439000  1
  C  C122  1  0.37908000  0.13310000  0.49718000  1
  C  C123  1  0.36408000  0.61810000  0.99718000  1
  C  C124  1  0.43374000  0.27867000  0.58821000  1
  C  C125  1  0.30954000  0.65447000  0.08821000  1
  C  C126  1  0.39550000  0.56345000  0.91175000  1
  C  C127  1  0.34830000  0.01625000  0.41175000  1
  C  C128  1  0.60804000  0.28496000  0.47480000  1
  C  C129  1  0.18984000  0.36676000  0.97480000  1
  C  C130  1  0.58651000  0.16917000  0.38888000  1
  C  C131  1  0.21971000  0.30237000  0.88888000  1
  C  C132  1  0.85053000  0.48647000  0.47980000  1
  C  C133  1  0.99333000  0.12927000  0.97980000  1
  C  C134  1  0.82295000  0.36990000  0.39285000  1
  C  C135  1  0.02295000  0.06990000  0.89285000  1
  C  C136  1  0.72567000  0.86882000  0.99269000  1
  C  C137  1  0.12387000  0.76702000  0.49269000  1
  C  C138  1  0.52726000  0.62149000  0.99395000  1
  C  C139  1  0.37246000  0.96669000  0.49395000  1
  C  C140  1  0.62278000  0.21450000  0.50548000  1
  C  C141  1  0.29098000  0.38270000  0.00548000  1
  C  C142  1  0.60023000  0.09382000  0.41585000  1
  C  C143  1  0.32203000  0.31562000  0.91585000  1
  C  C144  1  0.86853000  0.41477000  0.50950000  1
  C  C145  1  0.09473000  0.14097000  0.00950000  1
  C  C146  1  0.84036000  0.29474000  0.41910000  1
  C  C147  1  0.12436000  0.07874000  0.91910000  1
  C  C148  1  0.83722000  0.88445000  0.02167000  1
  C  C149  1  0.13722000  0.68445000  0.52167000  1
  C  C150  1  0.61685000  0.11408000  0.47533000  1
  C  C151  1  0.36125000  0.35848000  0.97533000  1
  H  H152  1  0.11700000  0.16530000  0.04950000  1
  H  H153  1  0.88420000  0.43250000  0.54950000  1
  H  H154  1  0.16700000  0.05980000  0.89700000  1
  H  H155  1  0.83720000  0.23000000  0.39700000  1
  H  H156  1  0.40170000  0.97090000  0.60560000  1
  H  H157  1  0.63470000  0.70390000  0.10560000  1
  H  H158  1  0.36350000  0.76690000  0.45460000  1
  H  H159  1  0.68770000  0.59110000  0.95460000  1
  H  H160  1  0.54540000  0.76440000  0.39060000  1
  H  H161  1  0.62620000  0.34520000  0.89060000  1
  H  H162  1  0.50800000  0.48550000  0.16890000  1
  H  H163  1  0.68340000  0.16090000  0.66890000  1
  H  H164  1  0.19240000  0.64610000  0.64710000  1
  H  H165  1  0.00100000  0.95470000  0.14710000  1
  H  H166  1  0.14510000  0.44760000  0.49910000  1
  H  H167  1  0.05150000  0.85400000  0.99910000  1
  H  H168  1  0.32180000  0.25930000  0.16570000  1
  H  H169  1  0.90640000  0.34390000  0.66570000  1
  H  H170  1  0.42580000  0.84680000  0.65100000  1
  H  H171  1  0.80420000  0.72520000  0.15100000  1
  H  H172  1  0.41270000  0.06740000  0.88730000  1
  H  H173  1  0.81990000  0.97460000  0.38730000  1
  H  H174  1  0.38930000  0.64930000  0.50480000  1
  H  H175  1  0.85550000  0.61550000  0.00480000  1
  H  H176  1  0.52600000  0.59360000  0.34500000  1
  H  H177  1  0.75140000  0.31900000  0.84500000  1
  H  H178  1  0.57530000  0.53980000  0.26730000  1
  H  H179  1  0.72750000  0.19200000  0.76730000  1
  H  H180  1  0.38970000  0.32620000  0.26430000  1
  H  H181  1  0.93810000  0.37460000  0.76430000  1
  H  H182  1  0.53620000  0.04310000  0.83990000  1
  H  H183  1  0.79680000  0.80370000  0.33990000  1
  H  H184  1  0.35250000  0.73680000  0.74010000  1
  H  H185  1  0.00330000  0.88760000  0.24010000  1
  H  H186  1  0.25270000  0.89190000  0.01420000  1
  H  H187  1  0.12230000  0.26150000  0.51420000  1
  H  H188  1  0.35430000  0.45460000  0.51010000  1
  H  H189  1  0.05550000  0.65580000  0.01010000  1
  H  H190  1  0.30060000  0.10190000  0.24470000  1
  H  H191  1  0.14280000  0.44410000  0.74470000  1
  H  H192  1  0.41210000  0.80540000  0.83830000  1
  H  H193  1  0.03290000  0.92620000  0.33830000  1
  H  H194  1  0.65820000  0.85910000  0.65690000  1
  H  H195  1  0.79780000  0.49870000  0.15690000  1
  H  H196  1  0.36810000  0.86070000  0.96320000  1
  H  H197  1  0.10250000  0.09510000  0.46320000  1
  H  H198  1  0.66340000  0.71240000  0.54000000  1
  H  H199  1  0.82760000  0.37660000  0.04000000  1
  H  H200  1  0.33660000  0.28760000  0.46000000  1
  H  H201  1  0.17240000  0.62340000  0.96000000  1
  H  H202  1  0.63190000  0.13930000  0.03680000  1
  H  H203  1  0.89750000  0.90490000  0.53680000  1
  H  H204  1  0.34180000  0.14090000  0.34310000  1
  H  H205  1  0.20220000  0.50130000  0.84310000  1
  H  H206  1  0.58790000  0.19460000  0.16170000  1
  H  H207  1  0.96710000  0.07380000  0.66170000  1
  H  H208  1  0.69940000  0.89810000  0.75530000  1
  H  H209  1  0.85720000  0.55590000  0.25530000  1
  H  H210  1  0.64570000  0.54540000  0.48990000  1
  H  H211  1  0.94450000  0.34420000  0.98990000  1
  H  H212  1  0.74730000  0.10810000  0.98580000  1
  H  H213  1  0.87770000  0.73850000  0.48580000  1
  H  H214  1  0.64750000  0.26320000  0.25990000  1
  H  H215  1  0.99670000  0.11240000  0.75990000  1
  H  H216  1  0.46380000  0.95690000  0.16010000  1
  H  H217  1  0.20320000  0.19630000  0.66010000  1
  H  H218  1  0.61030000  0.67380000  0.73570000  1
  H  H219  1  0.06190000  0.62540000  0.23570000  1
  H  H220  1  0.42470000  0.46020000  0.73270000  1
  H  H221  1  0.27250000  0.80800000  0.23270000  1
  H  H222  1  0.47400000  0.40640000  0.65500000  1
  H  H223  1  0.24860000  0.68100000  0.15500000  1
  H  H224  1  0.61070000  0.35070000  0.49520000  1
  H  H225  1  0.14450000  0.38450000  0.99520000  1
  H  H226  1  0.58730000  0.93260000  0.11270000  1
  H  H227  1  0.18010000  0.02540000  0.61270000  1
  H  H228  1  0.57420000  0.15320000  0.34900000  1
  H  H229  1  0.19580000  0.27480000  0.84900000  1
  H  H230  1  0.67820000  0.74070000  0.83430000  1
  H  H231  1  0.09360000  0.65610000  0.33430000  1
  H  H232  1  0.85490000  0.55240000  0.50090000  1
  H  H233  1  0.94850000  0.14600000  0.00090000  1
  H  H234  1  0.80760000  0.35390000  0.35290000  1
  H  H235  1  0.99900000  0.04530000  0.85290000  1
  H  H236  1  0.49200000  0.51450000  0.83110000  1
  H  H237  1  0.31660000  0.83910000  0.33110000  1
  H  H238  1  0.45460000  0.23560000  0.60940000  1
  H  H239  1  0.37380000  0.65480000  0.10940000  1
  H  H240  1  0.63650000  0.23310000  0.54540000  1
  H  H241  1  0.31230000  0.40890000  0.04540000  1
  H  H242  1  0.59830000  0.02910000  0.39440000  1
  H  H243  1  0.36530000  0.29610000  0.89440000  1
  H  H244  1  0.83300000  0.94020000  0.10300000  1
  H  H245  1  0.16280000  0.77000000  0.60300000  1
  H  H246  1  0.88300000  0.83470000  0.95050000  1
  H  H247  1  0.11580000  0.56750000  0.45050000  1
  N  N248  1  0.53591000  0.35938000  0.97307000  1
  N  N249  1  0.61369000  0.93716000  0.47307000  1
  N  N250  1  0.50203000  0.41569000  0.06336000  1
  N  N251  1  0.64767000  0.06133000  0.56336000  1
  N  N252  1  0.33745000  0.11604000  0.97353000  1
  N  N253  1  0.85749000  0.13608000  0.47353000  1
  N  N254  1  0.30522000  0.16170000  0.06492000  1
  N  N255  1  0.90322000  0.25970000  0.56492000  1
  N  N256  1  0.17292000  0.53444000  0.57792000  1
  N  N257  1  0.04348000  0.90500000  0.07792000  1
  N  N258  1  0.40984000  0.73472000  0.58254000  1
  N  N259  1  0.84782000  0.67270000  0.08254000  1
  N  N260  1  0.63771000  0.88492000  0.55975000  1
  N  N261  1  0.67483000  0.42204000  0.05975000  1
  N  N262  1  0.47470000  0.15955000  0.05933000  1
  N  N263  1  0.89978000  0.08463000  0.55933000  1
  N  N264  1  0.72117000  0.05031000  0.77168000  1
  N  N265  1  0.72137000  0.55051000  0.27168000  1
  N  N266  1  0.58656000  0.55383000  0.41219000  1
  N  N267  1  0.85836000  0.32563000  0.91219000  1
  N  N268  1  0.65449000  0.07310000  0.90779000  1
  N  N269  1  0.83469000  0.75330000  0.40779000  1
  N  N270  1  0.52411000  0.30230000  0.27201000  1
  N  N271  1  0.96971000  0.24790000  0.77201000  1
  N  N272  1  0.47589000  0.69770000  0.72799000  1
  N  N273  1  0.03029000  0.75210000  0.22799000  1
  N  N274  1  0.34551000  0.92690000  0.09221000  1
  N  N275  1  0.16531000  0.24670000  0.59221000  1
  N  N276  1  0.41344000  0.44617000  0.58781000  1
  N  N277  1  0.14164000  0.67437000  0.08781000  1
  N  N278  1  0.27883000  0.94969000  0.22832000  1
  N  N279  1  0.27863000  0.44949000  0.72832000  1
  N  N280  1  0.52530000  0.84045000  0.94067000  1
  N  N281  1  0.10022000  0.91537000  0.44067000  1
  N  N282  1  0.36229000  0.11508000  0.44025000  1
  N  N283  1  0.32517000  0.57796000  0.94025000  1
  N  N284  1  0.59016000  0.26528000  0.41746000  1
  N  N285  1  0.15218000  0.32730000  0.91746000  1
  N  N286  1  0.82708000  0.46556000  0.42208000  1
  N  N287  1  0.95652000  0.09500000  0.92208000  1
  N  N288  1  0.69478000  0.83830000  0.93508000  1
  N  N289  1  0.09678000  0.74030000  0.43508000  1
  N  N290  1  0.66255000  0.88396000  0.02647000  1
  N  N291  1  0.14251000  0.86392000  0.52647000  1
  N  N292  1  0.49797000  0.58431000  0.93664000  1
  N  N293  1  0.35233000  0.93867000  0.43664000  1
  N  N294  1  0.46409000  0.64062000  0.02693000  1
  N  N295  1  0.38631000  0.06284000  0.52693000  1
