# generated using pymatgen
data_Sm2H24C26O17
_symmetry_space_group_name_H-M   'P 1'
_cell_length_a   11.92100000
_cell_length_b   12.52700000
_cell_length_c   12.55200000
_cell_angle_alpha   90.00000000
_cell_angle_beta   98.87000000
_cell_angle_gamma   90.00000000
_symmetry_Int_Tables_number   1
_chemical_formula_structural   Sm2H24C26O17
_chemical_formula_sum   'Sm4 H48 C52 O34'
_cell_volume   1852.02799323
_cell_formula_units_Z   2
loop_
 _symmetry_equiv_pos_site_id
 _symmetry_equiv_pos_as_xyz
  1  'x, y, z'
loop_
 _atom_site_type_symbol
 _atom_site_label
 _atom_site_symmetry_multiplicity
 _atom_site_fract_x
 _atom_site_fract_y
 _atom_site_fract_z
 _atom_site_occupancy
  Sm  Sm0  1  0.35831000  0.72916000  0.81213000  1
  Sm  Sm1  1  0.37249000  0.44591000  0.13211000  1
  Sm  Sm2  1  0.62751000  0.94591000  0.86789000  1
  Sm  Sm3  1  0.64169000  0.22916000  0.18787000  1
  H  H4  1  0.00070000  0.03480000  0.07070000  1
  H  H5  1  0.00740000  0.56500000  0.24840000  1
  H  H6  1  0.11060000  0.34240000  0.75110000  1
  H  H7  1  0.13040000  0.46370000  0.77840000  1
  H  H8  1  0.14700000  0.37850000  0.87100000  1
  H  H9  1  0.14720000  0.85140000  0.15630000  1
  H  H10  1  0.14900000  0.72980000  0.12730000  1
  H  H11  1  0.16800000  0.81580000  0.04120000  1
  H  H12  1  0.19700000  0.66080000  0.58730000  1
  H  H13  1  0.22990000  0.60890000  0.68520000  1
  H  H14  1  0.28690000  0.10630000  0.95380000  1
  H  H15  1  0.29650000  0.03080000  0.59190000  1
  H  H16  1  0.30130000  0.12980000  0.32030000  1
  H  H17  1  0.30320000  0.30720000  0.80300000  1
  H  H18  1  0.32500000  0.15210000  0.61120000  1
  H  H19  1  0.32660000  0.40170000  0.48500000  1
  H  H20  1  0.33790000  0.01180000  0.30220000  1
  H  H21  1  0.34010000  0.86560000  0.14480000  1
  H  H22  1  0.35660000  0.78030000  0.46790000  1
  H  H23  1  0.36360000  0.11880000  0.79870000  1
  H  H24  1  0.36590000  0.05350000  0.12640000  1
  H  H25  1  0.42040000  0.06600000  0.63920000  1
  H  H26  1  0.42700000  0.10430000  0.30630000  1
  H  H27  1  0.48040000  0.32890000  0.78510000  1
  H  H28  1  0.51960000  0.82890000  0.21490000  1
  H  H29  1  0.57300000  0.60430000  0.69370000  1
  H  H30  1  0.57960000  0.56600000  0.36080000  1
  H  H31  1  0.63410000  0.55350000  0.87360000  1
  H  H32  1  0.63640000  0.61880000  0.20130000  1
  H  H33  1  0.64340000  0.28030000  0.53210000  1
  H  H34  1  0.65990000  0.36560000  0.85520000  1
  H  H35  1  0.66210000  0.51180000  0.69780000  1
  H  H36  1  0.67340000  0.90170000  0.51500000  1
  H  H37  1  0.67500000  0.65210000  0.38880000  1
  H  H38  1  0.69680000  0.80720000  0.19700000  1
  H  H39  1  0.69870000  0.62980000  0.67970000  1
  H  H40  1  0.70350000  0.53080000  0.40810000  1
  H  H41  1  0.71310000  0.60630000  0.04620000  1
  H  H42  1  0.77010000  0.10890000  0.31480000  1
  H  H43  1  0.80300000  0.16080000  0.41270000  1
  H  H44  1  0.83200000  0.31580000  0.95880000  1
  H  H45  1  0.85100000  0.22980000  0.87270000  1
  H  H46  1  0.85280000  0.35140000  0.84370000  1
  H  H47  1  0.85300000  0.87850000  0.12900000  1
  H  H48  1  0.86960000  0.96370000  0.22160000  1
  H  H49  1  0.88940000  0.84240000  0.24890000  1
  H  H50  1  0.99260000  0.06500000  0.75160000  1
  H  H51  1  0.99930000  0.53480000  0.92930000  1
  C  C52  1  0.02080000  0.54650000  0.09000000  1
  C  C53  1  0.03320000  0.06630000  0.82100000  1
  C  C54  1  0.03790000  0.04870000  0.01230000  1
  C  C55  1  0.14590000  0.52000000  0.10790000  1
  C  C56  1  0.14930000  0.08810000  0.83840000  1
  C  C57  1  0.15370000  0.07170000  0.02900000  1
  C  C58  1  0.15550000  0.39240000  0.79750000  1
  C  C59  1  0.18150000  0.79830000  0.11650000  1
  C  C60  1  0.20960000  0.09120000  0.94260000  1
  C  C61  1  0.27950000  0.38070000  0.78450000  1
  C  C62  1  0.30860000  0.79500000  0.15580000  1
  C  C63  1  0.31290000  0.07240000  0.75020000  1
  C  C64  1  0.31830000  0.09990000  0.16360000  1
  C  C65  1  0.32670000  0.95750000  0.78990000  1
  C  C66  1  0.33770000  0.21590000  0.13580000  1
  C  C67  1  0.34130000  0.08110000  0.63800000  1
  C  C68  1  0.34890000  0.08510000  0.28410000  1
  C  C69  1  0.35560000  0.45700000  0.86100000  1
  C  C70  1  0.36790000  0.71340000  0.09360000  1
  C  C71  1  0.38750000  0.36900000  0.64070000  1
  C  C72  1  0.38870000  0.37460000  0.53090000  1
  C  C73  1  0.42030000  0.80390000  0.44040000  1
  C  C74  1  0.42120000  0.80440000  0.33090000  1
  C  C75  1  0.48210000  0.33333333  0.71140000  1
  C  C76  1  0.48420000  0.33900000  0.49020000  1
  C  C77  1  0.48700000  0.34120000  0.37250000  1
  C  C78  1  0.51300000  0.84120000  0.62750000  1
  C  C79  1  0.51580000  0.83900000  0.50980000  1
  C  C80  1  0.51790000  0.83330000  0.28860000  1
  C  C81  1  0.57880000  0.30440000  0.66910000  1
  C  C82  1  0.57970000  0.30390000  0.55960000  1
  C  C83  1  0.61130000  0.87460000  0.46910000  1
  C  C84  1  0.61250000  0.86900000  0.35930000  1
  C  C85  1  0.63210000  0.21340000  0.90640000  1
  C  C86  1  0.64440000  0.95700000  0.13900000  1
  C  C87  1  0.65110000  0.58510000  0.71590000  1
  C  C88  1  0.65870000  0.58110000  0.36200000  1
  C  C89  1  0.66230000  0.71590000  0.86420000  1
  C  C90  1  0.67330000  0.45750000  0.21010000  1
  C  C91  1  0.68170000  0.59990000  0.83640000  1
  C  C92  1  0.68710000  0.57240000  0.24980000  1
  C  C93  1  0.69140000  0.29500000  0.84420000  1
  C  C94  1  0.72050000  0.88070000  0.21550000  1
  C  C95  1  0.79040000  0.59120000  0.05740000  1
  C  C96  1  0.81850000  0.29830000  0.88350000  1
  C  C97  1  0.84450000  0.89240000  0.20250000  1
  C  C98  1  0.84630000  0.57170000  0.97100000  1
  C  C99  1  0.85070000  0.58810000  0.16160000  1
  C  C100  1  0.85410000  0.02000000  0.89210000  1
  C  C101  1  0.96210000  0.54870000  0.98770000  1
  C  C102  1  0.96680000  0.56630000  0.17900000  1
  C  C103  1  0.97920000  0.04650000  0.91000000  1
  O  O104  1  0.19570000  0.49670000  0.19980000  1
  O  O105  1  0.19770000  0.52170000  0.02760000  1
  O  O106  1  0.19810000  0.10590000  0.74850000  1
  O  O107  1  0.20300000  0.07000000  0.13550000  1
  O  O108  1  0.23770000  0.66560000  0.64920000  1
  O  O109  1  0.24970000  0.89150000  0.76640000  1
  O  O110  1  0.25670000  0.28080000  0.12360000  1
  O  O111  1  0.28800000  0.39810000  0.67580000  1
  O  O112  1  0.32190000  0.77490000  0.26750000  1
  O  O113  1  0.37430000  0.73770000  0.99830000  1
  O  O114  1  0.37900000  0.54450000  0.82620000  1
  O  O115  1  0.38940000  0.42080000  0.95420000  1
  O  O116  1  0.40730000  0.62870000  0.14030000  1
  O  O117  1  0.41630000  0.39760000  0.31450000  1
  O  O118  1  0.42300000  0.93170000  0.84380000  1
  O  O119  1  0.43650000  0.78610000  0.66170000  1
  O  O120  1  0.43840000  0.24560000  0.12950000  1
  O  O121  1  0.56160000  0.74560000  0.87050000  1
  O  O122  1  0.56350000  0.28610000  0.33830000  1
  O  O123  1  0.57700000  0.43170000  0.15620000  1
  O  O124  1  0.58370000  0.89760000  0.68550000  1
  O  O125  1  0.59270000  0.12870000  0.85970000  1
  O  O126  1  0.61060000  0.92080000  0.04580000  1
  O  O127  1  0.62100000  0.04450000  0.17380000  1
  O  O128  1  0.62570000  0.23770000  0.00170000  1
  O  O129  1  0.67810000  0.27490000  0.73250000  1
  O  O130  1  0.71200000  0.89810000  0.32420000  1
  O  O131  1  0.74330000  0.78080000  0.87640000  1
  O  O132  1  0.75030000  0.39150000  0.23360000  1
  O  O133  1  0.76230000  0.16560000  0.35080000  1
  O  O134  1  0.79700000  0.57000000  0.86450000  1
  O  O135  1  0.80190000  0.60590000  0.25150000  1
  O  O136  1  0.80230000  0.02170000  0.97240000  1
  O  O137  1  0.80430000  0.99670000  0.80020000  1
