# generated using pymatgen
data_NdH15C24NO8
_symmetry_space_group_name_H-M   'P 1'
_cell_length_a   10.54800000
_cell_length_b   15.83800000
_cell_length_c   21.07400000
_cell_angle_alpha   107.24700000
_cell_angle_beta   90.00000000
_cell_angle_gamma   90.00000000
_symmetry_Int_Tables_number   1
_chemical_formula_structural   NdH15C24NO8
_chemical_formula_sum   'Nd4 H60 C96 N4 O32'
_cell_volume   3362.30368868
_cell_formula_units_Z   4
loop_
 _symmetry_equiv_pos_site_id
 _symmetry_equiv_pos_as_xyz
  1  'x, y, z'
loop_
 _atom_site_type_symbol
 _atom_site_label
 _atom_site_symmetry_multiplicity
 _atom_site_fract_x
 _atom_site_fract_y
 _atom_site_fract_z
 _atom_site_occupancy
  Nd  Nd0  1  0.91962000  0.60080000  0.45333000  1
  Nd  Nd1  1  0.08038000  0.60080000  0.95333000  1
  Nd  Nd2  1  0.91962000  0.39919000  0.04667000  1
  Nd  Nd3  1  0.08038000  0.39919000  0.54667000  1
  H  H4  1  0.56630000  0.99490000  0.56130000  1
  H  H5  1  0.43370000  0.99490000  0.06130000  1
  H  H6  1  0.92690000  0.95030000  0.67100000  1
  H  H7  1  0.07310000  0.95030000  0.17100000  1
  H  H8  1  0.80970000  0.92250000  0.78810000  1
  H  H9  1  0.19030000  0.92250000  0.28810000  1
  H  H10  1  0.54590000  0.90100000  0.73250000  1
  H  H11  1  0.45410000  0.90100000  0.23250000  1
  H  H12  1  0.51110000  0.88090000  0.83530000  1
  H  H13  1  0.48890000  0.88090000  0.33530000  1
  H  H14  1  0.68090000  0.86750000  0.52050000  1
  H  H15  1  0.31910000  0.86750000  0.02050000  1
  H  H16  1  0.58500000  0.86480000  0.12610000  1
  H  H17  1  0.41500000  0.86480000  0.62610000  1
  H  H18  1  0.64030000  0.84060000  0.68160000  1
  H  H19  1  0.35970000  0.84060000  0.18160000  1
  H  H20  1  0.61140000  0.82910000  0.86400000  1
  H  H21  1  0.38860000  0.82910000  0.36400000  1
  H  H22  1  0.74580000  0.77980000  0.06650000  1
  H  H23  1  0.25420000  0.77980000  0.56650000  1
  H  H24  1  0.78390000  0.76580000  0.84880000  1
  H  H25  1  0.21610000  0.76580000  0.34880000  1
  H  H26  1  0.70440000  0.70640000  0.65600000  1
  H  H27  1  0.29560000  0.70640000  0.15600000  1
  H  H28  1  0.52440000  0.68850000  0.22330000  1
  H  H29  1  0.47560000  0.68850000  0.72330000  1
  H  H30  1  0.68710000  0.60200000  0.16430000  1
  H  H31  1  0.31290000  0.60200000  0.66430000  1
  H  H32  1  0.97300000  0.56930000  0.71770000  1
  H  H33  1  0.02700000  0.56930000  0.21770000  1
  H  H34  1  0.97300000  0.43070000  0.78230000  1
  H  H35  1  0.02700000  0.43070000  0.28230000  1
  H  H36  1  0.68710000  0.39800000  0.33570000  1
  H  H37  1  0.31290000  0.39800000  0.83570000  1
  H  H38  1  0.52440000  0.31150000  0.27670000  1
  H  H39  1  0.47560000  0.31150000  0.77670000  1
  H  H40  1  0.70440000  0.29360000  0.84400000  1
  H  H41  1  0.29560000  0.29360000  0.34400000  1
  H  H42  1  0.78390000  0.23420000  0.65120000  1
  H  H43  1  0.21610000  0.23420000  0.15120000  1
  H  H44  1  0.74580000  0.22020000  0.43350000  1
  H  H45  1  0.25420000  0.22020000  0.93350000  1
  H  H46  1  0.61140000  0.17090000  0.63600000  1
  H  H47  1  0.38860000  0.17090000  0.13600000  1
  H  H48  1  0.64030000  0.15940000  0.81840000  1
  H  H49  1  0.35970000  0.15940000  0.31840000  1
  H  H50  1  0.58500000  0.13520000  0.37390000  1
  H  H51  1  0.41500000  0.13520000  0.87390000  1
  H  H52  1  0.68090000  0.13250000  0.97950000  1
  H  H53  1  0.31910000  0.13250000  0.47950000  1
  H  H54  1  0.51110000  0.11910000  0.66470000  1
  H  H55  1  0.48890000  0.11910000  0.16470000  1
  H  H56  1  0.54590000  0.09900000  0.76750000  1
  H  H57  1  0.45410000  0.09900000  0.26750000  1
  H  H58  1  0.80970000  0.07750000  0.71190000  1
  H  H59  1  0.19030000  0.07750000  0.21190000  1
  H  H60  1  0.92690000  0.04970000  0.82900000  1
  H  H61  1  0.07310000  0.04970000  0.32900000  1
  H  H62  1  0.56630000  0.00510000  0.93870000  1
  H  H63  1  0.43370000  0.00510000  0.43870000  1
  C  C64  1  0.63960000  0.98640000  0.58320000  1
  C  C65  1  0.36040000  0.98640000  0.08320000  1
  C  C66  1  0.78430000  0.96420000  0.82730000  1
  C  C67  1  0.21570000  0.96420000  0.32730000  1
  C  C68  1  0.85480000  0.95930000  0.64840000  1
  C  C69  1  0.14520000  0.95930000  0.14840000  1
  C  C70  1  0.67800000  0.94830000  0.85940000  1
  C  C71  1  0.32200000  0.94830000  0.35940000  1
  C  C72  1  0.70810000  0.91020000  0.55870000  1
  C  C73  1  0.29190000  0.91020000  0.05870000  1
  C  C74  1  0.81820000  0.89620000  0.59060000  1
  C  C75  1  0.18180000  0.89620000  0.09060000  1
  C  C76  1  0.59990000  0.86480000  0.83420000  1
  C  C77  1  0.40010000  0.86480000  0.33420000  1
  C  C78  1  0.57540000  0.84070000  0.71420000  1
  C  C79  1  0.42460000  0.84070000  0.21420000  1
  C  C80  1  0.89280000  0.81560000  0.56280000  1
  C  C81  1  0.10720000  0.81560000  0.06280000  1
  C  C82  1  0.60440000  0.81090000  0.13310000  1
  C  C83  1  0.39560000  0.81090000  0.63310000  1
  C  C84  1  0.53540000  0.78340000  0.17900000  1
  C  C85  1  0.46460000  0.78340000  0.67900000  1
  C  C86  1  0.70090000  0.76050000  0.09750000  1
  C  C87  1  0.29910000  0.76050000  0.59750000  1
  C  C88  1  0.72710000  0.74860000  0.75420000  1
  C  C89  1  0.27290000  0.74860000  0.25420000  1
  C  C90  1  0.79830000  0.73220000  0.80500000  1
  C  C91  1  0.20170000  0.73220000  0.30500000  1
  C  C92  1  0.56780000  0.70640000  0.19120000  1
  C  C93  1  0.43220000  0.70640000  0.69120000  1
  C  C94  1  0.75110000  0.69680000  0.69060000  1
  C  C95  1  0.24890000  0.69680000  0.19060000  1
  C  C96  1  0.73150000  0.67990000  0.10830000  1
  C  C97  1  0.26850000  0.67990000  0.60830000  1
  C  C98  1  0.89040000  0.66650000  0.79150000  1
  C  C99  1  0.10960000  0.66650000  0.29150000  1
  C  C100  1  0.66590000  0.65450000  0.15570000  1
  C  C101  1  0.33410000  0.65450000  0.65570000  1
  C  C102  1  0.96570000  0.65390000  0.84840000  1
  C  C103  1  0.03430000  0.65390000  0.34840000  1
  C  C104  1  0.84280000  0.63050000  0.67580000  1
  C  C105  1  0.15720000  0.63050000  0.17580000  1
  C  C106  1  0.83160000  0.62120000  0.06800000  1
  C  C107  1  0.16840000  0.62120000  0.56800000  1
  C  C108  1  0.91270000  0.61410000  0.72670000  1
  C  C109  1  0.08730000  0.61410000  0.22670000  1
  C  C110  1  0.86610000  0.57730000  0.60430000  1
  C  C111  1  0.13390000  0.57730000  0.10430000  1
  C  C112  1  0.86610000  0.42270000  0.89570000  1
  C  C113  1  0.13390000  0.42270000  0.39570000  1
  C  C114  1  0.91270000  0.38590000  0.77330000  1
  C  C115  1  0.08730000  0.38590000  0.27330000  1
  C  C116  1  0.83160000  0.37880000  0.43200000  1
  C  C117  1  0.16840000  0.37880000  0.93200000  1
  C  C118  1  0.84280000  0.36950000  0.82420000  1
  C  C119  1  0.15720000  0.36950000  0.32420000  1
  C  C120  1  0.96570000  0.34610000  0.65160000  1
  C  C121  1  0.03430000  0.34610000  0.15160000  1
  C  C122  1  0.66590000  0.34550000  0.34430000  1
  C  C123  1  0.33410000  0.34550000  0.84430000  1
  C  C124  1  0.89040000  0.33350000  0.70850000  1
  C  C125  1  0.10960000  0.33350000  0.20850000  1
  C  C126  1  0.73150000  0.32010000  0.39170000  1
  C  C127  1  0.26850000  0.32010000  0.89170000  1
  C  C128  1  0.75110000  0.30320000  0.80940000  1
  C  C129  1  0.24890000  0.30320000  0.30940000  1
  C  C130  1  0.56780000  0.29360000  0.30880000  1
  C  C131  1  0.43220000  0.29360000  0.80880000  1
  C  C132  1  0.79830000  0.26780000  0.69500000  1
  C  C133  1  0.20170000  0.26780000  0.19500000  1
  C  C134  1  0.72710000  0.25140000  0.74580000  1
  C  C135  1  0.27290000  0.25140000  0.24580000  1
  C  C136  1  0.70090000  0.23950000  0.40250000  1
  C  C137  1  0.29910000  0.23950000  0.90250000  1
  C  C138  1  0.53540000  0.21660000  0.32100000  1
  C  C139  1  0.46460000  0.21660000  0.82100000  1
  C  C140  1  0.60440000  0.18910000  0.36690000  1
  C  C141  1  0.39560000  0.18910000  0.86690000  1
  C  C142  1  0.89280000  0.18440000  0.93720000  1
  C  C143  1  0.10720000  0.18440000  0.43720000  1
  C  C144  1  0.57540000  0.15930000  0.78580000  1
  C  C145  1  0.42460000  0.15930000  0.28580000  1
  C  C146  1  0.59990000  0.13520000  0.66580000  1
  C  C147  1  0.40010000  0.13520000  0.16580000  1
  C  C148  1  0.81820000  0.10380000  0.90940000  1
  C  C149  1  0.18180000  0.10380000  0.40940000  1
  C  C150  1  0.70810000  0.08980000  0.94130000  1
  C  C151  1  0.29190000  0.08980000  0.44130000  1
  C  C152  1  0.67800000  0.05170000  0.64060000  1
  C  C153  1  0.32200000  0.05170000  0.14060000  1
  C  C154  1  0.85480000  0.04070000  0.85160000  1
  C  C155  1  0.14520000  0.04070000  0.35160000  1
  C  C156  1  0.78430000  0.03580000  0.67270000  1
  C  C157  1  0.21570000  0.03580000  0.17270000  1
  C  C158  1  0.63960000  0.01360000  0.91680000  1
  C  C159  1  0.36040000  0.01360000  0.41680000  1
  N  N160  1  0.63190000  0.81190000  0.76720000  1
  N  N161  1  0.36810000  0.81190000  0.26720000  1
  N  N162  1  0.63190000  0.18810000  0.73280000  1
  N  N163  1  0.36810000  0.18810000  0.23280000  1
  O  O164  1  0.98870000  0.80590000  0.59930000  1
  O  O165  1  0.01130000  0.80590000  0.09930000  1
  O  O166  1  0.86420000  0.76080000  0.51040000  1
  O  O167  1  0.13580000  0.76080000  0.01040000  1
  O  O168  1  0.92910000  0.68950000  0.90640000  1
  O  O169  1  0.07090000  0.68950000  0.40640000  1
  O  O170  1  0.91270000  0.65430000  0.03860000  1
  O  O171  1  0.08730000  0.65430000  0.53860000  1
  O  O172  1  0.82790000  0.60950000  0.56030000  1
  O  O173  1  0.17210000  0.60950000  0.06030000  1
  O  O174  1  0.93490000  0.60700000  0.33690000  1
  O  O175  1  0.06510000  0.60700000  0.83690000  1
  O  O176  1  0.82830000  0.54170000  0.06500000  1
  O  O177  1  0.17170000  0.54170000  0.56500000  1
  O  O178  1  0.92200000  0.50460000  0.59300000  1
  O  O179  1  0.07800000  0.50460000  0.09300000  1
  O  O180  1  0.92200000  0.49540000  0.90700000  1
  O  O181  1  0.07800000  0.49540000  0.40700000  1
  O  O182  1  0.82830000  0.45830000  0.43500000  1
  O  O183  1  0.17170000  0.45830000  0.93500000  1
  O  O184  1  0.93490000  0.39300000  0.16310000  1
  O  O185  1  0.06510000  0.39300000  0.66310000  1
  O  O186  1  0.82790000  0.39050000  0.93970000  1
  O  O187  1  0.17210000  0.39050000  0.43970000  1
  O  O188  1  0.91270000  0.34570000  0.46140000  1
  O  O189  1  0.08730000  0.34570000  0.96140000  1
  O  O190  1  0.92910000  0.31050000  0.59360000  1
  O  O191  1  0.07090000  0.31050000  0.09360000  1
  O  O192  1  0.86420000  0.23920000  0.98960000  1
  O  O193  1  0.13580000  0.23920000  0.48960000  1
  O  O194  1  0.98870000  0.19410000  0.90070000  1
  O  O195  1  0.01130000  0.19410000  0.40070000  1
