# generated using pymatgen
data_Cu5H48Pt3C42(N6O7)2
_symmetry_space_group_name_H-M   'P 1'
_cell_length_a   12.49000000
_cell_length_b   13.54638203
_cell_length_c   30.41199130
_cell_angle_alpha   80.35324355
_cell_angle_beta   78.15020867
_cell_angle_gamma   62.54778360
_symmetry_Int_Tables_number   1
_chemical_formula_structural   Cu5H48Pt3C42(N6O7)2
_chemical_formula_sum   'Cu10 H96 Pt6 C84 N24 O28'
_cell_volume   4453.04474259
_cell_formula_units_Z   2
loop_
 _symmetry_equiv_pos_site_id
 _symmetry_equiv_pos_as_xyz
  1  'x, y, z'
loop_
 _atom_site_type_symbol
 _atom_site_label
 _atom_site_symmetry_multiplicity
 _atom_site_fract_x
 _atom_site_fract_y
 _atom_site_fract_z
 _atom_site_occupancy
  C  C0  1  0.55450000  0.59650000  0.40030000  1
  C  C1  1  0.44870000  0.09650000  0.90030000  1
  C  C2  1  0.64860000  0.81850000  0.16850000  1
  C  C3  1  0.36440000  0.31850000  0.66850000  1
  C  C4  1  0.01240000  0.72690000  0.23110000  1
  C  C5  1  0.02960000  0.22690000  0.73110000  1
  C  C6  1  0.59250000  0.81110000  0.13630000  1
  C  C7  1  0.46010000  0.31110000  0.63630000  1
  C  C8  1  0.57890000  0.71420000  0.13640000  1
  C  C9  1  0.57050000  0.21420000  0.63640000  1
  C  C10  1  0.67140000  0.64520000  0.20200000  1
  C  C11  1  0.48140000  0.14520000  0.70200000  1
  C  C12  1  0.74070000  0.88000000  0.94840000  1
  C  C13  1  0.43090000  0.38000000  0.44840000  1
  C  C14  1  0.61460000  0.63510000  0.16970000  1
  C  C15  1  0.58060000  0.13510000  0.66970000  1
  C  C16  1  0.84830000  0.76910000  0.93850000  1
  C  C17  1  0.44410000  0.26910000  0.43850000  1
  C  C18  1  0.96020000  0.76740000  0.92080000  1
  C  C19  1  0.35160000  0.26740000  0.42080000  1
  C  C20  1  0.80770000  0.17990000  0.49890000  1
  C  C21  1  0.51350000  0.67990000  0.99890000  1
  C  C22  1  0.13230000  0.15440000  0.48540000  1
  C  C23  1  0.22790000  0.65440000  0.98540000  1
  C  C24  1  0.10730000  0.11000000  0.52840000  1
  C  C25  1  0.25430000  0.61000000  0.02840000  1
  C  C26  1  0.83840000  0.67240000  0.94780000  1
  C  C27  1  0.54140000  0.17240000  0.44780000  1
  C  C28  1  0.06090000  0.24490000  0.31930000  1
  C  C29  1  0.37490000  0.74490000  0.81930000  1
  C  C30  1  0.83850000  0.05830000  0.50210000  1
  C  C31  1  0.60110000  0.55830000  0.00210000  1
  C  C32  1  0.81940000  0.00480000  0.54460000  1
  C  C33  1  0.63120000  0.50480000  0.04460000  1
  C  C34  1  0.16870000  0.24340000  0.29920000  1
  C  C35  1  0.28870000  0.74340000  0.79920000  1
  C  C36  1  0.12110000  0.00220000  0.53500000  1
  C  C37  1  0.34170000  0.50220000  0.03500000  1
  C  C38  1  0.94200000  0.57560000  0.93820000  1
  C  C39  1  0.54420000  0.07560000  0.43820000  1
  C  C40  1  0.94850000  0.42360000  0.07700000  1
  C  C41  1  0.55090000  0.92360000  0.57700000  1
  C  C42  1  0.05150000  0.57640000  0.92300000  1
  C  C43  1  0.44910000  0.07640000  0.42300000  1
  C  C44  1  0.05800000  0.42440000  0.06180000  1
  C  C45  1  0.45580000  0.92440000  0.56180000  1
  C  C46  1  0.87890000  0.99780000  0.46500000  1
  C  C47  1  0.65830000  0.49780000  0.96500000  1
  C  C48  1  0.83130000  0.75660000  0.70080000  1
  C  C49  1  0.71130000  0.25660000  0.20080000  1
  C  C50  1  0.18060000  0.99520000  0.45540000  1
  C  C51  1  0.36880000  0.49520000  0.95540000  1
  C  C52  1  0.16150000  0.94170000  0.49790000  1
  C  C53  1  0.39890000  0.44170000  0.99790000  1
  C  C54  1  0.93910000  0.75510000  0.68070000  1
  C  C55  1  0.62510000  0.25510000  0.18070000  1
  C  C56  1  0.16160000  0.32760000  0.05220000  1
  C  C57  1  0.45860000  0.82760000  0.55220000  1
  C  C58  1  0.89270000  0.89000000  0.47160000  1
  C  C59  1  0.74570000  0.39000000  0.97160000  1
  C  C60  1  0.86770000  0.84560000  0.51460000  1
  C  C61  1  0.77210000  0.34560000  0.01460000  1
  C  C62  1  0.19230000  0.82010000  0.50110000  1
  C  C63  1  0.48650000  0.32010000  0.00110000  1
  C  C64  1  0.03980000  0.23260000  0.07920000  1
  C  C65  1  0.64840000  0.73260000  0.57920000  1
  C  C66  1  0.15170000  0.23090000  0.06150000  1
  C  C67  1  0.55590000  0.73090000  0.56150000  1
  C  C68  1  0.38540000  0.36490000  0.83030000  1
  C  C69  1  0.41940000  0.86490000  0.33030000  1
  C  C70  1  0.25930000  0.12000000  0.05160000  1
  C  C71  1  0.56910000  0.62000000  0.55160000  1
  C  C72  1  0.32860000  0.35480000  0.79800000  1
  C  C73  1  0.51860000  0.85480000  0.29800000  1
  C  C74  1  0.42110000  0.28580000  0.86360000  1
  C  C75  1  0.42950000  0.78580000  0.36360000  1
  C  C76  1  0.40750000  0.18890000  0.86370000  1
  C  C77  1  0.53990000  0.68890000  0.36370000  1
  C  C78  1  0.98760000  0.27310000  0.76890000  1
  C  C79  1  0.97040000  0.77310000  0.26890000  1
  C  C80  1  0.35140000  0.18150000  0.83150000  1
  C  C81  1  0.63560000  0.68150000  0.33150000  1
  C  C82  1  0.44550000  0.40350000  0.59970000  1
  C  C83  1  0.55130000  0.90350000  0.09970000  1
  Cu  Cu84  1  0.50000000  1.00000000  0.00000000  1
  Cu  Cu85  1  0.50000000  0.50000000  0.50000000  1
  Cu  Cu86  1  0.73455000  0.38230000  0.54298000  1
  Cu  Cu87  1  0.34017000  0.88230000  0.04298000  1
  Cu  Cu88  1  0.72932000  0.37111000  0.42929000  1
  Cu  Cu89  1  0.47028000  0.87111000  0.92929000  1
  Cu  Cu90  1  0.27068000  0.62889000  0.57071000  1
  Cu  Cu91  1  0.52972000  0.12889000  0.07071000  1
  Cu  Cu92  1  0.26545000  0.61770000  0.45702000  1
  Cu  Cu93  1  0.65983000  0.11770000  0.95702000  1
  H  H94  1  0.89770000  0.79770000  0.18490000  1
  H  H95  1  0.11970000  0.29770000  0.68490000  1
  H  H96  1  0.96540000  0.26070000  0.71230000  1
  H  H97  1  0.06160000  0.76070000  0.21230000  1
  H  H98  1  0.71050000  0.61900000  0.33240000  1
  H  H99  1  0.33810000  0.11900000  0.83240000  1
  H  H100  1  0.04870000  0.14870000  0.73710000  1
  H  H101  1  0.06550000  0.64870000  0.23710000  1
  H  H102  1  0.94500000  0.67610000  0.18950000  1
  H  H103  1  0.18940000  0.17610000  0.68950000  1
  H  H104  1  0.63570000  0.20560000  0.61360000  1
  H  H105  1  0.54510000  0.70560000  0.11360000  1
  H  H106  1  0.69920000  0.58720000  0.22440000  1
  H  H107  1  0.48920000  0.08720000  0.72440000  1
  H  H108  1  0.96420000  0.83530000  0.91310000  1
  H  H109  1  0.28740000  0.33530000  0.41310000  1
  H  H110  1  0.65430000  0.07210000  0.67110000  1
  H  H111  1  0.60250000  0.57210000  0.17110000  1
  H  H112  1  0.12320000  0.22730000  0.48190000  1
  H  H113  1  0.16760000  0.72730000  0.98190000  1
  H  H114  1  0.08120000  0.15310000  0.55270000  1
  H  H115  1  0.21300000  0.65310000  0.05270000  1
  H  H116  1  0.12150000  0.82600000  0.83340000  1
  H  H117  1  0.21910000  0.32606667  0.33333333  1
  H  H118  1  0.00000000  0.32180000  0.32240000  1
  H  H119  1  0.35580000  0.82180000  0.82240000  1
  H  H120  1  0.76430000  0.67130000  0.96030000  1
  H  H121  1  0.60410000  0.17130000  0.46030000  1
  H  H122  1  0.79660000  0.04380000  0.57000000  1
  H  H123  1  0.58960000  0.54380000  0.07000000  1
  H  H124  1  0.99830000  0.21660000  0.38280000  1
  H  H125  1  0.40230000  0.71660000  0.88280000  1
  H  H126  1  0.15290000  0.30440000  0.27560000  1
  H  H127  1  0.26710000  0.80440000  0.77560000  1
  H  H128  1  0.87880000  0.49090000  0.08150000  1
  H  H129  1  0.54880000  0.99090000  0.58150000  1
  H  H130  1  0.06320000  0.49170000  0.05790000  1
  H  H131  1  0.38720000  0.99170000  0.55790000  1
  H  H132  1  0.13660000  0.72200000  0.81920000  1
  H  H133  1  0.32220000  0.22200000  0.31920000  1
  H  H134  1  0.78280000  0.82560000  0.71520000  1
  H  H135  1  0.67640000  0.32560000  0.21520000  1
  H  H136  1  0.10370000  0.97120000  0.56360000  1
  H  H137  1  0.36150000  0.47120000  0.06360000  1
  H  H138  1  0.92090000  0.88710000  0.63810000  1
  H  H139  1  0.55390000  0.38710000  0.13810000  1
  H  H140  1  0.03360000  0.21280000  0.30020000  1
  H  H141  1  0.45340000  0.71280000  0.80020000  1
  H  H142  1  0.96640000  0.78720000  0.69980000  1
  H  H143  1  0.54660000  0.28720000  0.19980000  1
  H  H144  1  0.07910000  0.11290000  0.36190000  1
  H  H145  1  0.44610000  0.61290000  0.86190000  1
  H  H146  1  0.89630000  0.02880000  0.43640000  1
  H  H147  1  0.63850000  0.52880000  0.93640000  1
  H  H148  1  0.21720000  0.17440000  0.28480000  1
  H  H149  1  0.32360000  0.67440000  0.78480000  1
  H  H150  1  0.86340000  0.27800000  0.18080000  1
  H  H151  1  0.67780000  0.77800000  0.68080000  1
  H  H152  1  0.93680000  0.50830000  0.94210000  1
  H  H153  1  0.61280000  0.00830000  0.44210000  1
  H  H154  1  0.12120000  0.50910000  0.91850000  1
  H  H155  1  0.45120000  0.00910000  0.41850000  1
  H  H156  1  0.84710000  0.69560000  0.72440000  1
  H  H157  1  0.73290000  0.19560000  0.22440000  1
  H  H158  1  0.00170000  0.78340000  0.61720000  1
  H  H159  1  0.59770000  0.28340000  0.11720000  1
  H  H160  1  0.20340000  0.95620000  0.43000000  1
  H  H161  1  0.41040000  0.45620000  0.93000000  1
  H  H162  1  0.23570000  0.32870000  0.03970000  1
  H  H163  1  0.39590000  0.82870000  0.53970000  1
  H  H164  1  1.00000000  0.67820000  0.67760000  1
  H  H165  1  0.64420000  0.17820000  0.17760000  1
  H  H166  1  0.87850000  0.17400000  0.16660000  1
  H  H167  1  0.78090000  0.67400000  0.66660000  1
  H  H168  1  0.91880000  0.84690000  0.44730000  1
  H  H169  1  0.78700000  0.34690000  0.94730000  1
  H  H170  1  0.87680000  0.77270000  0.51810000  1
  H  H171  1  0.83240000  0.27270000  0.01810000  1
  H  H172  1  0.34570000  0.92790000  0.32890000  1
  H  H173  1  0.39750000  0.42790000  0.82890000  1
  H  H174  1  0.03580000  0.16470000  0.08690000  1
  H  H175  1  0.71260000  0.66470000  0.58690000  1
  H  H176  1  0.30080000  0.41280000  0.77560000  1
  H  H177  1  0.51080000  0.91280000  0.27560000  1
  H  H178  1  0.36430000  0.79440000  0.38640000  1
  H  H179  1  0.45490000  0.29440000  0.88640000  1
  H  H180  1  0.05500000  0.32390000  0.81050000  1
  H  H181  1  0.81060000  0.82390000  0.31050000  1
  H  H182  1  0.95130000  0.85130000  0.26290000  1
  H  H183  1  0.93450000  0.35130000  0.76290000  1
  H  H184  1  0.28950000  0.38100000  0.66760000  1
  H  H185  1  0.66190000  0.88100000  0.16760000  1
  H  H186  1  0.03460000  0.73930000  0.28770000  1
  H  H187  1  0.93840000  0.23930000  0.78770000  1
  H  H188  1  0.10230000  0.20230000  0.81510000  1
  H  H189  1  0.88030000  0.70230000  0.31510000  1
  N  N190  1  0.91680000  0.73690000  0.20470000  1
  N  N191  1  0.14160000  0.23690000  0.70470000  1
  N  N192  1  0.68510000  0.73680000  0.20160000  1
  N  N193  1  0.37650000  0.23680000  0.70160000  1
  N  N194  1  0.06080000  0.67490000  0.91430000  1
  N  N195  1  0.35000000  0.17490000  0.41430000  1
  N  N196  1  0.17360000  0.75370000  0.83030000  1
  N  N197  1  0.24240000  0.25370000  0.33030000  1
  N  N198  1  0.16720000  0.10130000  0.45010000  1
  N  N199  1  0.28140000  0.60130000  0.95010000  1
  N  N200  1  0.06830000  0.18230000  0.36430000  1
  N  N201  1  0.38510000  0.68230000  0.86430000  1
  N  N202  1  0.93170000  0.81770000  0.63570000  1
  N  N203  1  0.61490000  0.31770000  0.13570000  1
  N  N204  1  0.83280000  0.89870000  0.54990000  1
  N  N205  1  0.71860000  0.39870000  0.04990000  1
  N  N206  1  0.82640000  0.24630000  0.16970000  1
  N  N207  1  0.75760000  0.74630000  0.66970000  1
  N  N208  1  0.93920000  0.32510000  0.08570000  1
  N  N209  1  0.65000000  0.82510000  0.58570000  1
  N  N210  1  0.31490000  0.26320000  0.79840000  1
  N  N211  1  0.62350000  0.76320000  0.29840000  1
  N  N212  1  0.08320000  0.26310000  0.79530000  1
  N  N213  1  0.85840000  0.76310000  0.29530000  1
  O  O214  1  0.52480000  0.38800000  0.56720000  1
  O  O215  1  0.52000000  0.88800000  0.06720000  1
  O  O216  1  0.67650000  0.44620000  0.48480000  1
  O  O217  1  0.39250000  0.94620000  0.98480000  1
  O  O218  1  0.65360000  0.51030000  0.39370000  1
  O  O219  1  0.44240000  0.01030000  0.89370000  1
  O  O220  1  0.76040000  0.96470000  0.93810000  1
  O  O221  1  0.33680000  0.46470000  0.43810000  1
  O  O222  1  0.64210000  0.87800000  0.96740000  1
  O  O223  1  0.51250000  0.37800000  0.46740000  1
  O  O224  1  0.78460000  0.22670000  0.53310000  1
  O  O225  1  0.45560000  0.72670000  0.03310000  1
  O  O226  1  0.81070000  0.22210000  0.45790000  1
  O  O227  1  0.50930000  0.72210000  0.95790000  1
  O  O228  1  0.18930000  0.77790000  0.54210000  1
  O  O229  1  0.49070000  0.27790000  0.04210000  1
  O  O230  1  0.21540000  0.77330000  0.46690000  1
  O  O231  1  0.54440000  0.27330000  0.96690000  1
  O  O232  1  0.35790000  0.12200000  0.03260000  1
  O  O233  1  0.48750000  0.62200000  0.53260000  1
  O  O234  1  0.23960000  0.03530000  0.06190000  1
  O  O235  1  0.66320000  0.53530000  0.56190000  1
  O  O236  1  0.34640000  0.48970000  0.60630000  1
  O  O237  1  0.55760000  0.98970000  0.10630000  1
  O  O238  1  0.32350000  0.55380000  0.51520000  1
  O  O239  1  0.60750000  0.05380000  0.01520000  1
  O  O240  1  0.47520000  0.61200000  0.43280000  1
  O  O241  1  0.48000000  0.11200000  0.93280000  1
  Pt  Pt242  1  0.76883000  0.75000000  0.25000000  1
  Pt  Pt243  1  0.23117000  0.25000000  0.75000000  1
  Pt  Pt244  1  0.21031000  0.17405000  0.39029000  1
  Pt  Pt245  1  0.22535000  0.67405000  0.89029000  1
  Pt  Pt246  1  0.78969000  0.82595000  0.60971000  1
  Pt  Pt247  1  0.77465000  0.32595000  0.10971000  1
