# generated using pymatgen
data_UH6C12ClO6
_symmetry_space_group_name_H-M   'P 1'
_cell_length_a   9.98870000
_cell_length_b   10.03271067
_cell_length_c   25.59460000
_cell_angle_alpha   97.42401622
_cell_angle_beta   90.00000000
_cell_angle_gamma   119.85499431
_symmetry_Int_Tables_number   1
_chemical_formula_structural   UH6C12ClO6
_chemical_formula_sum   'U4 H24 C48 Cl4 O24'
_cell_volume   2199.70719982
_cell_formula_units_Z   4
loop_
 _symmetry_equiv_pos_site_id
 _symmetry_equiv_pos_as_xyz
  1  'x, y, z'
loop_
 _atom_site_type_symbol
 _atom_site_label
 _atom_site_symmetry_multiplicity
 _atom_site_fract_x
 _atom_site_fract_y
 _atom_site_fract_z
 _atom_site_occupancy
  C  C0  1  0.85090000  0.00000000  0.25000000  1
  C  C1  1  0.72700000  0.00000000  0.75000000  1
  C  C2  1  0.70100000  0.00000000  0.25000000  1
  C  C3  1  0.57620000  1.00000000  0.75000000  1
  C  C4  1  0.42380000  0.00000000  0.25000000  1
  C  C5  1  0.29900000  0.00000000  0.75000000  1
  C  C6  1  0.27300000  0.00000000  0.25000000  1
  C  C7  1  0.14910000  1.00000000  0.75000000  1
  C  C8  1  0.59940000  0.98300000  0.53240000  1
  C  C9  1  0.38360000  0.98300000  0.03240000  1
  C  C10  1  0.49050000  0.96600000  0.70290000  1
  C  C11  1  0.47550000  0.96600000  0.20290000  1
  C  C12  1  0.61470000  0.96560000  0.20274000  1
  C  C13  1  0.35090000  0.96560000  0.70274000  1
  C  C14  1  0.70480000  0.96280000  0.56835000  1
  C  C15  1  0.25800000  0.96280000  0.06835000  1
  C  C16  1  0.57290000  0.91440000  0.00319000  1
  C  C17  1  0.34150000  0.91440000  0.50319000  1
  C  C18  1  0.45640000  0.89480000  0.03595000  1
  C  C19  1  0.43840000  0.89480000  0.53595000  1
  C  C20  1  0.76570000  0.70460000  0.07220000  1
  C  C21  1  0.93890000  0.70460000  0.57220000  1
  C  C22  1  0.62880000  0.59660000  0.03475000  1
  C  C23  1  0.96780000  0.59660000  0.53475000  1
  C  C24  1  0.64550000  0.55860000  0.98251000  1
  C  C25  1  0.91310000  0.55860000  0.48251000  1
  C  C26  1  0.48140000  0.53780000  0.05215000  1
  C  C27  1  0.05640000  0.53780000  0.55215000  1
  C  C28  1  0.51860000  0.46220000  0.94785000  1
  C  C29  1  0.94360000  0.46220000  0.44785000  1
  C  C30  1  0.35450000  0.44140000  0.01749000  1
  C  C31  1  0.08690000  0.44140000  0.51749000  1
  C  C32  1  0.37120000  0.40340000  0.96525000  1
  C  C33  1  0.03220000  0.40340000  0.46525000  1
  C  C34  1  0.23430000  0.29540000  0.92780000  1
  C  C35  1  0.06110000  0.29540000  0.42780000  1
  C  C36  1  0.54360000  0.10520000  0.96405000  1
  C  C37  1  0.56160000  0.10520000  0.46405000  1
  C  C38  1  0.42710000  0.08560000  0.99681000  1
  C  C39  1  0.65850000  0.08560000  0.49681000  1
  C  C40  1  0.29520000  0.03720000  0.43165000  1
  C  C41  1  0.74200000  0.03720000  0.93165000  1
  C  C42  1  0.38530000  0.03440000  0.79726000  1
  C  C43  1  0.64910000  0.03440000  0.29726000  1
  C  C44  1  0.50950000  0.03400000  0.29710000  1
  C  C45  1  0.52450000  0.03400000  0.79710000  1
  C  C46  1  0.40060000  0.01700000  0.46760000  1
  C  C47  1  0.61640000  0.01700000  0.96760000  1
  Cl  Cl48  1  0.71497000  0.67178000  0.68025000  1
  Cl  Cl49  1  0.95681000  0.67178000  0.18025000  1
  Cl  Cl50  1  0.28503000  0.32822000  0.31975000  1
  Cl  Cl51  1  0.04319000  0.32822000  0.81975000  1
  H  H52  1  0.52600000  0.94340000  0.67130000  1
  H  H53  1  0.41740000  0.94340000  0.17130000  1
  H  H54  1  0.64950000  0.94220000  0.17110000  1
  H  H55  1  0.29270000  0.94220000  0.67110000  1
  H  H56  1  0.62230000  0.85720000  0.00530000  1
  H  H57  1  0.23490000  0.85720000  0.50530000  1
  H  H58  1  0.42660000  0.82440000  0.05990000  1
  H  H59  1  0.39780000  0.82440000  0.55990000  1
  H  H60  1  0.74420000  0.59860000  0.97050000  1
  H  H61  1  0.85440000  0.59860000  0.47050000  1
  H  H62  1  0.46830000  0.56340000  0.08730000  1
  H  H63  1  0.09510000  0.56340000  0.58730000  1
  H  H64  1  0.53170000  0.43660000  0.91270000  1
  H  H65  1  0.90490000  0.43660000  0.41270000  1
  H  H66  1  0.25580000  0.40140000  0.02950000  1
  H  H67  1  0.14560000  0.40140000  0.52950000  1
  H  H68  1  0.57340000  0.17560000  0.94010000  1
  H  H69  1  0.60220000  0.17560000  0.44010000  1
  H  H70  1  0.37770000  0.14280000  0.99470000  1
  H  H71  1  0.76510000  0.14280000  0.49470000  1
  H  H72  1  0.35050000  0.05780000  0.82890000  1
  H  H73  1  0.70730000  0.05780000  0.32890000  1
  H  H74  1  0.47400000  0.05660000  0.32870000  1
  H  H75  1  0.58260000  0.05660000  0.82870000  1
  O  O76  1  0.77935000  0.98790000  0.79253000  1
  O  O77  1  0.20855000  0.98790000  0.29253000  1
  O  O78  1  0.90386000  0.98772000  0.20660000  1
  O  O79  1  0.08386000  0.98772000  0.70660000  1
  O  O80  1  0.80668000  0.95836000  0.93391000  1
  O  O81  1  0.15168000  0.95836000  0.43391000  1
  O  O82  1  0.64960000  0.86620000  0.60023000  1
  O  O83  1  0.21660000  0.86620000  0.10023000  1
  O  O84  1  0.74617000  0.75394000  0.11787000  1
  O  O85  1  0.00777000  0.75394000  0.61787000  1
  O  O86  1  0.84813000  0.74926000  0.55770000  1
  O  O87  1  0.90113000  0.74926000  0.05770000  1
  O  O88  1  0.15187000  0.25074000  0.44230000  1
  O  O89  1  0.09887000  0.25074000  0.94230000  1
  O  O90  1  0.25383000  0.24606000  0.88213000  1
  O  O91  1  0.99223000  0.24606000  0.38213000  1
  O  O92  1  0.35040000  0.13380000  0.39977000  1
  O  O93  1  0.78340000  0.13380000  0.89977000  1
  O  O94  1  0.19332000  0.04164000  0.06609000  1
  O  O95  1  0.84832000  0.04164000  0.56609000  1
  O  O96  1  0.09614000  0.01228000  0.79340000  1
  O  O97  1  0.91614000  0.01228000  0.29340000  1
  O  O98  1  0.22065000  0.01210000  0.20747000  1
  O  O99  1  0.79145000  0.01210000  0.70747000  1
  U  U100  1  0.90495000  0.93338000  0.63940000  1
  U  U101  1  0.02843000  0.93338000  0.13940000  1
  U  U102  1  0.09505000  0.06662000  0.36060000  1
  U  U103  1  0.97157000  0.06662000  0.86060000  1
