# generated using pymatgen
data_Mn4H21C15(N2O)6
_symmetry_space_group_name_H-M   'P 1'
_cell_length_a   8.03200000
_cell_length_b   13.48460000
_cell_length_c   13.48460000
_cell_angle_alpha   120.00000000
_cell_angle_beta   90.00000000
_cell_angle_gamma   90.00000000
_symmetry_Int_Tables_number   1
_chemical_formula_structural   Mn4H21C15(N2O)6
_chemical_formula_sum   'Mn8 H42 C30 N24 O12'
_cell_volume   1264.82507865
_cell_formula_units_Z   2
loop_
 _symmetry_equiv_pos_site_id
 _symmetry_equiv_pos_as_xyz
  1  'x, y, z'
loop_
 _atom_site_type_symbol
 _atom_site_label
 _atom_site_symmetry_multiplicity
 _atom_site_fract_x
 _atom_site_fract_y
 _atom_site_fract_z
 _atom_site_occupancy
  Mn  Mn0  1  0.45537000  0.96269000  0.66127000  1
  Mn  Mn1  1  0.45537000  0.69858000  0.03731000  1
  Mn  Mn2  1  0.07520000  0.66666667  0.33333333  1
  Mn  Mn3  1  0.95537000  0.66127000  0.69858000  1
  Mn  Mn4  1  0.45537000  0.33873000  0.30142000  1
  Mn  Mn5  1  0.57520000  0.33333333  0.66666667  1
  Mn  Mn6  1  0.95537000  0.30142000  0.96269000  1
  Mn  Mn7  1  0.95537000  0.03731000  0.33873000  1
  H  H8  1  0.69870000  0.98100000  0.53770000  1
  H  H9  1  0.94540000  0.95590000  0.60040000  1
  H  H10  1  0.85280000  0.91410000  0.67540000  1
  H  H11  1  0.56310000  0.91200000  0.20090000  1
  H  H12  1  0.29010000  0.86450000  0.28660000  1
  H  H13  1  0.70530000  0.86380000  0.51500000  1
  H  H14  1  0.55400000  0.84490000  0.25880000  1
  H  H15  1  0.56310000  0.79910000  0.71110000  1
  H  H16  1  0.85280000  0.76130000  0.08590000  1
  H  H17  1  0.55400000  0.74120000  0.58610000  1
  H  H18  1  0.29010000  0.71340000  0.57790000  1
  H  H19  1  0.06310000  0.71110000  0.91200000  1
  H  H20  1  0.35280000  0.67540000  0.76130000  1
  H  H21  1  0.70530000  0.65120000  0.13620000  1
  H  H22  1  0.94540000  0.64450000  0.04410000  1
  H  H23  1  0.44540000  0.60040000  0.64450000  1
  H  H24  1  0.05400000  0.58610000  0.84490000  1
  H  H25  1  0.79010000  0.57790000  0.86450000  1
  H  H26  1  0.69870000  0.55670000  0.01900000  1
  H  H27  1  0.19870000  0.53770000  0.55670000  1
  H  H28  1  0.20530000  0.51500000  0.65120000  1
  H  H29  1  0.70530000  0.48500000  0.34880000  1
  H  H30  1  0.69870000  0.46230000  0.44330000  1
  H  H31  1  0.19870000  0.44330000  0.98100000  1
  H  H32  1  0.29010000  0.42210000  0.13550000  1
  H  H33  1  0.55400000  0.41390000  0.15510000  1
  H  H34  1  0.94540000  0.39960000  0.35550000  1
  H  H35  1  0.44540000  0.35550000  0.95590000  1
  H  H36  1  0.20530000  0.34880000  0.86380000  1
  H  H37  1  0.85280000  0.32460000  0.23870000  1
  H  H38  1  0.56310000  0.28890000  0.08800000  1
  H  H39  1  0.79010000  0.28660000  0.42210000  1
  H  H40  1  0.05400000  0.25880000  0.41390000  1
  H  H41  1  0.35280000  0.23870000  0.91410000  1
  H  H42  1  0.06310000  0.20090000  0.28890000  1
  H  H43  1  0.05400000  0.15510000  0.74120000  1
  H  H44  1  0.20530000  0.13620000  0.48500000  1
  H  H45  1  0.79010000  0.13550000  0.71340000  1
  H  H46  1  0.06310000  0.08800000  0.79910000  1
  H  H47  1  0.35280000  0.08590000  0.32460000  1
  H  H48  1  0.44540000  0.04410000  0.39960000  1
  H  H49  1  0.19870000  0.01900000  0.46230000  1
  C  C50  1  0.84590000  0.96590000  0.64520000  1
  C  C51  1  0.33740000  0.91000000  0.25520000  1
  C  C52  1  0.22300000  0.89320000  0.15770000  1
  C  C53  1  0.22300000  0.84230000  0.73550000  1
  C  C54  1  0.22140000  0.79400000  0.44070000  1
  C  C55  1  0.95190000  0.78890000  0.32250000  1
  C  C56  1  0.33740000  0.74480000  0.65480000  1
  C  C57  1  0.72300000  0.73550000  0.89320000  1
  C  C58  1  0.84590000  0.67930000  0.03410000  1
  C  C59  1  0.95190000  0.67750000  0.46640000  1
  C  C60  1  0.83740000  0.65480000  0.91000000  1
  C  C61  1  0.22140000  0.64670000  0.20600000  1
  C  C62  1  0.34590000  0.64520000  0.67930000  1
  C  C63  1  0.22140000  0.55930000  0.35330000  1
  C  C64  1  0.95190000  0.53360000  0.21110000  1
  C  C65  1  0.45190000  0.46640000  0.78890000  1
  C  C66  1  0.72140000  0.44070000  0.64670000  1
  C  C67  1  0.84590000  0.35480000  0.32070000  1
  C  C68  1  0.72140000  0.35330000  0.79400000  1
  C  C69  1  0.33740000  0.34520000  0.09000000  1
  C  C70  1  0.45190000  0.32250000  0.53360000  1
  C  C71  1  0.34590000  0.32070000  0.96590000  1
  C  C72  1  0.22300000  0.26450000  0.10680000  1
  C  C73  1  0.83740000  0.25520000  0.34520000  1
  C  C74  1  0.45190000  0.21110000  0.67750000  1
  C  C75  1  0.72140000  0.20600000  0.55930000  1
  C  C76  1  0.72300000  0.15770000  0.26450000  1
  C  C77  1  0.72300000  0.10680000  0.84230000  1
  C  C78  1  0.83740000  0.09000000  0.74480000  1
  C  C79  1  0.34590000  0.03410000  0.35480000  1
  N  N80  1  0.69790000  0.93750000  0.57100000  1
  N  N81  1  0.30710000  0.86760000  0.50070000  1
  N  N82  1  0.89630000  0.86630000  0.32030000  1
  N  N83  1  0.50070000  0.86190000  0.21040000  1
  N  N84  1  0.50070000  0.78960000  0.65150000  1
  N  N85  1  0.89630000  0.67970000  0.54600000  1
  N  N86  1  0.00070000  0.65150000  0.86190000  1
  N  N87  1  0.69790000  0.63350000  0.06250000  1
  N  N88  1  0.30710000  0.63310000  0.13240000  1
  N  N89  1  0.19790000  0.57100000  0.63350000  1
  N  N90  1  0.39630000  0.54600000  0.86630000  1
  N  N91  1  0.80710000  0.50070000  0.63310000  1
  N  N92  1  0.30710000  0.49930000  0.36690000  1
  N  N93  1  0.89630000  0.45400000  0.13370000  1
  N  N94  1  0.69790000  0.42900000  0.36650000  1
  N  N95  1  0.80710000  0.36690000  0.86760000  1
  N  N96  1  0.19790000  0.36650000  0.93750000  1
  N  N97  1  0.50070000  0.34850000  0.13810000  1
  N  N98  1  0.39630000  0.32030000  0.45400000  1
  N  N99  1  0.00070000  0.21040000  0.34850000  1
  N  N100  1  0.00070000  0.13810000  0.78960000  1
  N  N101  1  0.39630000  0.13370000  0.67970000  1
  N  N102  1  0.80710000  0.13240000  0.49930000  1
  N  N103  1  0.19790000  0.06250000  0.42900000  1
  O  O104  1  0.09680000  0.95507000  0.18127000  1
  O  O105  1  0.25760000  0.94251000  0.75960000  1
  O  O106  1  0.09680000  0.81873000  0.77380000  1
  O  O107  1  0.25760000  0.81709000  0.05749000  1
  O  O108  1  0.59680000  0.77380000  0.95507000  1
  O  O109  1  0.75760000  0.75960000  0.81709000  1
  O  O110  1  0.25760000  0.24040000  0.18291000  1
  O  O111  1  0.09680000  0.22620000  0.04493000  1
  O  O112  1  0.75760000  0.18291000  0.94251000  1
  O  O113  1  0.59680000  0.18127000  0.22620000  1
  O  O114  1  0.75760000  0.05749000  0.24040000  1
  O  O115  1  0.59680000  0.04493000  0.81873000  1
