# generated using pymatgen
data_ZnH12C19NO4
_symmetry_space_group_name_H-M   'P 1'
_cell_length_a   14.07100000
_cell_length_b   15.26500000
_cell_length_c   15.35100000
_cell_angle_alpha   88.33700000
_cell_angle_beta   85.77900000
_cell_angle_gamma   85.20500000
_symmetry_Int_Tables_number   1
_chemical_formula_structural   ZnH12C19NO4
_chemical_formula_sum   'Zn4 H48 C76 N4 O16'
_cell_volume   3275.97976007
_cell_formula_units_Z   4
loop_
 _symmetry_equiv_pos_site_id
 _symmetry_equiv_pos_as_xyz
  1  'x, y, z'
loop_
 _atom_site_type_symbol
 _atom_site_label
 _atom_site_symmetry_multiplicity
 _atom_site_fract_x
 _atom_site_fract_y
 _atom_site_fract_z
 _atom_site_occupancy
  Zn  Zn0  1  0.10503000  0.16471000  0.39952000  1
  Zn  Zn1  1  0.31379000  0.14899000  0.38591000  1
  Zn  Zn2  1  0.68621000  0.85101000  0.61409000  1
  Zn  Zn3  1  0.89497000  0.83529000  0.60048000  1
  H  H4  1  0.04250000  0.96860000  0.60470000  1
  H  H5  1  0.06430000  0.16550000  0.69170000  1
  H  H6  1  0.06710000  0.17650000  0.84000000  1
  H  H7  1  0.06860000  0.73840000  0.38590000  1
  H  H8  1  0.06870000  0.71250000  0.61420000  1
  H  H9  1  0.07200000  0.45510000  0.45490000  1
  H  H10  1  0.07330000  0.88740000  0.38510000  1
  H  H11  1  0.07950000  0.60260000  0.45420000  1
  H  H12  1  0.08510000  0.23050000  0.11820000  1
  H  H13  1  0.08710000  0.24340000  0.96930000  1
  H  H14  1  0.20100000  0.97560000  0.60140000  1
  H  H15  1  0.23010000  0.71190000  0.62010000  1
  H  H16  1  0.32980000  0.42810000  0.32600000  1
  H  H17  1  0.33580000  0.57790000  0.32370000  1
  H  H18  1  0.34490000  0.12190000  0.94950000  1
  H  H19  1  0.34880000  0.16540000  0.66370000  1
  H  H20  1  0.35090000  0.12130000  0.09720000  1
  H  H21  1  0.35190000  0.17570000  0.81160000  1
  H  H22  1  0.35380000  0.96800000  0.55900000  1
  H  H23  1  0.35460000  0.70860000  0.38440000  1
  H  H24  1  0.36040000  0.85830000  0.38330000  1
  H  H25  1  0.37530000  0.72430000  0.66840000  1
  H  H26  1  0.46440000  0.28070000  0.35090000  1
  H  H27  1  0.48650000  0.02690000  0.43520000  1
  H  H28  1  0.51350000  0.97310000  0.56480000  1
  H  H29  1  0.53560000  0.71930000  0.64910000  1
  H  H30  1  0.62470000  0.27570000  0.33160000  1
  H  H31  1  0.63960000  0.14170000  0.61670000  1
  H  H32  1  0.64540000  0.29140000  0.61560000  1
  H  H33  1  0.64620000  0.03200000  0.44100000  1
  H  H34  1  0.64810000  0.82430000  0.18840000  1
  H  H35  1  0.64910000  0.87870000  0.90280000  1
  H  H36  1  0.65120000  0.83460000  0.33630000  1
  H  H37  1  0.65510000  0.87810000  0.05050000  1
  H  H38  1  0.66420000  0.42210000  0.67630000  1
  H  H39  1  0.67020000  0.57190000  0.67400000  1
  H  H40  1  0.76990000  0.28810000  0.37990000  1
  H  H41  1  0.79900000  0.02440000  0.39860000  1
  H  H42  1  0.91290000  0.75660000  0.03070000  1
  H  H43  1  0.91490000  0.76950000  0.88180000  1
  H  H44  1  0.92050000  0.39740000  0.54580000  1
  H  H45  1  0.92670000  0.11260000  0.61490000  1
  H  H46  1  0.92800000  0.54490000  0.54510000  1
  H  H47  1  0.93130000  0.28750000  0.38580000  1
  H  H48  1  0.93140000  0.26160000  0.61410000  1
  H  H49  1  0.93290000  0.82350000  0.16000000  1
  H  H50  1  0.93570000  0.83450000  0.30830000  1
  H  H51  1  0.95750000  0.03140000  0.39530000  1
  C  C52  1  0.08150000  0.91630000  0.60540000  1
  C  C53  1  0.09600000  0.76600000  0.61220000  1
  C  C54  1  0.12280000  0.16690000  0.71580000  1
  C  C55  1  0.12430000  0.17370000  0.80540000  1
  C  C56  1  0.12620000  0.47910000  0.42910000  1
  C  C57  1  0.12760000  0.76180000  0.38550000  1
  C  C58  1  0.13010000  0.85160000  0.38520000  1
  C  C59  1  0.13020000  0.56790000  0.42740000  1
  C  C60  1  0.13950000  0.21450000  0.99440000  1
  C  C61  1  0.13970000  0.20940000  0.08480000  1
  C  C62  1  0.17610000  0.92100000  0.60510000  1
  C  C63  1  0.19340000  0.76510000  0.61510000  1
  C  C64  1  0.19760000  0.32680000  0.39640000  1
  C  C65  1  0.19990000  0.42460000  0.39390000  1
  C  C66  1  0.20260000  0.15480000  0.56170000  1
  C  C67  1  0.20560000  0.16230000  0.66080000  1
  C  C68  1  0.20600000  0.60830000  0.38770000  1
  C  C69  1  0.20980000  0.70450000  0.38540000  1
  C  C70  1  0.21020000  0.17640000  0.84480000  1
  C  C71  1  0.21350000  0.17880000  0.94130000  1
  C  C72  1  0.21610000  0.88940000  0.38490000  1
  C  C73  1  0.21630000  0.16750000  0.22340000  1
  C  C74  1  0.21750000  0.17450000  0.12670000  1
  C  C75  1  0.22020000  0.98710000  0.38800000  1
  C  C76  1  0.23800000  0.84460000  0.61040000  1
  C  C77  1  0.27930000  0.46350000  0.35220000  1
  C  C78  1  0.28240000  0.55320000  0.35020000  1
  C  C79  1  0.29150000  0.14500000  0.98320000  1
  C  C80  1  0.29190000  0.16680000  0.69870000  1
  C  C81  1  0.29330000  0.17330000  0.78790000  1
  C  C82  1  0.29510000  0.14350000  0.07270000  1
  C  C83  1  0.29780000  0.74450000  0.38460000  1
  C  C84  1  0.30170000  0.83420000  0.38420000  1
  C  C85  1  0.34220000  0.84590000  0.61130000  1
  C  C86  1  0.38950000  0.91940000  0.58120000  1
  C  C87  1  0.40370000  0.77250000  0.64290000  1
  C  C88  1  0.48520000  0.92220000  0.58320000  1
  C  C89  1  0.49830000  0.77090000  0.63710000  1
  C  C90  1  0.50170000  0.22910000  0.36290000  1
  C  C91  1  0.51480000  0.07780000  0.41680000  1
  C  C92  1  0.59630000  0.22750000  0.35710000  1
  C  C93  1  0.61050000  0.08060000  0.41880000  1
  C  C94  1  0.65780000  0.15410000  0.38870000  1
  C  C95  1  0.69830000  0.16580000  0.61580000  1
  C  C96  1  0.70220000  0.25550000  0.61540000  1
  C  C97  1  0.70490000  0.85650000  0.92730000  1
  C  C98  1  0.70670000  0.82670000  0.21210000  1
  C  C99  1  0.70810000  0.83320000  0.30130000  1
  C  C100  1  0.70850000  0.85500000  0.01680000  1
  C  C101  1  0.71760000  0.44680000  0.64980000  1
  C  C102  1  0.72070000  0.53650000  0.64780000  1
  C  C103  1  0.76200000  0.15540000  0.38960000  1
  C  C104  1  0.77980000  0.01290000  0.61200000  1
  C  C105  1  0.78250000  0.82550000  0.87330000  1
  C  C106  1  0.78370000  0.83250000  0.77660000  1
  C  C107  1  0.78390000  0.11060000  0.61510000  1
  C  C108  1  0.78650000  0.82120000  0.05870000  1
  C  C109  1  0.78980000  0.82360000  0.15520000  1
  C  C110  1  0.79020000  0.29550000  0.61460000  1
  C  C111  1  0.79400000  0.39170000  0.61230000  1
  C  C112  1  0.79440000  0.83770000  0.33920000  1
  C  C113  1  0.79740000  0.84520000  0.43830000  1
  C  C114  1  0.80010000  0.57540000  0.60610000  1
  C  C115  1  0.80240000  0.67320000  0.60360000  1
  C  C116  1  0.80660000  0.23490000  0.38490000  1
  C  C117  1  0.82390000  0.07900000  0.39490000  1
  C  C118  1  0.86030000  0.79060000  0.91520000  1
  C  C119  1  0.86050000  0.78550000  0.00560000  1
  C  C120  1  0.86980000  0.43210000  0.57260000  1
  C  C121  1  0.86990000  0.14840000  0.61480000  1
  C  C122  1  0.87240000  0.23820000  0.61450000  1
  C  C123  1  0.87380000  0.52090000  0.57090000  1
  C  C124  1  0.87570000  0.82630000  0.19460000  1
  C  C125  1  0.87720000  0.83310000  0.28420000  1
  C  C126  1  0.90400000  0.23400000  0.38780000  1
  C  C127  1  0.91850000  0.08370000  0.39460000  1
  N  N128  1  0.03920000  0.83920000  0.60670000  1
  N  N129  1  0.45860000  0.15000000  0.38780000  1
  N  N130  1  0.54140000  0.85000000  0.61220000  1
  N  N131  1  0.96080000  0.16080000  0.39330000  1
  O  O132  1  0.11800000  0.29540000  0.41280000  1
  O  O133  1  0.12220000  0.15130000  0.53300000  1
  O  O134  1  0.13870000  0.18430000  0.26740000  1
  O  O135  1  0.14180000  0.03330000  0.38690000  1
  O  O136  1  0.27680000  0.28190000  0.38210000  1
  O  O137  1  0.28210000  0.15260000  0.51860000  1
  O  O138  1  0.29660000  0.14750000  0.25530000  1
  O  O139  1  0.30140000  0.01720000  0.39230000  1
  O  O140  1  0.69860000  0.98280000  0.60770000  1
  O  O141  1  0.70340000  0.85250000  0.74470000  1
  O  O142  1  0.71790000  0.84740000  0.48140000  1
  O  O143  1  0.72320000  0.71810000  0.61790000  1
  O  O144  1  0.85820000  0.96670000  0.61310000  1
  O  O145  1  0.86130000  0.81570000  0.73260000  1
  O  O146  1  0.87780000  0.84870000  0.46700000  1
  O  O147  1  0.88200000  0.70460000  0.58720000  1
