# generated using pymatgen
data_InH4C8O5
_symmetry_space_group_name_H-M   'P 1'
_cell_length_a   12.30600000
_cell_length_b   12.57035643
_cell_length_c   12.57035643
_cell_angle_alpha   76.13733269
_cell_angle_beta   60.69326706
_cell_angle_gamma   60.69326706
_symmetry_Int_Tables_number   1
_chemical_formula_structural   InH4C8O5
_chemical_formula_sum   'In4 H16 C32 O20'
_cell_volume   1478.62068391
_cell_formula_units_Z   4
loop_
 _symmetry_equiv_pos_site_id
 _symmetry_equiv_pos_as_xyz
  1  'x, y, z'
loop_
 _atom_site_type_symbol
 _atom_site_label
 _atom_site_symmetry_multiplicity
 _atom_site_fract_x
 _atom_site_fract_y
 _atom_site_fract_z
 _atom_site_occupancy
  C  C0  1  0.78740000  0.00000000  0.00000000  1
  C  C1  1  0.56050000  0.00000000  0.00000000  1
  C  C2  1  0.43950000  0.00000000  0.00000000  1
  C  C3  1  0.21260000  0.00000000  0.00000000  1
  C  C4  1  0.96260000  0.50000000  0.50000000  1
  C  C5  1  0.53740000  0.50000000  0.50000000  1
  C  C6  1  0.31050000  0.50000000  0.50000000  1
  C  C7  1  0.18950000  0.50000000  0.50000000  1
  C  C8  1  0.17190000  0.39338000  0.52842000  1
  C  C9  1  0.05840000  0.39338000  0.52842000  1
  C  C10  1  0.76980000  0.02842000  0.89338000  1
  C  C11  1  0.65630000  0.02842000  0.89338000  1
  C  C12  1  0.54822000  0.39338000  0.47158000  1
  C  C13  1  0.43472000  0.39338000  0.47158000  1
  C  C14  1  0.45032000  0.97158000  0.89338000  1
  C  C15  1  0.33682000  0.97158000  0.89338000  1
  C  C16  1  0.04330000  0.28140000  0.55280000  1
  C  C17  1  0.87250000  0.05280000  0.78140000  1
  C  C18  1  0.67530000  0.28140000  0.44720000  1
  C  C19  1  0.34610000  0.94720000  0.78140000  1
  C  C20  1  0.07470000  0.05280000  0.21860000  1
  C  C21  1  0.40390000  0.71860000  0.55280000  1
  C  C22  1  0.70670000  0.94720000  0.21860000  1
  C  C23  1  0.87750000  0.71860000  0.44720000  1
  C  C24  1  0.31528000  0.02842000  0.10662000  1
  C  C25  1  0.20178000  0.02842000  0.10662000  1
  C  C26  1  0.41318000  0.60662000  0.52842000  1
  C  C27  1  0.29968000  0.60662000  0.52842000  1
  C  C28  1  0.69160000  0.97158000  0.10662000  1
  C  C29  1  0.57810000  0.97158000  0.10662000  1
  C  C30  1  0.09370000  0.60662000  0.47158000  1
  C  C31  1  0.98020000  0.60662000  0.47158000  1
  H  H32  1  0.87270000  0.00000000  0.00000000  1
  H  H33  1  0.12730000  0.00000000  0.00000000  1
  H  H34  1  0.87730000  0.50000000  0.50000000  1
  H  H35  1  0.62270000  0.50000000  0.50000000  1
  H  H36  1  0.24380000  0.31330000  0.54990000  1
  H  H37  1  0.64300000  0.04990000  0.81330000  1
  H  H38  1  0.44290000  0.31330000  0.45010000  1
  H  H39  1  0.54370000  0.95010000  0.81330000  1
  H  H40  1  0.55950000  0.06550000  0.56550000  1
  H  H41  1  0.37500000  0.06550000  0.43450000  1
  H  H42  1  0.87500000  0.93450000  0.56550000  1
  H  H43  1  0.19050000  0.93450000  0.43450000  1
  H  H44  1  0.30710000  0.04990000  0.18670000  1
  H  H45  1  0.20630000  0.68670000  0.54990000  1
  H  H46  1  0.50620000  0.95010000  0.18670000  1
  H  H47  1  0.10700000  0.68670000  0.45010000  1
  In  In48  1  0.92190000  0.15620000  0.50000000  1
  In  In49  1  0.17190000  1.00000000  0.65620000  1
  In  In50  1  0.82810000  1.00000000  0.34380000  1
  In  In51  1  0.57810000  0.84380000  0.50000000  1
  O  O52  1  0.09260000  0.20310000  0.62070000  1
  O  O53  1  0.83360000  0.12070000  0.70310000  1
  O  O54  1  0.98170000  0.26820000  0.50480000  1
  O  O55  1  0.99530000  0.00480000  0.76820000  1
  O  O56  1  0.75010000  0.26820000  0.49520000  1
  O  O57  1  0.23650000  0.99520000  0.76820000  1
  O  O58  1  0.70430000  0.20310000  0.37930000  1
  O  O59  1  0.46330000  0.87930000  0.70310000  1
  O  O60  1  0.61750000  0.00750000  0.50750000  1
  O  O61  1  0.37500000  0.00750000  0.49250000  1
  O  O62  1  0.87500000  0.99250000  0.50750000  1
  O  O63  1  0.13250000  0.99250000  0.49250000  1
  O  O64  1  0.04570000  0.12070000  0.29690000  1
  O  O65  1  0.28670000  0.79690000  0.62070000  1
  O  O66  1  0.99990000  0.00480000  0.23180000  1
  O  O67  1  0.51350000  0.73180000  0.50480000  1
  O  O68  1  0.76830000  0.99520000  0.23180000  1
  O  O69  1  0.75470000  0.73180000  0.49520000  1
  O  O70  1  0.65740000  0.87930000  0.29690000  1
  O  O71  1  0.91640000  0.79690000  0.37930000  1
