# generated using pymatgen
data_Tb2H25C39N3O14
_symmetry_space_group_name_H-M   'P 1'
_cell_length_a   12.78800000
_cell_length_b   13.67000000
_cell_length_c   14.21100000
_cell_angle_alpha   66.16900000
_cell_angle_beta   66.94700000
_cell_angle_gamma   77.01900000
_symmetry_Int_Tables_number   1
_chemical_formula_structural   Tb2H25C39N3O14
_chemical_formula_sum   'Tb4 H50 C78 N6 O28'
_cell_volume   2084.45829378
_cell_formula_units_Z   2
loop_
 _symmetry_equiv_pos_site_id
 _symmetry_equiv_pos_as_xyz
  1  'x, y, z'
loop_
 _atom_site_type_symbol
 _atom_site_label
 _atom_site_symmetry_multiplicity
 _atom_site_fract_x
 _atom_site_fract_y
 _atom_site_fract_z
 _atom_site_occupancy
  Tb  Tb0  1  0.42851000  0.88135000  0.01143000  1
  Tb  Tb1  1  0.43172000  0.82022000  0.66484000  1
  Tb  Tb2  1  0.56828000  0.17978000  0.33516000  1
  Tb  Tb3  1  0.57149000  0.11865000  0.98857000  1
  H  H4  1  0.00710000  0.35630000  0.91930000  1
  H  H5  1  0.01590000  0.48980000  0.75440000  1
  H  H6  1  0.01930000  0.26160000  0.69720000  1
  H  H7  1  0.02490000  0.76430000  0.76280000  1
  H  H8  1  0.04550000  0.95600000  0.38960000  1
  H  H9  1  0.04730000  0.26340000  0.34890000  1
  H  H10  1  0.07440000  0.87110000  0.08420000  1
  H  H11  1  0.10780000  0.81940000  0.32000000  1
  H  H12  1  0.10830000  0.87010000  0.79280000  1
  H  H13  1  0.11780000  0.35460000  0.01310000  1
  H  H14  1  0.13800000  0.62320000  0.68280000  1
  H  H15  1  0.14680000  0.98810000  0.55760000  1
  H  H16  1  0.19490000  0.13200000  0.97600000  1
  H  H17  1  0.20490000  0.38030000  0.57740000  1
  H  H18  1  0.22280000  0.18460000  0.35930000  1
  H  H19  1  0.22290000  0.63250000  0.97220000  1
  H  H20  1  0.29920000  0.08420000  0.75010000  1
  H  H21  1  0.32720000  0.32740000  0.00310000  1
  H  H22  1  0.32790000  0.08050000  0.25530000  1
  H  H23  1  0.34700000  0.67460000  0.10660000  1
  H  H24  1  0.40550000  0.47130000  0.15860000  1
  H  H25  1  0.41080000  0.74350000  0.14020000  1
  H  H26  1  0.41680000  0.34350000  0.72710000  1
  H  H27  1  0.44600000  0.69430000  0.52280000  1
  H  H28  1  0.47960000  0.22120000  0.47300000  1
  H  H29  1  0.52040000  0.77880000  0.52700000  1
  H  H30  1  0.55400000  0.30570000  0.47720000  1
  H  H31  1  0.58320000  0.65650000  0.27290000  1
  H  H32  1  0.58920000  0.25650000  0.85980000  1
  H  H33  1  0.59450000  0.52870000  0.84140000  1
  H  H34  1  0.65300000  0.32540000  0.89340000  1
  H  H35  1  0.67210000  0.91950000  0.74470000  1
  H  H36  1  0.67280000  0.67260000  0.99690000  1
  H  H37  1  0.70080000  0.91580000  0.24990000  1
  H  H38  1  0.77710000  0.36750000  0.02780000  1
  H  H39  1  0.77720000  0.81540000  0.64070000  1
  H  H40  1  0.79510000  0.61970000  0.42260000  1
  H  H41  1  0.80510000  0.86800000  0.02400000  1
  H  H42  1  0.85320000  0.01190000  0.44240000  1
  H  H43  1  0.86200000  0.37680000  0.31720000  1
  H  H44  1  0.88220000  0.64540000  0.98690000  1
  H  H45  1  0.89170000  0.12990000  0.20720000  1
  H  H46  1  0.89220000  0.18060000  0.68000000  1
  H  H47  1  0.92560000  0.12890000  0.91580000  1
  H  H48  1  0.95270000  0.73660000  0.65110000  1
  H  H49  1  0.95450000  0.04400000  0.61040000  1
  H  H50  1  0.97510000  0.23570000  0.23720000  1
  H  H51  1  0.98070000  0.73840000  0.30280000  1
  H  H52  1  0.98410000  0.51020000  0.24560000  1
  H  H53  1  0.99290000  0.64370000  0.08070000  1
  C  C54  1  0.00650000  0.07710000  0.61650000  1
  C  C55  1  0.03060000  0.84150000  0.34190000  1
  C  C56  1  0.04160000  0.86990000  0.03680000  1
  C  C57  1  0.04570000  0.20760000  0.66750000  1
  C  C58  1  0.04670000  0.20390000  0.24010000  1
  C  C59  1  0.05470000  0.13130000  0.10400000  1
  C  C60  1  0.05620000  0.41010000  0.89020000  1
  C  C61  1  0.06140000  0.48930000  0.79210000  1
  C  C62  1  0.06300000  0.86910000  0.86270000  1
  C  C63  1  0.08970000  0.22060000  0.30760000  1
  C  C64  1  0.10690000  0.14130000  0.17680000  1
  C  C65  1  0.11300000  0.86780000  0.93470000  1
  C  C66  1  0.11620000  0.13110000  0.99940000  1
  C  C67  1  0.12170000  0.04450000  0.58380000  1
  C  C68  1  0.12280000  0.40910000  0.94620000  1
  C  C69  1  0.13480000  0.56870000  0.74930000  1
  C  C70  1  0.16230000  0.17750000  0.63320000  1
  C  C71  1  0.19400000  0.17430000  0.31350000  1
  C  C72  1  0.19760000  0.48780000  0.90540000  1
  C  C73  1  0.19970000  0.09560000  0.58980000  1
  C  C74  1  0.20410000  0.56820000  0.80460000  1
  C  C75  1  0.21540000  0.09590000  0.18230000  1
  C  C76  1  0.23930000  0.86270000  0.90310000  1
  C  C77  1  0.23940000  0.22460000  0.65680000  1
  C  C78  1  0.24740000  0.33460000  0.62100000  1
  C  C79  1  0.25670000  0.11210000  0.25120000  1
  C  C80  1  0.26210000  0.56860000  0.00220000  1
  C  C81  1  0.26260000  0.48260000  0.97550000  1
  C  C82  1  0.28510000  0.65490000  0.75050000  1
  C  C83  1  0.28960000  0.02310000  0.12270000  1
  C  C84  1  0.30230000  0.15820000  0.72340000  1
  C  C85  1  0.32240000  0.38740000  0.02050000  1
  C  C86  1  0.32380000  0.06620000  0.53750000  1
  C  C87  1  0.36920000  0.47430000  0.11210000  1
  C  C88  1  0.36970000  0.20280000  0.74960000  1
  C  C89  1  0.37200000  0.31360000  0.70910000  1
  C  C90  1  0.37440000  0.38320000  0.09110000  1
  C  C91  1  0.43730000  0.13230000  0.82100000  1
  C  C92  1  0.43910000  0.28250000  0.14250000  1
  C  C93  1  0.56090000  0.71750000  0.85750000  1
  C  C94  1  0.56270000  0.86770000  0.17900000  1
  C  C95  1  0.62560000  0.61680000  0.90890000  1
  C  C96  1  0.62800000  0.68640000  0.29090000  1
  C  C97  1  0.63030000  0.79720000  0.25040000  1
  C  C98  1  0.63080000  0.52570000  0.88790000  1
  C  C99  1  0.67620000  0.93380000  0.46250000  1
  C  C100  1  0.67760000  0.61260000  0.97950000  1
  C  C101  1  0.69770000  0.84180000  0.27660000  1
  C  C102  1  0.71040000  0.97690000  0.87730000  1
  C  C103  1  0.71490000  0.34510000  0.24950000  1
  C  C104  1  0.73740000  0.51740000  0.02450000  1
  C  C105  1  0.73790000  0.43140000  0.99780000  1
  C  C106  1  0.74330000  0.88790000  0.74880000  1
  C  C107  1  0.75260000  0.66540000  0.37900000  1
  C  C108  1  0.76060000  0.77540000  0.34320000  1
  C  C109  1  0.76070000  0.13730000  0.09690000  1
  C  C110  1  0.78460000  0.90410000  0.81770000  1
  C  C111  1  0.79590000  0.43180000  0.19540000  1
  C  C112  1  0.80030000  0.90440000  0.41020000  1
  C  C113  1  0.80240000  0.51220000  0.09460000  1
  C  C114  1  0.80600000  0.82570000  0.68650000  1
  C  C115  1  0.83770000  0.82250000  0.36680000  1
  C  C116  1  0.86520000  0.43130000  0.25070000  1
  C  C117  1  0.87720000  0.59090000  0.05380000  1
  C  C118  1  0.87830000  0.95550000  0.41620000  1
  C  C119  1  0.88380000  0.86890000  0.00060000  1
  C  C120  1  0.88700000  0.13220000  0.06530000  1
  C  C121  1  0.89310000  0.85870000  0.82320000  1
  C  C122  1  0.91030000  0.77940000  0.69240000  1
  C  C123  1  0.93700000  0.13090000  0.13730000  1
  C  C124  1  0.93860000  0.51070000  0.20790000  1
  C  C125  1  0.94380000  0.58990000  0.10980000  1
  C  C126  1  0.94530000  0.86870000  0.89600000  1
  C  C127  1  0.95330000  0.79610000  0.75990000  1
  C  C128  1  0.95430000  0.79240000  0.33250000  1
  C  C129  1  0.95840000  0.13010000  0.96320000  1
  C  C130  1  0.96940000  0.15850000  0.65810000  1
  C  C131  1  0.99350000  0.92290000  0.38350000  1
  N  N132  1  0.07160000  0.12970000  0.92930000  1
  N  N133  1  0.31240000  0.37870000  0.64540000  1
  N  N134  1  0.31410000  0.56720000  0.06850000  1
  N  N135  1  0.68590000  0.43280000  0.93150000  1
  N  N136  1  0.68760000  0.62130000  0.35460000  1
  N  N137  1  0.92840000  0.87030000  0.07070000  1
  O  O138  1  0.25670000  0.93900000  0.13500000  1
  O  O139  1  0.25820000  0.74590000  0.68860000  1
  O  O140  1  0.27770000  0.85990000  0.97230000  1
  O  O141  1  0.29940000  0.85960000  0.81030000  1
  O  O142  1  0.35550000  0.96840000  0.55080000  1
  O  O143  1  0.36840000  0.70800000  0.13450000  1
  O  O144  1  0.37850000  0.63670000  0.76550000  1
  O  O145  1  0.38730000  0.14080000  0.47800000  1
  O  O146  1  0.39020000  0.04730000  0.06070000  1
  O  O147  1  0.43240000  0.03220000  0.85110000  1
  O  O148  1  0.45140000  0.27260000  0.22950000  1
  O  O149  1  0.47410000  0.21520000  0.09670000  1
  O  O150  1  0.47550000  0.73980000  0.52940000  1
  O  O151  1  0.49350000  0.17540000  0.84720000  1
  O  O152  1  0.50650000  0.82460000  0.15280000  1
  O  O153  1  0.52450000  0.26020000  0.47060000  1
  O  O154  1  0.52590000  0.78480000  0.90330000  1
  O  O155  1  0.54860000  0.72740000  0.77050000  1
  O  O156  1  0.56760000  0.96780000  0.14890000  1
  O  O157  1  0.60980000  0.95270000  0.93930000  1
  O  O158  1  0.61270000  0.85920000  0.52200000  1
  O  O159  1  0.62150000  0.36330000  0.23450000  1
  O  O160  1  0.63160000  0.29200000  0.86550000  1
  O  O161  1  0.64450000  0.03160000  0.44920000  1
  O  O162  1  0.70060000  0.14040000  0.18970000  1
  O  O163  1  0.72230000  0.14010000  0.02770000  1
  O  O164  1  0.74180000  0.25410000  0.31140000  1
  O  O165  1  0.74330000  0.06100000  0.86500000  1
