# generated using pymatgen
data_Zn2H17C28N5O8
_symmetry_space_group_name_H-M   'P 1'
_cell_length_a   13.76330000
_cell_length_b   16.60270000
_cell_length_c   19.23037085
_cell_angle_alpha   115.57444109
_cell_angle_beta   103.77194826
_cell_angle_gamma   90.00000000
_symmetry_Int_Tables_number   1
_chemical_formula_structural   Zn2H17C28N5O8
_chemical_formula_sum   'Zn8 H68 C112 N20 O32'
_cell_volume   3823.23099971
_cell_formula_units_Z   4
loop_
 _symmetry_equiv_pos_site_id
 _symmetry_equiv_pos_as_xyz
  1  'x, y, z'
loop_
 _atom_site_type_symbol
 _atom_site_label
 _atom_site_symmetry_multiplicity
 _atom_site_fract_x
 _atom_site_fract_y
 _atom_site_fract_z
 _atom_site_occupancy
  Zn  Zn0  1  0.81630000  0.66899000  0.82754000  1
  Zn  Zn1  1  0.75588000  0.57107000  0.65112000  1
  Zn  Zn2  1  0.74412000  0.91995000  0.34888000  1
  Zn  Zn3  1  0.68370000  0.84145000  0.17246000  1
  Zn  Zn4  1  0.31630000  0.15855000  0.82754000  1
  Zn  Zn5  1  0.25588000  0.08005000  0.65112000  1
  Zn  Zn6  1  0.24412000  0.42893000  0.34888000  1
  Zn  Zn7  1  0.18370000  0.33101000  0.17246000  1
  H  H8  1  0.99060000  0.52550000  0.12200000  1
  H  H9  1  0.98600000  0.76300000  0.36460000  1
  H  H10  1  0.97730000  0.96460000  0.04120000  1
  H  H11  1  0.97430000  0.71910000  0.60300000  1
  H  H12  1  0.97040000  0.05020000  0.62600000  1
  H  H13  1  0.96410000  0.77870000  0.12060000  1
  H  H14  1  0.94200000  0.15960000  0.15660000  1
  H  H15  1  0.93120000  0.16600000  0.39820000  1
  H  H16  1  0.91640000  0.35110000  0.63720000  1
  H  H17  1  0.91550000  0.02260000  0.49360000  1
  H  H18  1  0.89150000  0.63830000  0.12400000  1
  H  H19  1  0.87940000  0.86210000  0.91840000  1
  H  H20  1  0.86860000  0.68200000  0.99520000  1
  H  H21  1  0.84410000  0.04760000  0.15800000  1
  H  H22  1  0.83840000  0.42580000  0.53340000  1
  H  H23  1  0.79440000  0.90100000  0.71620000  1
  H  H24  1  0.79200000  0.31950000  0.40100000  1
  H  H25  1  0.70800000  0.91850000  0.59900000  1
  H  H26  1  0.70560000  0.18480000  0.28380000  1
  H  H27  1  0.66160000  0.89240000  0.46660000  1
  H  H28  1  0.65590000  0.88960000  0.84200000  1
  H  H29  1  0.63140000  0.68680000  0.00480000  1
  H  H30  1  0.62060000  0.94370000  0.08160000  1
  H  H31  1  0.60850000  0.51430000  0.87600000  1
  H  H32  1  0.58450000  0.52900000  0.50640000  1
  H  H33  1  0.58360000  0.71390000  0.36280000  1
  H  H34  1  0.56880000  0.76780000  0.60180000  1
  H  H35  1  0.55800000  0.00300000  0.84340000  1
  H  H36  1  0.53590000  0.65810000  0.87940000  1
  H  H37  1  0.52960000  0.42420000  0.37400000  1
  H  H38  1  0.52570000  0.11610000  0.39700000  1
  H  H39  1  0.52270000  0.92340000  0.95880000  1
  H  H40  1  0.51400000  0.39840000  0.63540000  1
  H  H41  1  0.50940000  0.40350000  0.87800000  1
  H  H42  1  0.49060000  0.59650000  0.12200000  1
  H  H43  1  0.48600000  0.60160000  0.36460000  1
  H  H44  1  0.47730000  0.07660000  0.04120000  1
  H  H45  1  0.47430000  0.88390000  0.60300000  1
  H  H46  1  0.47040000  0.57580000  0.62600000  1
  H  H47  1  0.46410000  0.34190000  0.12060000  1
  H  H48  1  0.44200000  0.99700000  0.15660000  1
  H  H49  1  0.43120000  0.23220000  0.39820000  1
  H  H50  1  0.41640000  0.28610000  0.63720000  1
  H  H51  1  0.41550000  0.47100000  0.49360000  1
  H  H52  1  0.39150000  0.48570000  0.12400000  1
  H  H53  1  0.37940000  0.05630000  0.91840000  1
  H  H54  1  0.36860000  0.31320000  0.99520000  1
  H  H55  1  0.34410000  0.11040000  0.15800000  1
  H  H56  1  0.33840000  0.10760000  0.53340000  1
  H  H57  1  0.29440000  0.81520000  0.71620000  1
  H  H58  1  0.29200000  0.08150000  0.40100000  1
  H  H59  1  0.20800000  0.68050000  0.59900000  1
  H  H60  1  0.20560000  0.09900000  0.28380000  1
  H  H61  1  0.16160000  0.57420000  0.46660000  1
  H  H62  1  0.15590000  0.95240000  0.84200000  1
  H  H63  1  0.13140000  0.31800000  0.00480000  1
  H  H64  1  0.12060000  0.13790000  0.08160000  1
  H  H65  1  0.10850000  0.36170000  0.87600000  1
  H  H66  1  0.08450000  0.97740000  0.50640000  1
  H  H67  1  0.08360000  0.64890000  0.36280000  1
  H  H68  1  0.06880000  0.83400000  0.60180000  1
  H  H69  1  0.05800000  0.84040000  0.84340000  1
  H  H70  1  0.03590000  0.22130000  0.87940000  1
  H  H71  1  0.02960000  0.94980000  0.37400000  1
  H  H72  1  0.02570000  0.28090000  0.39700000  1
  H  H73  1  0.02270000  0.03540000  0.95880000  1
  H  H74  1  0.01400000  0.23700000  0.63540000  1
  H  H75  1  0.00940000  0.47450000  0.87800000  1
  C  C76  1  0.99690000  0.23007000  0.27680000  1
  C  C77  1  0.99080000  0.23256000  0.34842000  1
  C  C78  1  0.98870000  0.57294000  0.17108000  1
  C  C79  1  0.98610000  0.71456000  0.31554000  1
  C  C80  1  0.98400000  0.88154000  0.09398000  1
  C  C81  1  0.95680000  0.90643000  0.03292000  1
  C  C82  1  0.95560000  0.35352000  0.68556000  1
  C  C83  1  0.95446000  0.42555000  0.75770000  1
  C  C84  1  0.94930000  0.79705000  0.07976000  1
  C  C85  1  0.94050000  0.16069000  0.20568000  1
  C  C86  1  0.93380000  0.16432000  0.34914000  1
  C  C87  1  0.93130000  0.70332000  0.72500000  1
  C  C88  1  0.93020000  0.64039000  0.17230000  1
  C  C89  1  0.92770000  0.71196000  0.24470000  1
  C  C90  1  0.90720000  0.01734000  0.59438000  1
  C  C91  1  0.89900000  0.84447000  0.95956000  1
  C  C92  1  0.89380000  0.50069000  0.75784000  1
  C  C93  1  0.89260000  0.73976000  0.00458000  1
  C  C94  1  0.88260000  0.09374000  0.20640000  1
  C  C95  1  0.88065000  0.09388000  0.27844000  1
  C  C96  1  0.87660000  0.00072000  0.70914000  1
  C  C97  1  0.87400000  0.99998000  0.51514000  1
  C  C98  1  0.85767000  0.78147000  0.24682000  1
  C  C99  1  0.84550000  0.98538000  0.62634000  1
  C  C100  1  0.84340000  0.95132000  0.74304000  1
  C  C101  1  0.82140000  0.01734000  0.27772000  1
  C  C102  1  0.77500000  0.42482000  0.50084000  1
  C  C103  1  0.75230000  0.93923000  0.57826000  1
  C  C104  1  0.74770000  0.36097000  0.42174000  1
  C  C105  1  0.72500000  0.92398000  0.49916000  1
  C  C106  1  0.67860000  0.73962000  0.72228000  1
  C  C107  1  0.65660000  0.20828000  0.25696000  1
  C  C108  1  0.65450000  0.35904000  0.37366000  1
  C  C109  1  0.64233000  0.53465000  0.75318000  1
  C  C110  1  0.62600000  0.48484000  0.48486000  1
  C  C111  1  0.62340000  0.29158000  0.29086000  1
  C  C112  1  0.61935000  0.81544000  0.72156000  1
  C  C113  1  0.61740000  0.88734000  0.79360000  1
  C  C114  1  0.60740000  0.73518000  0.99542000  1
  C  C115  1  0.60620000  0.74285000  0.24216000  1
  C  C116  1  0.60100000  0.88491000  0.04044000  1
  C  C117  1  0.59280000  0.42296000  0.40562000  1
  C  C118  1  0.57230000  0.46726000  0.75530000  1
  C  C119  1  0.56980000  0.46809000  0.82770000  1
  C  C120  1  0.56870000  0.97832000  0.27500000  1
  C  C121  1  0.56620000  0.81518000  0.65086000  1
  C  C122  1  0.55950000  0.95501000  0.79432000  1
  C  C123  1  0.55070000  0.71729000  0.92024000  1
  C  C124  1  0.54554000  0.66785000  0.24230000  1
  C  C125  1  0.54440000  0.66796000  0.31444000  1
  C  C126  1  0.54320000  0.87351000  0.96708000  1
  C  C127  1  0.51600000  0.78756000  0.90602000  1
  C  C128  1  0.51390000  0.39902000  0.68446000  1
  C  C129  1  0.51130000  0.40186000  0.82892000  1
  C  C130  1  0.50920000  0.88414000  0.65158000  1
  C  C131  1  0.50310000  0.95327000  0.72320000  1
  C  C132  1  0.49690000  0.04673000  0.27680000  1
  C  C133  1  0.49080000  0.11586000  0.34842000  1
  C  C134  1  0.48870000  0.59814000  0.17108000  1
  C  C135  1  0.48610000  0.60098000  0.31554000  1
  C  C136  1  0.48400000  0.21244000  0.09398000  1
  C  C137  1  0.45680000  0.12649000  0.03292000  1
  C  C138  1  0.45560000  0.33204000  0.68556000  1
  C  C139  1  0.45446000  0.33215000  0.75770000  1
  C  C140  1  0.44930000  0.28271000  0.07976000  1
  C  C141  1  0.44050000  0.04499000  0.20568000  1
  C  C142  1  0.43380000  0.18482000  0.34914000  1
  C  C143  1  0.43130000  0.02168000  0.72500000  1
  C  C144  1  0.43020000  0.53191000  0.17230000  1
  C  C145  1  0.42770000  0.53274000  0.24470000  1
  C  C146  1  0.40720000  0.57704000  0.59438000  1
  C  C147  1  0.39900000  0.11509000  0.95956000  1
  C  C148  1  0.39380000  0.25715000  0.75784000  1
  C  C149  1  0.39260000  0.26482000  0.00458000  1
  C  C150  1  0.38260000  0.11266000  0.20640000  1
  C  C151  1  0.38065000  0.18456000  0.27844000  1
  C  C152  1  0.37660000  0.70842000  0.70914000  1
  C  C153  1  0.37400000  0.51516000  0.51514000  1
  C  C154  1  0.35767000  0.46535000  0.24682000  1
  C  C155  1  0.34550000  0.64096000  0.62634000  1
  C  C156  1  0.34340000  0.79172000  0.74304000  1
  C  C157  1  0.32140000  0.26038000  0.27772000  1
  C  C158  1  0.27500000  0.07602000  0.50084000  1
  C  C159  1  0.25230000  0.63903000  0.57826000  1
  C  C160  1  0.24770000  0.06077000  0.42174000  1
  C  C161  1  0.22500000  0.57518000  0.49916000  1
  C  C162  1  0.17860000  0.98266000  0.72228000  1
  C  C163  1  0.15660000  0.04868000  0.25696000  1
  C  C164  1  0.15450000  0.01462000  0.37366000  1
  C  C165  1  0.14233000  0.21853000  0.75318000  1
  C  C166  1  0.12600000  0.00002000  0.48486000  1
  C  C167  1  0.12340000  0.99928000  0.29086000  1
  C  C168  1  0.11935000  0.90612000  0.72156000  1
  C  C169  1  0.11740000  0.90626000  0.79360000  1
  C  C170  1  0.10740000  0.26024000  0.99542000  1
  C  C171  1  0.10620000  0.49931000  0.24216000  1
  C  C172  1  0.10100000  0.15553000  0.04044000  1
  C  C173  1  0.09280000  0.98266000  0.40562000  1
  C  C174  1  0.07230000  0.28804000  0.75530000  1
  C  C175  1  0.06980000  0.35961000  0.82770000  1
  C  C176  1  0.06870000  0.29668000  0.27500000  1
  C  C177  1  0.06620000  0.83568000  0.65086000  1
  C  C178  1  0.05950000  0.83931000  0.79432000  1
  C  C179  1  0.05070000  0.20295000  0.92024000  1
  C  C180  1  0.04554000  0.57445000  0.24230000  1
  C  C181  1  0.04440000  0.64648000  0.31444000  1
  C  C182  1  0.04320000  0.09357000  0.96708000  1
  C  C183  1  0.01600000  0.11846000  0.90602000  1
  C  C184  1  0.01390000  0.28544000  0.68446000  1
  C  C185  1  0.01130000  0.42706000  0.82892000  1
  C  C186  1  0.00920000  0.76744000  0.65158000  1
  C  C187  1  0.00310000  0.76993000  0.72320000  1
  N  N188  1  0.95240000  0.05809000  0.83094000  1
  N  N189  1  0.94531000  0.06790000  0.76442000  1
  N  N190  1  0.89300000  0.98733000  0.82090000  1
  N  N191  1  0.86972000  0.76134000  0.94440000  1
  N  N192  1  0.78574000  0.95257000  0.46762000  1
  N  N193  1  0.71426000  0.48495000  0.53238000  1
  N  N194  1  0.63028000  0.81694000  0.05560000  1
  N  N195  1  0.60700000  0.16643000  0.17910000  1
  N  N196  1  0.55469000  0.30348000  0.23558000  1
  N  N197  1  0.54760000  0.22715000  0.16906000  1
  N  N198  1  0.45240000  0.77285000  0.83094000  1
  N  N199  1  0.44531000  0.69652000  0.76442000  1
  N  N200  1  0.39300000  0.83357000  0.82090000  1
  N  N201  1  0.36972000  0.18306000  0.94440000  1
  N  N202  1  0.28574000  0.51505000  0.46762000  1
  N  N203  1  0.21426000  0.04743000  0.53238000  1
  N  N204  1  0.13028000  0.23866000  0.05560000  1
  N  N205  1  0.10700000  0.01267000  0.17910000  1
  N  N206  1  0.05469000  0.93210000  0.23558000  1
  N  N207  1  0.04760000  0.94191000  0.16906000  1
  O  O208  1  0.92587000  0.71367000  0.79224000  1
  O  O209  1  0.89650000  0.56481000  0.82432000  1
  O  O210  1  0.87967000  0.64378000  0.65958000  1
  O  O211  1  0.85601000  0.84107000  0.31462000  1
  O  O212  1  0.84522000  0.49375000  0.69146000  1
  O  O213  1  0.82397000  0.01928000  0.34424000  1
  O  O214  1  0.80392000  0.77338000  0.18124000  1
  O  O215  1  0.77419000  0.95777000  0.21120000  1
  O  O216  1  0.72581000  0.74657000  0.78880000  1
  O  O217  1  0.69608000  0.59214000  0.81876000  1
  O  O218  1  0.67603000  0.67504000  0.65576000  1
  O  O219  1  0.65478000  0.80229000  0.30854000  1
  O  O220  1  0.64399000  0.52645000  0.68538000  1
  O  O221  1  0.62033000  0.98420000  0.34042000  1
  O  O222  1  0.60350000  0.74049000  0.17568000  1
  O  O223  1  0.57413000  0.92143000  0.20776000  1
  O  O224  1  0.42587000  0.07857000  0.79224000  1
  O  O225  1  0.39650000  0.25951000  0.82432000  1
  O  O226  1  0.37967000  0.01580000  0.65958000  1
  O  O227  1  0.35601000  0.47355000  0.31462000  1
  O  O228  1  0.34522000  0.19771000  0.69146000  1
  O  O229  1  0.32397000  0.32496000  0.34424000  1
  O  O230  1  0.30392000  0.40786000  0.18124000  1
  O  O231  1  0.27419000  0.25343000  0.21120000  1
  O  O232  1  0.22581000  0.04223000  0.78880000  1
  O  O233  1  0.19608000  0.22662000  0.81876000  1
  O  O234  1  0.17603000  0.98072000  0.65576000  1
  O  O235  1  0.15478000  0.50625000  0.30854000  1
  O  O236  1  0.14399000  0.15893000  0.68538000  1
  O  O237  1  0.12033000  0.35622000  0.34042000  1
  O  O238  1  0.10350000  0.43519000  0.17568000  1
  O  O239  1  0.07413000  0.28633000  0.20776000  1
