# generated using pymatgen
data_EuH8C10NO7
_symmetry_space_group_name_H-M   'P 1'
_cell_length_a   7.97000000
_cell_length_b   9.41900000
_cell_length_c   10.39100000
_cell_angle_alpha   95.79000000
_cell_angle_beta   112.08400000
_cell_angle_gamma   110.00200000
_symmetry_Int_Tables_number   1
_chemical_formula_structural   EuH8C10NO7
_chemical_formula_sum   'Eu2 H16 C20 N2 O14'
_cell_volume   655.20436036
_cell_formula_units_Z   2
loop_
 _symmetry_equiv_pos_site_id
 _symmetry_equiv_pos_as_xyz
  1  'x, y, z'
loop_
 _atom_site_type_symbol
 _atom_site_label
 _atom_site_symmetry_multiplicity
 _atom_site_fract_x
 _atom_site_fract_y
 _atom_site_fract_z
 _atom_site_occupancy
  Eu  Eu0  1  0.28165000  0.05090000  0.01101000  1
  Eu  Eu1  1  0.71835000  0.94910000  0.98899000  1
  H  H2  1  0.07310000  0.48760000  0.90100000  1
  H  H3  1  0.11710000  0.78870000  0.22610000  1
  H  H4  1  0.18420000  0.22520000  0.35650000  1
  H  H5  1  0.24380000  0.77260000  0.46280000  1
  H  H6  1  0.26650000  0.53780000  0.14920000  1
  H  H7  1  0.26710000  0.53600000  0.87310000  1
  H  H8  1  0.28570000  0.20820000  0.59460000  1
  H  H9  1  0.46730000  0.60550000  0.13060000  1
  H  H10  1  0.53270000  0.39450000  0.86940000  1
  H  H11  1  0.71430000  0.79180000  0.40540000  1
  H  H12  1  0.73290000  0.46400000  0.12690000  1
  H  H13  1  0.73350000  0.46220000  0.85080000  1
  H  H14  1  0.75620000  0.22740000  0.53720000  1
  H  H15  1  0.81580000  0.77480000  0.64350000  1
  H  H16  1  0.88290000  0.21130000  0.77390000  1
  H  H17  1  0.92690000  0.51240000  0.09900000  1
  C  C18  1  0.15570000  0.87490000  0.30290000  1
  C  C19  1  0.19170000  0.13180000  0.37940000  1
  C  C20  1  0.21590000  0.55850000  0.94240000  1
  C  C21  1  0.22700000  0.86420000  0.44210000  1
  C  C22  1  0.23900000  0.72500000  0.96420000  1
  C  C23  1  0.25540000  0.12270000  0.52050000  1
  C  C24  1  0.27510000  0.98920000  0.55380000  1
  C  C25  1  0.32410000  0.36350000  0.06040000  1
  C  C26  1  0.32770000  0.52670000  0.08380000  1
  C  C27  1  0.34700000  0.97830000  0.70760000  1
  C  C28  1  0.65300000  0.02170000  0.29240000  1
  C  C29  1  0.67230000  0.47330000  0.91620000  1
  C  C30  1  0.67590000  0.63650000  0.93960000  1
  C  C31  1  0.72490000  0.01080000  0.44620000  1
  C  C32  1  0.74460000  0.87730000  0.47950000  1
  C  C33  1  0.76100000  0.27500000  0.03580000  1
  C  C34  1  0.77300000  0.13580000  0.55790000  1
  C  C35  1  0.78410000  0.44150000  0.05760000  1
  C  C36  1  0.80830000  0.86820000  0.62060000  1
  C  C37  1  0.84430000  0.12510000  0.69710000  1
  N  N38  1  0.14050000  0.00700000  0.27500000  1
  N  N39  1  0.85950000  0.99300000  0.72500000  1
  O  O40  1  0.07270000  0.01720000  0.13760000  1
  O  O41  1  0.10460000  0.76210000  0.97240000  1
  O  O42  1  0.24310000  0.99290000  0.76930000  1
  O  O43  1  0.25640000  0.28110000  0.93420000  1
  O  O44  1  0.39160000  0.31340000  0.16900000  1
  O  O45  1  0.39880000  0.83250000  0.97680000  1
  O  O46  1  0.49720000  0.04330000  0.24200000  1
  O  O47  1  0.50280000  0.95670000  0.75800000  1
  O  O48  1  0.60120000  0.16750000  0.02320000  1
  O  O49  1  0.60840000  0.68660000  0.83100000  1
  O  O50  1  0.74360000  0.71890000  0.06580000  1
  O  O51  1  0.75690000  0.00710000  0.23070000  1
  O  O52  1  0.89540000  0.23790000  0.02760000  1
  O  O53  1  0.92730000  0.98280000  0.86240000  1
