# generated using pymatgen
data_Cu3H32C48(N3O4)2
_symmetry_space_group_name_H-M   'P 1'
_cell_length_a   13.33300000
_cell_length_b   18.46810000
_cell_length_c   22.71040000
_cell_angle_alpha   90.00000000
_cell_angle_beta   90.00000000
_cell_angle_gamma   109.12700000
_symmetry_Int_Tables_number   1
_chemical_formula_structural   Cu3H32C48(N3O4)2
_chemical_formula_sum   'Cu12 H128 C192 N24 O32'
_cell_volume   5283.38534076
_cell_formula_units_Z   4
loop_
 _symmetry_equiv_pos_site_id
 _symmetry_equiv_pos_as_xyz
  1  'x, y, z'
loop_
 _atom_site_type_symbol
 _atom_site_label
 _atom_site_symmetry_multiplicity
 _atom_site_fract_x
 _atom_site_fract_y
 _atom_site_fract_z
 _atom_site_occupancy
  Cu  Cu0  1  0.93722000  0.98507000  0.76273000  1
  Cu  Cu1  1  0.93722000  0.48507000  0.73727000  1
  Cu  Cu2  1  0.74934000  0.99272000  0.86917000  1
  Cu  Cu3  1  0.74934000  0.49272000  0.63083000  1
  Cu  Cu4  1  0.55772000  0.99329000  0.76260000  1
  Cu  Cu5  1  0.55772000  0.49329000  0.73740000  1
  Cu  Cu6  1  0.44228000  0.50671000  0.26260000  1
  Cu  Cu7  1  0.44228000  0.00671000  0.23740000  1
  Cu  Cu8  1  0.25066000  0.50728000  0.36917000  1
  Cu  Cu9  1  0.25066000  0.00728000  0.13083000  1
  Cu  Cu10  1  0.06278000  0.51493000  0.26273000  1
  Cu  Cu11  1  0.06278000  0.01493000  0.23727000  1
  H  H12  1  0.99610000  0.61710000  0.35520000  1
  H  H13  1  0.99610000  0.11710000  0.14480000  1
  H  H14  1  0.97120000  0.20950000  0.43230000  1
  H  H15  1  0.97120000  0.70950000  0.06770000  1
  H  H16  1  0.96420000  0.95300000  0.94950000  1
  H  H17  1  0.96420000  0.45300000  0.55050000  1
  H  H18  1  0.95990000  0.38860000  0.45450000  1
  H  H19  1  0.95990000  0.88860000  0.04550000  1
  H  H20  1  0.95170000  0.39170000  0.97560000  1
  H  H21  1  0.95170000  0.89170000  0.52440000  1
  H  H22  1  0.92550000  0.71630000  0.35000000  1
  H  H23  1  0.92550000  0.21630000  0.15000000  1
  H  H24  1  0.91720000  0.26000000  0.35280000  1
  H  H25  1  0.91720000  0.76000000  0.14720000  1
  H  H26  1  0.89790000  0.76310000  0.26000000  1
  H  H27  1  0.89790000  0.26310000  0.24000000  1
  H  H28  1  0.88170000  0.48750000  0.95740000  1
  H  H29  1  0.88170000  0.98750000  0.54260000  1
  H  H30  1  0.86610000  0.52600000  0.86160000  1
  H  H31  1  0.86610000  0.02600000  0.63840000  1
  H  H32  1  0.83490000  0.67520000  0.80240000  1
  H  H33  1  0.83490000  0.17520000  0.69760000  1
  H  H34  1  0.80900000  0.24430000  0.97410000  1
  H  H35  1  0.80900000  0.74430000  0.52590000  1
  H  H36  1  0.79480000  0.16820000  0.89190000  1
  H  H37  1  0.79480000  0.66820000  0.60810000  1
  H  H38  1  0.79300000  0.69240000  0.43330000  1
  H  H39  1  0.79300000  0.19240000  0.06670000  1
  H  H40  1  0.77140000  0.78600000  0.80480000  1
  H  H41  1  0.77140000  0.28600000  0.69520000  1
  H  H42  1  0.76420000  0.56990000  0.36960000  1
  H  H43  1  0.76420000  0.06990000  0.13040000  1
  H  H44  1  0.73470000  0.44220000  0.36550000  1
  H  H45  1  0.73470000  0.94220000  0.13450000  1
  H  H46  1  0.72270000  0.19010000  0.79690000  1
  H  H47  1  0.72270000  0.69010000  0.70310000  1
  H  H48  1  0.70780000  0.31430000  0.42070000  1
  H  H49  1  0.70780000  0.81430000  0.07930000  1
  H  H50  1  0.70730000  0.82010000  0.90310000  1
  H  H51  1  0.70730000  0.32010000  0.59690000  1
  H  H52  1  0.69300000  0.75280000  0.99020000  1
  H  H53  1  0.69300000  0.25280000  0.50980000  1
  H  H54  1  0.66260000  0.30140000  0.79580000  1
  H  H55  1  0.66260000  0.80140000  0.70420000  1
  H  H56  1  0.64640000  0.48190000  0.95350000  1
  H  H57  1  0.64640000  0.98190000  0.54650000  1
  H  H58  1  0.64100000  0.44480000  0.85530000  1
  H  H59  1  0.64100000  0.94480000  0.64470000  1
  H  H60  1  0.60120000  0.75670000  0.26270000  1
  H  H61  1  0.60120000  0.25670000  0.23730000  1
  H  H62  1  0.58700000  0.29950000  0.33050000  1
  H  H63  1  0.58700000  0.79950000  0.16950000  1
  H  H64  1  0.58320000  0.57970000  0.98010000  1
  H  H65  1  0.58320000  0.07970000  0.51990000  1
  H  H66  1  0.56580000  0.76490000  0.37430000  1
  H  H67  1  0.56580000  0.26490000  0.12570000  1
  H  H68  1  0.53800000  0.61510000  0.46190000  1
  H  H69  1  0.53800000  0.11510000  0.03810000  1
  H  H70  1  0.53350000  0.04220000  0.94680000  1
  H  H71  1  0.53350000  0.54220000  0.55320000  1
  H  H72  1  0.52030000  0.39980000  0.34540000  1
  H  H73  1  0.52030000  0.89980000  0.15460000  1
  H  H74  1  0.50210000  0.82060000  0.44780000  1
  H  H75  1  0.50210000  0.32060000  0.05220000  1
  H  H76  1  0.49790000  0.67940000  0.94780000  1
  H  H77  1  0.49790000  0.17940000  0.55220000  1
  H  H78  1  0.47970000  0.10020000  0.84540000  1
  H  H79  1  0.47970000  0.60020000  0.65460000  1
  H  H80  1  0.46650000  0.45780000  0.44680000  1
  H  H81  1  0.46650000  0.95780000  0.05320000  1
  H  H82  1  0.46200000  0.88490000  0.96190000  1
  H  H83  1  0.46200000  0.38490000  0.53810000  1
  H  H84  1  0.43420000  0.73510000  0.87430000  1
  H  H85  1  0.43420000  0.23510000  0.62570000  1
  H  H86  1  0.41680000  0.92030000  0.48010000  1
  H  H87  1  0.41680000  0.42030000  0.01990000  1
  H  H88  1  0.41300000  0.20050000  0.83050000  1
  H  H89  1  0.41300000  0.70050000  0.66950000  1
  H  H90  1  0.39880000  0.74330000  0.76270000  1
  H  H91  1  0.39880000  0.24330000  0.73730000  1
  H  H92  1  0.35900000  0.05520000  0.35530000  1
  H  H93  1  0.35900000  0.55520000  0.14470000  1
  H  H94  1  0.35360000  0.01810000  0.45350000  1
  H  H95  1  0.35360000  0.51810000  0.04650000  1
  H  H96  1  0.33740000  0.19860000  0.29580000  1
  H  H97  1  0.33740000  0.69860000  0.20420000  1
  H  H98  1  0.30700000  0.74720000  0.49020000  1
  H  H99  1  0.30700000  0.24720000  0.00980000  1
  H  H100  1  0.29270000  0.67990000  0.40310000  1
  H  H101  1  0.29270000  0.17990000  0.09690000  1
  H  H102  1  0.29220000  0.18570000  0.92070000  1
  H  H103  1  0.29220000  0.68570000  0.57930000  1
  H  H104  1  0.27730000  0.30990000  0.29690000  1
  H  H105  1  0.27730000  0.80990000  0.20310000  1
  H  H106  1  0.26530000  0.05780000  0.86550000  1
  H  H107  1  0.26530000  0.55780000  0.63450000  1
  H  H108  1  0.23580000  0.93010000  0.86960000  1
  H  H109  1  0.23580000  0.43010000  0.63040000  1
  H  H110  1  0.22860000  0.71400000  0.30480000  1
  H  H111  1  0.22860000  0.21400000  0.19520000  1
  H  H112  1  0.20700000  0.80760000  0.93330000  1
  H  H113  1  0.20700000  0.30760000  0.56670000  1
  H  H114  1  0.20520000  0.33180000  0.39190000  1
  H  H115  1  0.20520000  0.83180000  0.10810000  1
  H  H116  1  0.19100000  0.25570000  0.47410000  1
  H  H117  1  0.19100000  0.75570000  0.02590000  1
  H  H118  1  0.16510000  0.82480000  0.30240000  1
  H  H119  1  0.16510000  0.32480000  0.19760000  1
  H  H120  1  0.13390000  0.97400000  0.36160000  1
  H  H121  1  0.13390000  0.47400000  0.13840000  1
  H  H122  1  0.11830000  0.01250000  0.45740000  1
  H  H123  1  0.11830000  0.51250000  0.04260000  1
  H  H124  1  0.10210000  0.73690000  0.76000000  1
  H  H125  1  0.10210000  0.23690000  0.74000000  1
  H  H126  1  0.08280000  0.24000000  0.85280000  1
  H  H127  1  0.08280000  0.74000000  0.64720000  1
  H  H128  1  0.07450000  0.78370000  0.85000000  1
  H  H129  1  0.07450000  0.28370000  0.65000000  1
  H  H130  1  0.04830000  0.10830000  0.47560000  1
  H  H131  1  0.04830000  0.60830000  0.02440000  1
  H  H132  1  0.04010000  0.11140000  0.95450000  1
  H  H133  1  0.04010000  0.61140000  0.54550000  1
  H  H134  1  0.03580000  0.54700000  0.44950000  1
  H  H135  1  0.03580000  0.04700000  0.05050000  1
  H  H136  1  0.02880000  0.29050000  0.93230000  1
  H  H137  1  0.02880000  0.79050000  0.56770000  1
  H  H138  1  0.00390000  0.88290000  0.85520000  1
  H  H139  1  0.00390000  0.38290000  0.64480000  1
  C  C140  1  0.99880000  0.36450000  0.78269000  1
  C  C141  1  0.99880000  0.86450000  0.71731000  1
  C  C142  1  0.99330000  0.00040000  0.96861000  1
  C  C143  1  0.99330000  0.50040000  0.53139000  1
  C  C144  1  0.98630000  0.63630000  0.31808000  1
  C  C145  1  0.98630000  0.13630000  0.18192000  1
  C  C146  1  0.98310000  0.43820000  0.37068000  1
  C  C147  1  0.98310000  0.93820000  0.12932000  1
  C  C148  1  0.98070000  0.43650000  0.43553000  1
  C  C149  1  0.98070000  0.93650000  0.06447000  1
  C  C150  1  0.97810000  0.37060000  0.88962000  1
  C  C151  1  0.97810000  0.87060000  0.61038000  1
  C  C152  1  0.97810000  0.19030000  0.39480000  1
  C  C153  1  0.97810000  0.69030000  0.10520000  1
  C  C154  1  0.96510000  0.39670000  0.83301000  1
  C  C155  1  0.96510000  0.89670000  0.66699000  1
  C  C156  1  0.95730000  0.19430000  0.28910000  1
  C  C157  1  0.95730000  0.69430000  0.21090000  1
  C  C158  1  0.94680000  0.22060000  0.34750000  1
  C  C159  1  0.94680000  0.72060000  0.15250000  1
  C  C160  1  0.94510000  0.40680000  0.93662000  1
  C  C161  1  0.94510000  0.90680000  0.56338000  1
  C  C162  1  0.94350000  0.69580000  0.31520000  1
  C  C163  1  0.94350000  0.19580000  0.18480000  1
  C  C164  1  0.92810000  0.72380000  0.26230000  1
  C  C165  1  0.92810000  0.22380000  0.23770000  1
  C  C166  1  0.90390000  0.46350000  0.92588000  1
  C  C167  1  0.90390000  0.96350000  0.57412000  1
  C  C168  1  0.89440000  0.48630000  0.86827000  1
  C  C169  1  0.89440000  0.98630000  0.63173000  1
  C  C170  1  0.81640000  0.09413000  0.76461000  1
  C  C171  1  0.81640000  0.59413000  0.73539000  1
  C  C172  1  0.80480000  0.66178000  0.76484000  1
  C  C173  1  0.80480000  0.16178000  0.73516000  1
  C  C174  1  0.79670000  0.19150000  0.97875000  1
  C  C175  1  0.79670000  0.69150000  0.52125000  1
  C  C176  1  0.78800000  0.14550000  0.92938000  1
  C  C177  1  0.78800000  0.64550000  0.57062000  1
  C  C178  1  0.78760000  0.66100000  0.46653000  1
  C  C179  1  0.78760000  0.16100000  0.03347000  1
  C  C180  1  0.77000000  0.58200000  0.45982000  1
  C  C181  1  0.77000000  0.08200000  0.04018000  1
  C  C182  1  0.76050000  0.03926000  0.98805000  1
  C  C183  1  0.76050000  0.53926000  0.51195000  1
  C  C184  1  0.75870000  0.54220000  0.40484000  1
  C  C185  1  0.75870000  0.04220000  0.09516000  1
  C  C186  1  0.75340000  0.20462000  0.75960000  1
  C  C187  1  0.75340000  0.70462000  0.74040000  1
  C  C188  1  0.74170000  0.77177000  0.76729000  1
  C  C189  1  0.74170000  0.27177000  0.73271000  1
  C  C190  1  0.74060000  0.46630000  0.40242000  1
  C  C191  1  0.74060000  0.96630000  0.09758000  1
  C  C192  1  0.73960000  0.95816000  0.99089000  1
  C  C193  1  0.73960000  0.45816000  0.50911000  1
  C  C194  1  0.73000000  0.42120000  0.45496000  1
  C  C195  1  0.73000000  0.92120000  0.04504000  1
  C  C196  1  0.71330000  0.84644000  0.93903000  1
  C  C197  1  0.71330000  0.34644000  0.56097000  1
  C  C198  1  0.71310000  0.34190000  0.45604000  1
  C  C199  1  0.71310000  0.84190000  0.04396000  1
  C  C200  1  0.70470000  0.80580000  0.99129000  1
  C  C201  1  0.70470000  0.30580000  0.50871000  1
  C  C202  1  0.69120000  0.31488000  0.75799000  1
  C  C203  1  0.69120000  0.81488000  0.74201000  1
  C  C204  1  0.67780000  0.88289000  0.77060000  1
  C  C205  1  0.67780000  0.38289000  0.72940000  1
  C  C206  1  0.61890000  0.50700000  0.92474000  1
  C  C207  1  0.61890000  0.00700000  0.57526000  1
  C  C208  1  0.61630000  0.48530000  0.86559000  1
  C  C209  1  0.61630000  0.98530000  0.63441000  1
  C  C210  1  0.58130000  0.56470000  0.94048000  1
  C  C211  1  0.58130000  0.06470000  0.55952000  1
  C  C212  1  0.57250000  0.79640000  0.25690000  1
  C  C213  1  0.57250000  0.29640000  0.24310000  1
  C  C214  1  0.56500000  0.32210000  0.29810000  1
  C  C215  1  0.56500000  0.82210000  0.20190000  1
  C  C216  1  0.54240000  0.57700000  0.83923000  1
  C  C217  1  0.54240000  0.07700000  0.66077000  1
  C  C218  1  0.53990000  0.60130000  0.89755000  1
  C  C219  1  0.53990000  0.10130000  0.60245000  1
  C  C220  1  0.53860000  0.80460000  0.36540000  1
  C  C221  1  0.53860000  0.30460000  0.13460000  1
  C  C222  1  0.53780000  0.82870000  0.30530000  1
  C  C223  1  0.53780000  0.32870000  0.19470000  1
  C  C224  1  0.52440000  0.38220000  0.30689000  1
  C  C225  1  0.52440000  0.88220000  0.19311000  1
  C  C226  1  0.51850000  0.56950000  0.43980000  1
  C  C227  1  0.51850000  0.06950000  0.06020000  1
  C  C228  1  0.51680000  0.57530000  0.37493000  1
  C  C229  1  0.51680000  0.07530000  0.12507000  1
  C  C230  1  0.50620000  0.99670000  0.96867000  1
  C  C231  1  0.50620000  0.49670000  0.53133000  1
  C  C232  1  0.50310000  0.61178000  0.79302000  1
  C  C233  1  0.50310000  0.11178000  0.70698000  1
  C  C234  1  0.50110000  0.83790000  0.40900000  1
  C  C235  1  0.50110000  0.33790000  0.09100000  1
  C  C236  1  0.49890000  0.66210000  0.90900000  1
  C  C237  1  0.49890000  0.16210000  0.59100000  1
  C  C238  1  0.49690000  0.88822000  0.29302000  1
  C  C239  1  0.49690000  0.38822000  0.20698000  1
  C  C240  1  0.49380000  0.50330000  0.46867000  1
  C  C241  1  0.49380000  0.00330000  0.03133000  1
  C  C242  1  0.48320000  0.92470000  0.87493000  1
  C  C243  1  0.48320000  0.42470000  0.62507000  1
  C  C244  1  0.48150000  0.93050000  0.93980000  1
  C  C245  1  0.48150000  0.43050000  0.56020000  1
  C  C246  1  0.47560000  0.11780000  0.80689000  1
  C  C247  1  0.47560000  0.61780000  0.69311000  1
  C  C248  1  0.46220000  0.67130000  0.80530000  1
  C  C249  1  0.46220000  0.17130000  0.69470000  1
  C  C250  1  0.46140000  0.69540000  0.86540000  1
  C  C251  1  0.46140000  0.19540000  0.63460000  1
  C  C252  1  0.46010000  0.89870000  0.39755000  1
  C  C253  1  0.46010000  0.39870000  0.10245000  1
  C  C254  1  0.45760000  0.92300000  0.33923000  1
  C  C255  1  0.45760000  0.42300000  0.16077000  1
  C  C256  1  0.43500000  0.17790000  0.79810000  1
  C  C257  1  0.43500000  0.67790000  0.70190000  1
  C  C258  1  0.42750000  0.70360000  0.75690000  1
  C  C259  1  0.42750000  0.20360000  0.74310000  1
  C  C260  1  0.41870000  0.93530000  0.44048000  1
  C  C261  1  0.41870000  0.43530000  0.05952000  1
  C  C262  1  0.38370000  0.01470000  0.36559000  1
  C  C263  1  0.38370000  0.51470000  0.13441000  1
  C  C264  1  0.38110000  0.99300000  0.42474000  1
  C  C265  1  0.38110000  0.49300000  0.07526000  1
  C  C266  1  0.32220000  0.61711000  0.27060000  1
  C  C267  1  0.32220000  0.11711000  0.22940000  1
  C  C268  1  0.30880000  0.18512000  0.25799000  1
  C  C269  1  0.30880000  0.68512000  0.24201000  1
  C  C270  1  0.29530000  0.69420000  0.49129000  1
  C  C271  1  0.29530000  0.19420000  0.00871000  1
  C  C272  1  0.28690000  0.15810000  0.95604000  1
  C  C273  1  0.28690000  0.65810000  0.54396000  1
  C  C274  1  0.28670000  0.65356000  0.43903000  1
  C  C275  1  0.28670000  0.15356000  0.06097000  1
  C  C276  1  0.27000000  0.07880000  0.95496000  1
  C  C277  1  0.27000000  0.57880000  0.54504000  1
  C  C278  1  0.26040000  0.54184000  0.49089000  1
  C  C279  1  0.26040000  0.04184000  0.00911000  1
  C  C280  1  0.25940000  0.03370000  0.90242000  1
  C  C281  1  0.25940000  0.53370000  0.59758000  1
  C  C282  1  0.25830000  0.72823000  0.26729000  1
  C  C283  1  0.25830000  0.22823000  0.23271000  1
  C  C284  1  0.24660000  0.29538000  0.25960000  1
  C  C285  1  0.24660000  0.79538000  0.24040000  1
  C  C286  1  0.24130000  0.95780000  0.90484000  1
  C  C287  1  0.24130000  0.45780000  0.59516000  1
  C  C288  1  0.23950000  0.46074000  0.48805000  1
  C  C289  1  0.23950000  0.96074000  0.01195000  1
  C  C290  1  0.23000000  0.91800000  0.95982000  1
  C  C291  1  0.23000000  0.41800000  0.54018000  1
  C  C292  1  0.21240000  0.83900000  0.96653000  1
  C  C293  1  0.21240000  0.33900000  0.53347000  1
  C  C294  1  0.21200000  0.35450000  0.42938000  1
  C  C295  1  0.21200000  0.85450000  0.07062000  1
  C  C296  1  0.20330000  0.30850000  0.47875000  1
  C  C297  1  0.20330000  0.80850000  0.02125000  1
  C  C298  1  0.19520000  0.83822000  0.26484000  1
  C  C299  1  0.19520000  0.33822000  0.23516000  1
  C  C300  1  0.18360000  0.40587000  0.26461000  1
  C  C301  1  0.18360000  0.90587000  0.23539000  1
  C  C302  1  0.10560000  0.01370000  0.36827000  1
  C  C303  1  0.10560000  0.51370000  0.13173000  1
  C  C304  1  0.09610000  0.03650000  0.42588000  1
  C  C305  1  0.09610000  0.53650000  0.07412000  1
  C  C306  1  0.07190000  0.77620000  0.76230000  1
  C  C307  1  0.07190000  0.27620000  0.73770000  1
  C  C308  1  0.05650000  0.80420000  0.81520000  1
  C  C309  1  0.05650000  0.30420000  0.68480000  1
  C  C310  1  0.05490000  0.09320000  0.43662000  1
  C  C311  1  0.05490000  0.59320000  0.06338000  1
  C  C312  1  0.05320000  0.27940000  0.84750000  1
  C  C313  1  0.05320000  0.77940000  0.65250000  1
  C  C314  1  0.04270000  0.30570000  0.78910000  1
  C  C315  1  0.04270000  0.80570000  0.71090000  1
  C  C316  1  0.03490000  0.10330000  0.33301000  1
  C  C317  1  0.03490000  0.60330000  0.16699000  1
  C  C318  1  0.02190000  0.30970000  0.89480000  1
  C  C319  1  0.02190000  0.80970000  0.60520000  1
  C  C320  1  0.02190000  0.12940000  0.38962000  1
  C  C321  1  0.02190000  0.62940000  0.11038000  1
  C  C322  1  0.01930000  0.06350000  0.93553000  1
  C  C323  1  0.01930000  0.56350000  0.56447000  1
  C  C324  1  0.01690000  0.06180000  0.87068000  1
  C  C325  1  0.01690000  0.56180000  0.62932000  1
  C  C326  1  0.01370000  0.86370000  0.81808000  1
  C  C327  1  0.01370000  0.36370000  0.68192000  1
  C  C328  1  0.00670000  0.49960000  0.46861000  1
  C  C329  1  0.00670000  0.99960000  0.03139000  1
  C  C330  1  0.00120000  0.13550000  0.28269000  1
  C  C331  1  0.00120000  0.63550000  0.21731000  1
  N  N332  1  0.98650000  0.89413000  0.77084000  1
  N  N333  1  0.98650000  0.39413000  0.72916000  1
  N  N334  1  0.92410000  0.45349000  0.82281000  1
  N  N335  1  0.92410000  0.95349000  0.67719000  1
  N  N336  1  0.77040000  0.07082000  0.93322000  1
  N  N337  1  0.77040000  0.57082000  0.56678000  1
  N  N338  1  0.72980000  0.92141000  0.93820000  1
  N  N339  1  0.72980000  0.42141000  0.56180000  1
  N  N340  1  0.58030000  0.51984000  0.82371000  1
  N  N341  1  0.58030000  0.01984000  0.67629000  1
  N  N342  1  0.50820000  0.08510000  0.76259000  1
  N  N343  1  0.50820000  0.58510000  0.73741000  1
  N  N344  1  0.49180000  0.41490000  0.26259000  1
  N  N345  1  0.49180000  0.91490000  0.23741000  1
  N  N346  1  0.41970000  0.98016000  0.32371000  1
  N  N347  1  0.41970000  0.48016000  0.17629000  1
  N  N348  1  0.27020000  0.57859000  0.43820000  1
  N  N349  1  0.27020000  0.07859000  0.06180000  1
  N  N350  1  0.22960000  0.42918000  0.43322000  1
  N  N351  1  0.22960000  0.92918000  0.06678000  1
  N  N352  1  0.07590000  0.04651000  0.32281000  1
  N  N353  1  0.07590000  0.54651000  0.17719000  1
  N  N354  1  0.01350000  0.60587000  0.27084000  1
  N  N355  1  0.01350000  0.10587000  0.22916000  1
  O  O356  1  0.94491000  0.00535000  0.84700000  1
  O  O357  1  0.94491000  0.50535000  0.65300000  1
  O  O358  1  0.91510000  0.38727000  0.34349000  1
  O  O359  1  0.91510000  0.88727000  0.15651000  1
  O  O360  1  0.88300000  0.56692000  0.75745000  1
  O  O361  1  0.88300000  0.06692000  0.74255000  1
  O  O362  1  0.76025000  0.06988000  0.80957000  1
  O  O363  1  0.76025000  0.56988000  0.69043000  1
  O  O364  1  0.73543000  0.90965000  0.81467000  1
  O  O365  1  0.73543000  0.40965000  0.68533000  1
  O  O366  1  0.61100000  0.40890000  0.75190000  1
  O  O367  1  0.61100000  0.90890000  0.74810000  1
  O  O368  1  0.58060000  0.63178000  0.35064000  1
  O  O369  1  0.58060000  0.13178000  0.14936000  1
  O  O370  1  0.54990000  0.98154000  0.84780000  1
  O  O371  1  0.54990000  0.48154000  0.65220000  1
  O  O372  1  0.45010000  0.51846000  0.34780000  1
  O  O373  1  0.45010000  0.01846000  0.15220000  1
  O  O374  1  0.41940000  0.86822000  0.85064000  1
  O  O375  1  0.41940000  0.36822000  0.64936000  1
  O  O376  1  0.38900000  0.09110000  0.25190000  1
  O  O377  1  0.38900000  0.59110000  0.24810000  1
  O  O378  1  0.26457000  0.59035000  0.31467000  1
  O  O379  1  0.26457000  0.09035000  0.18533000  1
  O  O380  1  0.23975000  0.43012000  0.30957000  1
  O  O381  1  0.23975000  0.93012000  0.19043000  1
  O  O382  1  0.11700000  0.93308000  0.25745000  1
  O  O383  1  0.11700000  0.43308000  0.24255000  1
  O  O384  1  0.08490000  0.11273000  0.84349000  1
  O  O385  1  0.08490000  0.61273000  0.65651000  1
  O  O386  1  0.05509000  0.49465000  0.34700000  1
  O  O387  1  0.05509000  0.99465000  0.15300000  1
