# generated using pymatgen
data_Fe5H15C31O22
_symmetry_space_group_name_H-M   'P 1'
_cell_length_a   12.80800000
_cell_length_b   14.15500000
_cell_length_c   18.04795056
_cell_angle_alpha   101.45996746
_cell_angle_beta   110.78342296
_cell_angle_gamma   90.00000000
_symmetry_Int_Tables_number   1
_chemical_formula_structural   Fe5H15C31O22
_chemical_formula_sum   'Fe10 H30 C62 O44'
_cell_volume   2989.25147541
_cell_formula_units_Z   2
loop_
 _symmetry_equiv_pos_site_id
 _symmetry_equiv_pos_as_xyz
  1  'x, y, z'
loop_
 _atom_site_type_symbol
 _atom_site_label
 _atom_site_symmetry_multiplicity
 _atom_site_fract_x
 _atom_site_fract_y
 _atom_site_fract_z
 _atom_site_occupancy
  Fe  Fe0  1  0.00000000  0.00000000  0.00000000  1
  Fe  Fe1  1  1.00000000  0.50000000  1.00000000  1
  Fe  Fe2  1  0.53433000  0.49273000  0.43080000  1
  Fe  Fe3  1  0.25409000  0.14481000  0.03816000  1
  Fe  Fe4  1  0.21593000  0.35519000  0.96184000  1
  Fe  Fe5  1  0.89647000  0.99273000  0.43080000  1
  Fe  Fe6  1  0.10353000  0.00727000  0.56920000  1
  Fe  Fe7  1  0.78407000  0.64481000  0.03816000  1
  Fe  Fe8  1  0.74591000  0.85519000  0.96184000  1
  Fe  Fe9  1  0.46567000  0.50727000  0.56920000  1
  H  H10  1  0.89940000  0.12960000  0.86460000  1
  H  H11  1  0.85130000  0.65820000  0.80740000  1
  H  H12  1  0.32650000  0.23430000  0.27900000  1
  H  H13  1  0.93400000  0.23840000  0.87240000  1
  H  H14  1  0.93840000  0.73840000  0.87240000  1
  H  H15  1  0.81620000  0.45410000  0.73160000  1
  H  H16  1  0.96520000  0.62960000  0.86460000  1
  H  H17  1  0.95610000  0.15820000  0.80740000  1
  H  H18  1  0.16440000  0.75000000  1.00000000  1
  H  H19  1  0.91540000  0.95410000  0.73160000  1
  H  H20  1  0.73360000  0.77710000  0.51960000  1
  H  H21  1  0.78600000  0.27710000  0.51960000  1
  H  H22  1  0.04750000  0.26570000  0.72100000  1
  H  H23  1  0.44160000  0.61100000  0.01020000  1
  H  H24  1  0.43140000  0.88900000  0.98980000  1
  H  H25  1  0.56860000  0.11100000  0.01020000  1
  H  H26  1  0.55840000  0.38900000  0.98980000  1
  H  H27  1  0.95250000  0.73430000  0.27900000  1
  H  H28  1  0.21400000  0.72290000  0.48040000  1
  H  H29  1  0.26640000  0.22290000  0.48040000  1
  H  H30  1  0.08460000  0.04590000  0.26840000  1
  H  H31  1  0.83560000  0.25000000  1.00000000  1
  H  H32  1  0.04390000  0.84180000  0.19260000  1
  H  H33  1  0.03480000  0.37040000  0.13540000  1
  H  H34  1  0.18380000  0.54590000  0.26840000  1
  H  H35  1  0.06160000  0.26160000  0.12760000  1
  H  H36  1  0.06600000  0.76160000  0.12760000  1
  H  H37  1  0.67350000  0.76570000  0.72100000  1
  H  H38  1  0.14870000  0.34180000  0.19260000  1
  H  H39  1  0.10060000  0.87040000  0.13540000  1
  C  C40  1  0.17808000  0.09800000  0.16936000  1
  C  C41  1  0.71480000  0.79160000  0.69560000  1
  C  C42  1  0.61384000  0.66640000  0.57028000  1
  C  C43  1  0.90711000  0.67320000  0.86102000  1
  C  C44  1  0.79737000  0.86710000  0.74014000  1
  C  C45  1  0.14517000  0.33710000  0.07914000  1
  C  C46  1  0.69415000  0.75530000  0.61490000  1
  C  C47  1  0.95391000  0.17320000  0.86102000  1
  C  C48  1  0.68099000  0.42000000  0.57538000  1
  C  C49  1  0.84397000  0.40630000  0.70174000  1
  C  C50  1  0.06603000  0.16290000  0.92086000  1
  C  C51  1  0.85777000  0.90630000  0.70174000  1
  C  C52  1  0.78598000  0.37440000  0.61856000  1
  C  C53  1  0.75064000  0.79870000  0.57508000  1
  C  C54  1  0.00872000  0.40200000  0.83064000  1
  C  C55  1  0.94277000  0.36710000  0.74014000  1
  C  C56  1  0.83258000  0.87440000  0.61856000  1
  C  C57  1  0.23432000  0.57390000  0.00464000  1
  C  C58  1  0.22968000  0.92610000  0.99536000  1
  C  C59  1  0.23700000  0.75000000  1.00000000  1
  C  C60  1  0.82444000  0.29870000  0.57508000  1
  C  C61  1  0.98080000  0.29160000  0.69560000  1
  C  C62  1  0.29259000  0.66520000  0.00418000  1
  C  C63  1  0.28841000  0.83480000  0.99582000  1
  C  C64  1  0.92075000  0.25530000  0.61490000  1
  C  C65  1  0.89439000  0.92000000  0.57538000  1
  C  C66  1  0.95644000  0.16640000  0.57028000  1
  C  C67  1  0.40266000  0.66640000  0.00552000  1
  C  C68  1  0.39714000  0.83360000  0.99448000  1
  C  C69  1  0.42900000  0.25000000  1.00000000  1
  C  C70  1  0.45430000  0.75000000  0.00000000  1
  C  C71  1  0.54570000  0.25000000  1.00000000  1
  C  C72  1  0.57100000  0.75000000  0.00000000  1
  C  C73  1  0.60286000  0.16640000  0.00552000  1
  C  C74  1  0.59734000  0.33360000  0.99448000  1
  C  C75  1  0.04356000  0.83360000  0.42972000  1
  C  C76  1  0.10561000  0.08000000  0.42462000  1
  C  C77  1  0.07925000  0.74470000  0.38510000  1
  C  C78  1  0.71159000  0.16520000  0.00418000  1
  C  C79  1  0.70741000  0.33480000  0.99582000  1
  C  C80  1  0.01920000  0.70840000  0.30440000  1
  C  C81  1  0.17556000  0.70130000  0.42492000  1
  C  C82  1  0.76300000  0.25000000  1.00000000  1
  C  C83  1  0.77032000  0.07390000  0.00464000  1
  C  C84  1  0.76568000  0.42610000  0.99536000  1
  C  C85  1  0.16742000  0.12560000  0.38144000  1
  C  C86  1  0.05723000  0.63290000  0.25986000  1
  C  C87  1  0.99128000  0.59800000  0.16936000  1
  C  C88  1  0.24936000  0.20130000  0.42492000  1
  C  C89  1  0.21402000  0.62560000  0.38144000  1
  C  C90  1  0.14223000  0.09370000  0.29826000  1
  C  C91  1  0.93397000  0.83710000  0.07914000  1
  C  C92  1  0.15603000  0.59370000  0.29826000  1
  C  C93  1  0.31901000  0.58000000  0.42462000  1
  C  C94  1  0.04609000  0.82680000  0.13898000  1
  C  C95  1  0.30585000  0.24470000  0.38510000  1
  C  C96  1  0.85483000  0.66290000  0.92086000  1
  C  C97  1  0.20263000  0.13290000  0.25986000  1
  C  C98  1  0.09289000  0.32680000  0.13898000  1
  C  C99  1  0.38616000  0.33360000  0.42972000  1
  C  C100  1  0.28520000  0.20840000  0.30440000  1
  C  C101  1  0.82192000  0.90200000  0.83064000  1
  O  O102  1  0.61931000  0.44730000  0.61422000  1
  O  O103  1  0.91394000  0.94650000  0.87168000  1
  O  O104  1  0.44255000  0.36180000  0.39290000  1
  O  O105  1  0.09505000  0.37590000  0.02010000  1
  O  O106  1  0.95774000  0.44650000  0.87168000  1
  O  O107  1  0.07495000  0.12410000  0.97990000  1
  O  O108  1  0.25260000  0.12050000  0.14460000  1
  O  O109  1  0.61213000  0.62650000  0.50106000  1
  O  O110  1  0.13721000  0.58030000  0.00622000  1
  O  O111  1  0.13099000  0.91970000  0.99378000  1
  O  O112  1  0.23796000  0.30320000  0.08372000  1
  O  O113  1  0.66445000  0.42670000  0.50430000  1
  O  O114  1  0.15424000  0.19680000  0.91628000  1
  O  O115  1  0.10800000  0.37950000  0.85540000  1
  O  O116  1  0.28541000  0.49800000  0.00202000  1
  O  O117  1  0.28339000  0.00200000  0.99798000  1
  O  O118  1  0.83985000  0.92670000  0.50430000  1
  O  O119  1  0.39970000  0.18590000  0.02940000  1
  O  O120  1  0.99491000  0.94730000  0.61422000  1
  O  O121  1  0.88893000  0.12650000  0.50106000  1
  O  O122  1  0.37030000  0.31410000  0.97060000  1
  O  O123  1  0.04965000  0.13820000  0.60710000  1
  O  O124  1  0.95035000  0.86180000  0.39290000  1
  O  O125  1  0.62970000  0.68590000  0.02940000  1
  O  O126  1  0.11107000  0.87350000  0.49894000  1
  O  O127  1  0.00509000  0.05270000  0.38578000  1
  O  O128  1  0.60030000  0.81410000  0.97060000  1
  O  O129  1  0.16015000  0.07330000  0.49570000  1
  O  O130  1  0.71661000  0.99800000  0.00202000  1
  O  O131  1  0.71459000  0.50200000  0.99798000  1
  O  O132  1  0.89200000  0.62050000  0.14460000  1
  O  O133  1  0.84576000  0.80320000  0.08372000  1
  O  O134  1  0.33555000  0.57330000  0.49570000  1
  O  O135  1  0.76204000  0.69680000  0.91628000  1
  O  O136  1  0.86901000  0.08030000  0.00622000  1
  O  O137  1  0.86279000  0.41970000  0.99378000  1
  O  O138  1  0.38787000  0.37350000  0.49894000  1
  O  O139  1  0.74740000  0.87950000  0.85540000  1
  O  O140  1  0.92505000  0.87590000  0.02010000  1
  O  O141  1  0.04226000  0.55350000  0.12832000  1
  O  O142  1  0.90495000  0.62410000  0.97990000  1
  O  O143  1  0.55745000  0.63820000  0.60710000  1
  O  O144  1  0.08606000  0.05350000  0.12832000  1
  O  O145  1  0.38069000  0.55270000  0.38578000  1
