# generated using pymatgen
data_Mn5H44(C21O8)4
_symmetry_space_group_name_H-M   'P 1'
_cell_length_a   13.10200000
_cell_length_b   13.13400000
_cell_length_c   25.33600000
_cell_angle_alpha   93.93500000
_cell_angle_beta   90.00000000
_cell_angle_gamma   90.00000000
_symmetry_Int_Tables_number   1
_chemical_formula_structural   Mn5H44(C21O8)4
_chemical_formula_sum   'Mn10 H88 C168 O64'
_cell_volume   4349.58296189
_cell_formula_units_Z   2
loop_
 _symmetry_equiv_pos_site_id
 _symmetry_equiv_pos_as_xyz
  1  'x, y, z'
loop_
 _atom_site_type_symbol
 _atom_site_label
 _atom_site_symmetry_multiplicity
 _atom_site_fract_x
 _atom_site_fract_y
 _atom_site_fract_z
 _atom_site_occupancy
  Mn  Mn0  1  0.00000000  0.50000000  0.50000000  1
  Mn  Mn1  1  0.05282000  0.76149000  0.48483000  1
  Mn  Mn2  1  0.19384000  0.97132000  0.49833000  1
  Mn  Mn3  1  0.30616000  0.47132000  0.99833000  1
  Mn  Mn4  1  0.44718000  0.26149000  0.98483000  1
  Mn  Mn5  1  0.50000000  0.00000000  0.00000000  1
  Mn  Mn6  1  0.55282000  0.73851000  0.01517000  1
  Mn  Mn7  1  0.69384000  0.52868000  0.00167000  1
  Mn  Mn8  1  0.80616000  0.02868000  0.50167000  1
  Mn  Mn9  1  0.94718000  0.23851000  0.51517000  1
  H  H10  1  0.01440000  0.55230000  0.62590000  1
  H  H11  1  0.03180000  0.68310000  0.24590000  1
  H  H12  1  0.03750000  0.27020000  0.83360000  1
  H  H13  1  0.04890000  0.93330000  0.21860000  1
  H  H14  1  0.05930000  0.13390000  0.17470000  1
  H  H15  1  0.08160000  0.16440000  0.08440000  1
  H  H16  1  0.08520000  0.59800000  0.77790000  1
  H  H17  1  0.10820000  0.96070000  0.65280000  1
  H  H18  1  0.11560000  0.16890000  0.34730000  1
  H  H19  1  0.11740000  0.36720000  0.23080000  1
  H  H20  1  0.12990000  0.84910000  0.36390000  1
  H  H21  1  0.13830000  0.85050000  0.83210000  1
  H  H22  1  0.14860000  0.79990000  0.62000000  1
  H  H23  1  0.16070000  0.55540000  0.85690000  1
  H  H24  1  0.16520000  0.12660000  0.77140000  1
  H  H25  1  0.16670000  0.76420000  0.70980000  1
  H  H26  1  0.18510000  0.19120000  0.62130000  1
  H  H27  1  0.19030000  0.49650000  0.64250000  1
  H  H28  1  0.22160000  0.67890000  0.19870000  1
  H  H29  1  0.22940000  0.98320000  0.22420000  1
  H  H30  1  0.23210000  0.68050000  0.34260000  1
  H  H31  1  0.24370000  0.90940000  0.90450000  1
  H  H32  1  0.25630000  0.40940000  0.40450000  1
  H  H33  1  0.26790000  0.18050000  0.84260000  1
  H  H34  1  0.27060000  0.48320000  0.72420000  1
  H  H35  1  0.27840000  0.17890000  0.69870000  1
  H  H36  1  0.30970000  0.99650000  0.14250000  1
  H  H37  1  0.31490000  0.69120000  0.12130000  1
  H  H38  1  0.33333333  0.26420000  0.20980000  1
  H  H39  1  0.33480000  0.62660000  0.27140000  1
  H  H40  1  0.33930000  0.05540000  0.35690000  1
  H  H41  1  0.35140000  0.29990000  0.12000000  1
  H  H42  1  0.36170000  0.35050000  0.33210000  1
  H  H43  1  0.37010000  0.34910000  0.86390000  1
  H  H44  1  0.38260000  0.86720000  0.73080000  1
  H  H45  1  0.38440000  0.66890000  0.84730000  1
  H  H46  1  0.39180000  0.46070000  0.15280000  1
  H  H47  1  0.41480000  0.09800000  0.27790000  1
  H  H48  1  0.41840000  0.66440000  0.58440000  1
  H  H49  1  0.44070000  0.63390000  0.67470000  1
  H  H50  1  0.45110000  0.43330000  0.71860000  1
  H  H51  1  0.46250000  0.77020000  0.33360000  1
  H  H52  1  0.46820000  0.18310000  0.74590000  1
  H  H53  1  0.48560000  0.05230000  0.12590000  1
  H  H54  1  0.51440000  0.94770000  0.87410000  1
  H  H55  1  0.53180000  0.81690000  0.25410000  1
  H  H56  1  0.53750000  0.22980000  0.66640000  1
  H  H57  1  0.54890000  0.56670000  0.28140000  1
  H  H58  1  0.55930000  0.36610000  0.32530000  1
  H  H59  1  0.58160000  0.33560000  0.41560000  1
  H  H60  1  0.58520000  0.90200000  0.72210000  1
  H  H61  1  0.60820000  0.53930000  0.84720000  1
  H  H62  1  0.61560000  0.33110000  0.15270000  1
  H  H63  1  0.61740000  0.13280000  0.26920000  1
  H  H64  1  0.62990000  0.65090000  0.13610000  1
  H  H65  1  0.63830000  0.64950000  0.66790000  1
  H  H66  1  0.64860000  0.70010000  0.88000000  1
  H  H67  1  0.66070000  0.94460000  0.64310000  1
  H  H68  1  0.66520000  0.37340000  0.72860000  1
  H  H69  1  0.66666667  0.73580000  0.79020000  1
  H  H70  1  0.68510000  0.30880000  0.87870000  1
  H  H71  1  0.69030000  0.00350000  0.85750000  1
  H  H72  1  0.72160000  0.82110000  0.30130000  1
  H  H73  1  0.72940000  0.51680000  0.27580000  1
  H  H74  1  0.73210000  0.81950000  0.15740000  1
  H  H75  1  0.74370000  0.59060000  0.59550000  1
  H  H76  1  0.75630000  0.09060000  0.09550000  1
  H  H77  1  0.76790000  0.31950000  0.65740000  1
  H  H78  1  0.77060000  0.01680000  0.77580000  1
  H  H79  1  0.77840000  0.32110000  0.80130000  1
  H  H80  1  0.80970000  0.50350000  0.35750000  1
  H  H81  1  0.81490000  0.80880000  0.37870000  1
  H  H82  1  0.83330000  0.23580000  0.29020000  1
  H  H83  1  0.83480000  0.87340000  0.22860000  1
  H  H84  1  0.83930000  0.44460000  0.14310000  1
  H  H85  1  0.85140000  0.20010000  0.38000000  1
  H  H86  1  0.86170000  0.14950000  0.16790000  1
  H  H87  1  0.87010000  0.15090000  0.63610000  1
  H  H88  1  0.88260000  0.63280000  0.76920000  1
  H  H89  1  0.88440000  0.83110000  0.65270000  1
  H  H90  1  0.89180000  0.03930000  0.34720000  1
  H  H91  1  0.91480000  0.40200000  0.22210000  1
  H  H92  1  0.91840000  0.83560000  0.91560000  1
  H  H93  1  0.94070000  0.86610000  0.82530000  1
  H  H94  1  0.95110000  0.06670000  0.78140000  1
  H  H95  1  0.96250000  0.72980000  0.16640000  1
  H  H96  1  0.96820000  0.31690000  0.75410000  1
  H  H97  1  0.98560000  0.44770000  0.37410000  1
  C  C98  1  0.00530000  0.36400000  0.77543000  1
  C  C99  1  0.00930000  0.05250000  0.57688000  1
  C  C100  1  0.01130000  0.94590000  0.36411000  1
  C  C101  1  0.01800000  0.46200000  0.76076000  1
  C  C102  1  0.01810000  0.28090000  0.42179000  1
  C  C103  1  0.02100000  0.40090000  0.35177000  1
  C  C104  1  0.03640000  0.00190000  0.72097000  1
  C  C105  1  0.03980000  0.93710000  0.25509000  1
  C  C106  1  0.04850000  0.33540000  0.82262000  1
  C  C107  1  0.04870000  0.42200000  0.29945000  1
  C  C108  1  0.05020000  0.30560000  0.36756000  1
  C  C109  1  0.05420000  0.99860000  0.66770000  1
  C  C110  1  0.07640000  0.53310000  0.78969000  1
  C  C111  1  0.08790000  0.88620000  0.34264000  1
  C  C112  1  0.09950000  0.23240000  0.33538000  1
  C  C113  1  0.10020000  0.35160000  0.26493000  1
  C  C114  1  0.10170000  0.88230000  0.28708000  1
  C  C115  1  0.10850000  0.40540000  0.85349000  1
  C  C116  1  0.11510000  0.34970000  0.57502000  1
  C  C117  1  0.11690000  0.16780000  0.16357000  1
  C  C118  1  0.12220000  0.50760000  0.83672000  1
  C  C119  1  0.12490000  0.25720000  0.28371000  1
  C  C120  1  0.13030000  0.18550000  0.10950000  1
  C  C121  1  0.14720000  0.98310000  0.79388000  1
  C  C122  1  0.14890000  0.35610000  0.90611000  1
  C  C123  1  0.16480000  0.59150000  0.42478000  1
  C  C124  1  0.16570000  0.91600000  0.83403000  1
  C  C125  1  0.17560000  0.34260000  0.62436000  1
  C  C126  1  0.18170000  0.08230000  0.79726000  1
  C  C127  1  0.19050000  0.20160000  0.19932000  1
  C  C128  1  0.20290000  0.25030000  0.64148000  1
  C  C129  1  0.20430000  0.43280000  0.65465000  1
  C  C130  1  0.20640000  0.76650000  0.63123000  1
  C  C131  1  0.21750000  0.74740000  0.68509000  1
  C  C132  1  0.21880000  0.23570000  0.09507000  1
  C  C133  1  0.22280000  0.83000000  0.21879000  1
  C  C134  1  0.22550000  0.25920000  0.03612000  1
  C  C135  1  0.22810000  0.95240000  0.87794000  1
  C  C136  1  0.23510000  0.55020000  0.38072000  1
  C  C137  1  0.24200000  0.11440000  0.84040000  1
  C  C138  1  0.24310000  0.74200000  0.18838000  1
  C  C139  1  0.24620000  0.92490000  0.20302000  1
  C  C140  1  0.25380000  0.42490000  0.70302000  1
  C  C141  1  0.25690000  0.24200000  0.68838000  1
  C  C142  1  0.25800000  0.61440000  0.34040000  1
  C  C143  1  0.26490000  0.05020000  0.88072000  1
  C  C144  1  0.27190000  0.45240000  0.37794000  1
  C  C145  1  0.27450000  0.75920000  0.53612000  1
  C  C146  1  0.27720000  0.33000000  0.71879000  1
  C  C147  1  0.28120000  0.73570000  0.59507000  1
  C  C148  1  0.28250000  0.24740000  0.18509000  1
  C  C149  1  0.29360000  0.26650000  0.13123000  1
  C  C150  1  0.29570000  0.93280000  0.15465000  1
  C  C151  1  0.29710000  0.75030000  0.14148000  1
  C  C152  1  0.30950000  0.70160000  0.69932000  1
  C  C153  1  0.31830000  0.58230000  0.29726000  1
  C  C154  1  0.32440000  0.84260000  0.12436000  1
  C  C155  1  0.33430000  0.41600000  0.33403000  1
  C  C156  1  0.33520000  0.09150000  0.92478000  1
  C  C157  1  0.35110000  0.85610000  0.40611000  1
  C  C158  1  0.35280000  0.48310000  0.29388000  1
  C  C159  1  0.36970000  0.68550000  0.60950000  1
  C  C160  1  0.37510000  0.75720000  0.78371000  1
  C  C161  1  0.37780000  0.00760000  0.33672000  1
  C  C162  1  0.38310000  0.66780000  0.66357000  1
  C  C163  1  0.38490000  0.84970000  0.07502000  1
  C  C164  1  0.39150000  0.90540000  0.35349000  1
  C  C165  1  0.39830000  0.38230000  0.78708000  1
  C  C166  1  0.39980000  0.85160000  0.76493000  1
  C  C167  1  0.40050000  0.73240000  0.83538000  1
  C  C168  1  0.41210000  0.38620000  0.84264000  1
  C  C169  1  0.42360000  0.03310000  0.28969000  1
  C  C170  1  0.44580000  0.49860000  0.16770000  1
  C  C171  1  0.44980000  0.80560000  0.86756000  1
  C  C172  1  0.45130000  0.92200000  0.79945000  1
  C  C173  1  0.45150000  0.83540000  0.32262000  1
  C  C174  1  0.46020000  0.43710000  0.75509000  1
  C  C175  1  0.46360000  0.50190000  0.22097000  1
  C  C176  1  0.47900000  0.90090000  0.85177000  1
  C  C177  1  0.48190000  0.78090000  0.92179000  1
  C  C178  1  0.48200000  0.96200000  0.26076000  1
  C  C179  1  0.48870000  0.44590000  0.86411000  1
  C  C180  1  0.49070000  0.55250000  0.07688000  1
  C  C181  1  0.49470000  0.86400000  0.27543000  1
  C  C182  1  0.50530000  0.13600000  0.72457000  1
  C  C183  1  0.50930000  0.44750000  0.92312000  1
  C  C184  1  0.51130000  0.55410000  0.13589000  1
  C  C185  1  0.51800000  0.03800000  0.73924000  1
  C  C186  1  0.51810000  0.21910000  0.07821000  1
  C  C187  1  0.52100000  0.09910000  0.14823000  1
  C  C188  1  0.53640000  0.49810000  0.77903000  1
  C  C189  1  0.53980000  0.56290000  0.24491000  1
  C  C190  1  0.54850000  0.16460000  0.67738000  1
  C  C191  1  0.54870000  0.07800000  0.20055000  1
  C  C192  1  0.55020000  0.19440000  0.13244000  1
  C  C193  1  0.55420000  0.50140000  0.83230000  1
  C  C194  1  0.57640000  0.96690000  0.71031000  1
  C  C195  1  0.58790000  0.61380000  0.15736000  1
  C  C196  1  0.59950000  0.26760000  0.16462000  1
  C  C197  1  0.60020000  0.14840000  0.23507000  1
  C  C198  1  0.60170000  0.61770000  0.21292000  1
  C  C199  1  0.60850000  0.09460000  0.64651000  1
  C  C200  1  0.61510000  0.15030000  0.92498000  1
  C  C201  1  0.61690000  0.33220000  0.33643000  1
  C  C202  1  0.62220000  0.99240000  0.66328000  1
  C  C203  1  0.62490000  0.24280000  0.21629000  1
  C  C204  1  0.63030000  0.31450000  0.39050000  1
  C  C205  1  0.64720000  0.51690000  0.70612000  1
  C  C206  1  0.64890000  0.14390000  0.59389000  1
  C  C207  1  0.66480000  0.90850000  0.07522000  1
  C  C208  1  0.66570000  0.58400000  0.66597000  1
  C  C209  1  0.67560000  0.15740000  0.87564000  1
  C  C210  1  0.68170000  0.41770000  0.70274000  1
  C  C211  1  0.69050000  0.29840000  0.30068000  1
  C  C212  1  0.70290000  0.24970000  0.85852000  1
  C  C213  1  0.70430000  0.06720000  0.84535000  1
  C  C214  1  0.70640000  0.73350000  0.86877000  1
  C  C215  1  0.71750000  0.75260000  0.81491000  1
  C  C216  1  0.71880000  0.26430000  0.40493000  1
  C  C217  1  0.72280000  0.67000000  0.28121000  1
  C  C218  1  0.72550000  0.24080000  0.46388000  1
  C  C219  1  0.72810000  0.54760000  0.62206000  1
  C  C220  1  0.73510000  0.94980000  0.11928000  1
  C  C221  1  0.74200000  0.38560000  0.65960000  1
  C  C222  1  0.74310000  0.75800000  0.31162000  1
  C  C223  1  0.74620000  0.57510000  0.29698000  1
  C  C224  1  0.75380000  0.07510000  0.79698000  1
  C  C225  1  0.75690000  0.25800000  0.81162000  1
  C  C226  1  0.75800000  0.88560000  0.15960000  1
  C  C227  1  0.76490000  0.44980000  0.61928000  1
  C  C228  1  0.77190000  0.04760000  0.12206000  1
  C  C229  1  0.77450000  0.74080000  0.96388000  1
  C  C230  1  0.77720000  0.17000000  0.78121000  1
  C  C231  1  0.78120000  0.76430000  0.90493000  1
  C  C232  1  0.78250000  0.25260000  0.31491000  1
  C  C233  1  0.79360000  0.23350000  0.36877000  1
  C  C234  1  0.79570000  0.56720000  0.34535000  1
  C  C235  1  0.79710000  0.74970000  0.35852000  1
  C  C236  1  0.80950000  0.79840000  0.80068000  1
  C  C237  1  0.81830000  0.91770000  0.20274000  1
  C  C238  1  0.82440000  0.65740000  0.37564000  1
  C  C239  1  0.83430000  0.08400000  0.16597000  1
  C  C240  1  0.83520000  0.40850000  0.57522000  1
  C  C241  1  0.85110000  0.64390000  0.09389000  1
  C  C242  1  0.85280000  0.01690000  0.20612000  1
  C  C243  1  0.86970000  0.81450000  0.89050000  1
  C  C244  1  0.87510000  0.74280000  0.71629000  1
  C  C245  1  0.87780000  0.49240000  0.16328000  1
  C  C246  1  0.88310000  0.83220000  0.83643000  1
  C  C247  1  0.88490000  0.65030000  0.42498000  1
  C  C248  1  0.89150000  0.59460000  0.14651000  1
  C  C249  1  0.89830000  0.11770000  0.71292000  1
  C  C250  1  0.89980000  0.64840000  0.73507000  1
  C  C251  1  0.90050000  0.76760000  0.66462000  1
  C  C252  1  0.91210000  0.11380000  0.65736000  1
  C  C253  1  0.92360000  0.46690000  0.21031000  1
  C  C254  1  0.94580000  0.00140000  0.33230000  1
  C  C255  1  0.94980000  0.69440000  0.63244000  1
  C  C256  1  0.95130000  0.57800000  0.70055000  1
  C  C257  1  0.95150000  0.66460000  0.17738000  1
  C  C258  1  0.96020000  0.06290000  0.74491000  1
  C  C259  1  0.96360000  0.99810000  0.27903000  1
  C  C260  1  0.97900000  0.59910000  0.64823000  1
  C  C261  1  0.98190000  0.71910000  0.57821000  1
  C  C262  1  0.98200000  0.53800000  0.23924000  1
  C  C263  1  0.98870000  0.05410000  0.63589000  1
  C  C264  1  0.99070000  0.94750000  0.42312000  1
  C  C265  1  0.99470000  0.63600000  0.22457000  1
  O  O266  1  0.02110000  0.64945000  0.54624000  1
  O  O267  1  0.02630000  0.51990000  0.28605000  1
  O  O268  1  0.02950000  0.19175000  0.43631000  1
  O  O269  1  0.05960000  0.91188000  0.45211000  1
  O  O270  1  0.08960000  0.43480000  0.55992000  1
  O  O271  1  0.09160000  0.26450000  0.55009000  1
  O  O272  1  0.09190000  0.93880000  0.75137000  1
  O  O273  1  0.09520000  0.02000000  0.56188000  1
  O  O274  1  0.13180000  0.28280000  0.91605000  1
  O  O275  1  0.13387000  0.68042000  0.42596000  1
  O  O276  1  0.14040000  0.52360000  0.45818000  1
  O  O277  1  0.16160000  0.22570000  0.00563000  1
  O  O278  1  0.17710000  0.81540000  0.26767000  1
  O  O279  1  0.17880000  0.18420000  0.25354000  1
  O  O280  1  0.19490000  0.81463000  0.52535000  1
  O  O281  1  0.20550000  0.43710000  0.93167000  1
  O  O282  1  0.29450000  0.93710000  0.43167000  1
  O  O283  1  0.30510000  0.31463000  0.02535000  1
  O  O284  1  0.32120000  0.68420000  0.75354000  1
  O  O285  1  0.32290000  0.31540000  0.76767000  1
  O  O286  1  0.33840000  0.72570000  0.50563000  1
  O  O287  1  0.35960000  0.02360000  0.95818000  1
  O  O288  1  0.36613000  0.18042000  0.92596000  1
  O  O289  1  0.36820000  0.78280000  0.41605000  1
  O  O290  1  0.40480000  0.52000000  0.06188000  1
  O  O291  1  0.40810000  0.43880000  0.25137000  1
  O  O292  1  0.40840000  0.76450000  0.05009000  1
  O  O293  1  0.41040000  0.93480000  0.05992000  1
  O  O294  1  0.44040000  0.41188000  0.95211000  1
  O  O295  1  0.47050000  0.69175000  0.93631000  1
  O  O296  1  0.47370000  0.01990000  0.78605000  1
  O  O297  1  0.47890000  0.14945000  0.04624000  1
  O  O298  1  0.52110000  0.85055000  0.95376000  1
  O  O299  1  0.52630000  0.98010000  0.21395000  1
  O  O300  1  0.52950000  0.30825000  0.06369000  1
  O  O301  1  0.55960000  0.58812000  0.04789000  1
  O  O302  1  0.58960000  0.06520000  0.94008000  1
  O  O303  1  0.59160000  0.23550000  0.94991000  1
  O  O304  1  0.59190000  0.56120000  0.74863000  1
  O  O305  1  0.59520000  0.48000000  0.93812000  1
  O  O306  1  0.63180000  0.21720000  0.58395000  1
  O  O307  1  0.63387000  0.81958000  0.07404000  1
  O  O308  1  0.64040000  0.97640000  0.04182000  1
  O  O309  1  0.66160000  0.27430000  0.49437000  1
  O  O310  1  0.67710000  0.68460000  0.23233000  1
  O  O311  1  0.67880000  0.31580000  0.24646000  1
  O  O312  1  0.69490000  0.68537000  0.97465000  1
  O  O313  1  0.70550000  0.06290000  0.56833000  1
  O  O314  1  0.79450000  0.56290000  0.06833000  1
  O  O315  1  0.80510000  0.18537000  0.47465000  1
  O  O316  1  0.82120000  0.81580000  0.74646000  1
  O  O317  1  0.82290000  0.18460000  0.73233000  1
  O  O318  1  0.83840000  0.77430000  0.99437000  1
  O  O319  1  0.85960000  0.47640000  0.54182000  1
  O  O320  1  0.86613000  0.31958000  0.57404000  1
  O  O321  1  0.86820000  0.71720000  0.08395000  1
  O  O322  1  0.90480000  0.98000000  0.43812000  1
  O  O323  1  0.90810000  0.06120000  0.24863000  1
  O  O324  1  0.90840000  0.73550000  0.44991000  1
  O  O325  1  0.91040000  0.56520000  0.44008000  1
  O  O326  1  0.94040000  0.08812000  0.54789000  1
  O  O327  1  0.97050000  0.80825000  0.56369000  1
  O  O328  1  0.97370000  0.48010000  0.71395000  1
  O  O329  1  0.97890000  0.35055000  0.45376000  1
