# generated using pymatgen
data_Cu3H19C36N5O12
_symmetry_space_group_name_H-M   'P 1'
_cell_length_a   13.65700000
_cell_length_b   18.41261549
_cell_length_c   18.41261549
_cell_angle_alpha   60.98476932
_cell_angle_beta   78.47252833
_cell_angle_gamma   78.47252833
_symmetry_Int_Tables_number   1
_chemical_formula_structural   Cu3H19C36N5O12
_chemical_formula_sum   'Cu6 H38 C72 N10 O24'
_cell_volume   3938.55449675
_cell_formula_units_Z   2
loop_
 _symmetry_equiv_pos_site_id
 _symmetry_equiv_pos_as_xyz
  1  'x, y, z'
loop_
 _atom_site_type_symbol
 _atom_site_label
 _atom_site_symmetry_multiplicity
 _atom_site_fract_x
 _atom_site_fract_y
 _atom_site_fract_z
 _atom_site_occupancy
  C  C0  1  0.79190000  0.56150000  0.86150000  1
  C  C1  1  0.79190000  0.86150000  0.56150000  1
  C  C2  1  0.13900000  0.17120000  0.57720000  1
  C  C3  1  0.13900000  0.57720000  0.17120000  1
  C  C4  1  0.35606000  0.85114000  0.46614000  1
  C  C5  1  0.35606000  0.46614000  0.85114000  1
  C  C6  1  0.40630000  0.77850000  0.46510000  1
  C  C7  1  0.40630000  0.46510000  0.77850000  1
  C  C8  1  0.58876000  0.53614000  0.35634000  1
  C  C9  1  0.58876000  0.35634000  0.53614000  1
  C  C10  1  0.64301000  0.54309000  0.27409000  1
  C  C11  1  0.64301000  0.27409000  0.54309000  1
  C  C12  1  0.92980000  0.47310000  0.82290000  1
  C  C13  1  0.92980000  0.82290000  0.47310000  1
  C  C14  1  0.74522000  0.54128000  0.12908000  1
  C  C15  1  0.74522000  0.12908000  0.54128000  1
  C  C16  1  0.89480000  0.54230000  0.83790000  1
  C  C17  1  0.89480000  0.83790000  0.54230000  1
  C  C18  1  0.23670000  0.14310000  0.55390000  1
  C  C19  1  0.23670000  0.55390000  0.14310000  1
  C  C20  1  0.41163000  0.90637000  0.47697000  1
  C  C21  1  0.41163000  0.47697000  0.90637000  1
  C  C22  1  0.74474000  0.55176000  0.25476000  1
  C  C23  1  0.74474000  0.25476000  0.55176000  1
  C  C24  1  0.03370000  0.44940000  0.79320000  1
  C  C25  1  0.03370000  0.79320000  0.44940000  1
  C  C26  1  0.79774000  0.54846000  0.18386000  1
  C  C27  1  0.79774000  0.18386000  0.54846000  1
  C  C28  1  0.29950000  0.86610000  0.86610000  1
  C  C29  1  0.33730000  0.91190000  0.78410000  1
  C  C30  1  0.33730000  0.78410000  0.91190000  1
  C  C31  1  0.41425000  0.87545000  0.74605000  1
  C  C32  1  0.41425000  0.74605000  0.87545000  1
  C  C33  1  0.44957000  0.92093000  0.65633000  1
  C  C34  1  0.44957000  0.65633000  0.92093000  1
  C  C35  1  0.45270000  0.79200000  0.79200000  1
  C  C36  1  0.54730000  0.20800000  0.20800000  1
  C  C37  1  0.55043000  0.07907000  0.34367000  1
  C  C38  1  0.55043000  0.34367000  0.07907000  1
  C  C39  1  0.58575000  0.12455000  0.25395000  1
  C  C40  1  0.58575000  0.25395000  0.12455000  1
  C  C41  1  0.66270000  0.08810000  0.21590000  1
  C  C42  1  0.66270000  0.21590000  0.08810000  1
  C  C43  1  0.70050000  0.13390000  0.13390000  1
  C  C44  1  0.20226000  0.45154000  0.81614000  1
  C  C45  1  0.20226000  0.81614000  0.45154000  1
  C  C46  1  0.96630000  0.55060000  0.20680000  1
  C  C47  1  0.96630000  0.20680000  0.55060000  1
  C  C48  1  0.25526000  0.44824000  0.74524000  1
  C  C49  1  0.25526000  0.74524000  0.44824000  1
  C  C50  1  0.58837000  0.09363000  0.52303000  1
  C  C51  1  0.58837000  0.52303000  0.09363000  1
  C  C52  1  0.76330000  0.85690000  0.44610000  1
  C  C53  1  0.76330000  0.44610000  0.85690000  1
  C  C54  1  0.10520000  0.45770000  0.16210000  1
  C  C55  1  0.10520000  0.16210000  0.45770000  1
  C  C56  1  0.25478000  0.45872000  0.87092000  1
  C  C57  1  0.25478000  0.87092000  0.45872000  1
  C  C58  1  0.07020000  0.52690000  0.17710000  1
  C  C59  1  0.07020000  0.17710000  0.52690000  1
  C  C60  1  0.35699000  0.45691000  0.72591000  1
  C  C61  1  0.35699000  0.72591000  0.45691000  1
  C  C62  1  0.41124000  0.46386000  0.64366000  1
  C  C63  1  0.41124000  0.64366000  0.46386000  1
  C  C64  1  0.59370000  0.22150000  0.53490000  1
  C  C65  1  0.59370000  0.53490000  0.22150000  1
  C  C66  1  0.64394000  0.14886000  0.53386000  1
  C  C67  1  0.64394000  0.53386000  0.14886000  1
  C  C68  1  0.86100000  0.82880000  0.42280000  1
  C  C69  1  0.86100000  0.42280000  0.82880000  1
  C  C70  1  0.20810000  0.43850000  0.13850000  1
  C  C71  1  0.20810000  0.13850000  0.43850000  1
  Cu  Cu72  1  0.57997000  0.51695000  0.51695000  1
  Cu  Cu73  1  0.41756000  0.05447000  0.49089000  1
  Cu  Cu74  1  0.41756000  0.49089000  0.05447000  1
  Cu  Cu75  1  0.58244000  0.94553000  0.50911000  1
  Cu  Cu76  1  0.58244000  0.50911000  0.94553000  1
  Cu  Cu77  1  0.42003000  0.48305000  0.48305000  1
  H  H78  1  0.76960000  0.60940000  0.86780000  1
  H  H79  1  0.76960000  0.86780000  0.60940000  1
  H  H80  1  0.12150000  0.18450000  0.62110000  1
  H  H81  1  0.12150000  0.62110000  0.18450000  1
  H  H82  1  0.77910000  0.54150000  0.07990000  1
  H  H83  1  0.77910000  0.07990000  0.54150000  1
  H  H84  1  0.47480000  0.76530000  0.47010000  1
  H  H85  1  0.47480000  0.47010000  0.76530000  1
  H  H86  1  0.03520000  0.41550000  0.76950000  1
  H  H87  1  0.03520000  0.76950000  0.41550000  1
  H  H88  1  0.94060000  0.57650000  0.83210000  1
  H  H89  1  0.94060000  0.83210000  0.57650000  1
  H  H90  1  0.28410000  0.13550000  0.58770000  1
  H  H91  1  0.28410000  0.58770000  0.13550000  1
  H  H92  1  0.31130000  0.96750000  0.75390000  1
  H  H93  1  0.31130000  0.75390000  0.96750000  1
  H  H94  1  0.77750000  0.55990000  0.28950000  1
  H  H95  1  0.77750000  0.28950000  0.55990000  1
  H  H96  1  0.49600000  0.23310000  0.23310000  1
  H  H97  1  0.50400000  0.76690000  0.76690000  1
  H  H98  1  0.22250000  0.44010000  0.71050000  1
  H  H99  1  0.22250000  0.71050000  0.44010000  1
  H  H100  1  0.68870000  0.03250000  0.24610000  1
  H  H101  1  0.68870000  0.24610000  0.03250000  1
  H  H102  1  0.71590000  0.86450000  0.41230000  1
  H  H103  1  0.71590000  0.41230000  0.86450000  1
  H  H104  1  0.05940000  0.42350000  0.16790000  1
  H  H105  1  0.05940000  0.16790000  0.42350000  1
  H  H106  1  0.96480000  0.58450000  0.23050000  1
  H  H107  1  0.96480000  0.23050000  0.58450000  1
  H  H108  1  0.52520000  0.23470000  0.52990000  1
  H  H109  1  0.52520000  0.52990000  0.23470000  1
  H  H110  1  0.22090000  0.45850000  0.92010000  1
  H  H111  1  0.22090000  0.92010000  0.45850000  1
  H  H112  1  0.87850000  0.81550000  0.37890000  1
  H  H113  1  0.87850000  0.37890000  0.81550000  1
  H  H114  1  0.23040000  0.39060000  0.13220000  1
  H  H115  1  0.23040000  0.13220000  0.39060000  1
  N  N116  1  0.27255000  0.12535000  0.49075000  1
  N  N117  1  0.27255000  0.49075000  0.12535000  1
  N  N118  1  0.23080000  0.91180000  0.91180000  1
  N  N119  1  0.09490000  0.45220000  0.83500000  1
  N  N120  1  0.09490000  0.83500000  0.45220000  1
  N  N121  1  0.90510000  0.54780000  0.16500000  1
  N  N122  1  0.90510000  0.16500000  0.54780000  1
  N  N123  1  0.76920000  0.08820000  0.08820000  1
  N  N124  1  0.72745000  0.87465000  0.50925000  1
  N  N125  1  0.72745000  0.50925000  0.87465000  1
  O  O126  1  0.49989000  0.62645000  0.48057000  1
  O  O127  1  0.49989000  0.48057000  0.62645000  1
  O  O128  1  0.36273000  0.97347000  0.47587000  1
  O  O129  1  0.36273000  0.47587000  0.97347000  1
  O  O130  1  0.63752000  0.54540000  0.40196000  1
  O  O131  1  0.63752000  0.40196000  0.54540000  1
  O  O132  1  0.50086000  0.88171000  0.49077000  1
  O  O133  1  0.50086000  0.49077000  0.88171000  1
  O  O134  1  0.39393000  0.98569000  0.61325000  1
  O  O135  1  0.39393000  0.61325000  0.98569000  1
  O  O136  1  0.46953000  0.10855000  0.37179000  1
  O  O137  1  0.46953000  0.37179000  0.10855000  1
  O  O138  1  0.53047000  0.89145000  0.62821000  1
  O  O139  1  0.53047000  0.62821000  0.89145000  1
  O  O140  1  0.60607000  0.01431000  0.38675000  1
  O  O141  1  0.60607000  0.38675000  0.01431000  1
  O  O142  1  0.49914000  0.11829000  0.50923000  1
  O  O143  1  0.49914000  0.50923000  0.11829000  1
  O  O144  1  0.36248000  0.45460000  0.59804000  1
  O  O145  1  0.36248000  0.59804000  0.45460000  1
  O  O146  1  0.63727000  0.02653000  0.52413000  1
  O  O147  1  0.63727000  0.52413000  0.02653000  1
  O  O148  1  0.50011000  0.37355000  0.51943000  1
  O  O149  1  0.50011000  0.51943000  0.37355000  1
