# generated using pymatgen
data_CoH4C6(NO2)2
_symmetry_space_group_name_H-M   'P 1'
_cell_length_a   8.99780000
_cell_length_b   9.46380000
_cell_length_c   10.43300000
_cell_angle_alpha   90.00000000
_cell_angle_beta   90.00000000
_cell_angle_gamma   90.00000000
_symmetry_Int_Tables_number   1
_chemical_formula_structural   CoH4C6(NO2)2
_chemical_formula_sum   'Co4 H16 C24 N8 O16'
_cell_volume   888.40520978
_cell_formula_units_Z   4
loop_
 _symmetry_equiv_pos_site_id
 _symmetry_equiv_pos_as_xyz
  1  'x, y, z'
loop_
 _atom_site_type_symbol
 _atom_site_label
 _atom_site_symmetry_multiplicity
 _atom_site_fract_x
 _atom_site_fract_y
 _atom_site_fract_z
 _atom_site_occupancy
  Co  Co0  1  0.20432000  0.44728000  0.26901000  1
  Co  Co1  1  0.29568000  0.55272000  0.76901000  1
  Co  Co2  1  0.70432000  0.05272000  0.73099000  1
  Co  Co3  1  0.79568000  0.94728000  0.23099000  1
  H  H4  1  0.04550000  0.70350000  0.93500000  1
  H  H5  1  0.05430000  0.72370000  0.19880000  1
  H  H6  1  0.07760000  0.36570000  0.96150000  1
  H  H7  1  0.11660000  0.71310000  0.56540000  1
  H  H8  1  0.38340000  0.28690000  0.06540000  1
  H  H9  1  0.42240000  0.63430000  0.46150000  1
  H  H10  1  0.44570000  0.27630000  0.69880000  1
  H  H11  1  0.45450000  0.29650000  0.43500000  1
  H  H12  1  0.54550000  0.79650000  0.06500000  1
  H  H13  1  0.55430000  0.77630000  0.80120000  1
  H  H14  1  0.57760000  0.13430000  0.03850000  1
  H  H15  1  0.61660000  0.78690000  0.43460000  1
  H  H16  1  0.88340000  0.21310000  0.93460000  1
  H  H17  1  0.92240000  0.86570000  0.53850000  1
  H  H18  1  0.94570000  0.22370000  0.30120000  1
  H  H19  1  0.95450000  0.20350000  0.56500000  1
  C  C20  1  0.00570000  0.69860000  0.27410000  1
  C  C21  1  0.02230000  0.73540000  0.85310000  1
  C  C22  1  0.05210000  0.33590000  0.87940000  1
  C  C23  1  0.06290000  0.74150000  0.63710000  1
  C  C24  1  0.09620000  0.33320000  0.66380000  1
  C  C25  1  0.18340000  0.39050000  0.55270000  1
  C  C26  1  0.31660000  0.60950000  0.05270000  1
  C  C27  1  0.40380000  0.66680000  0.16380000  1
  C  C28  1  0.43710000  0.25850000  0.13710000  1
  C  C29  1  0.44790000  0.66410000  0.37940000  1
  C  C30  1  0.47770000  0.26460000  0.35310000  1
  C  C31  1  0.49430000  0.30140000  0.77410000  1
  C  C32  1  0.50570000  0.80140000  0.72590000  1
  C  C33  1  0.52230000  0.76460000  0.14690000  1
  C  C34  1  0.55210000  0.16410000  0.12060000  1
  C  C35  1  0.56290000  0.75850000  0.36290000  1
  C  C36  1  0.59620000  0.16680000  0.33620000  1
  C  C37  1  0.68340000  0.10950000  0.44730000  1
  C  C38  1  0.81660000  0.89050000  0.94730000  1
  C  C39  1  0.90380000  0.83320000  0.83620000  1
  C  C40  1  0.93710000  0.24150000  0.86290000  1
  C  C41  1  0.94790000  0.83590000  0.62060000  1
  C  C42  1  0.97770000  0.23540000  0.64690000  1
  C  C43  1  0.99430000  0.19860000  0.22590000  1
  N  N44  1  0.10130000  0.68830000  0.75230000  1
  N  N45  1  0.12810000  0.38560000  0.77700000  1
  N  N46  1  0.37190000  0.61440000  0.27700000  1
  N  N47  1  0.39870000  0.31170000  0.25230000  1
  N  N48  1  0.60130000  0.81170000  0.24770000  1
  N  N49  1  0.62810000  0.11440000  0.22300000  1
  N  N50  1  0.87190000  0.88560000  0.72300000  1
  N  N51  1  0.89870000  0.18830000  0.74770000  1
  O  O52  1  0.03970000  0.58450000  0.32050000  1
  O  O53  1  0.08490000  0.28350000  0.18480000  1
  O  O54  1  0.15250000  0.34720000  0.44310000  1
  O  O55  1  0.21950000  0.52050000  0.08110000  1
  O  O56  1  0.28050000  0.47950000  0.58110000  1
  O  O57  1  0.34750000  0.65280000  0.94310000  1
  O  O58  1  0.41510000  0.71650000  0.68480000  1
  O  O59  1  0.46030000  0.41550000  0.82050000  1
  O  O60  1  0.53970000  0.91550000  0.67950000  1
  O  O61  1  0.58490000  0.21650000  0.81520000  1
  O  O62  1  0.65250000  0.15280000  0.55690000  1
  O  O63  1  0.71950000  0.97950000  0.91890000  1
  O  O64  1  0.78050000  0.02050000  0.41890000  1
  O  O65  1  0.84750000  0.84720000  0.05690000  1
  O  O66  1  0.91510000  0.78350000  0.31520000  1
  O  O67  1  0.96030000  0.08450000  0.17950000  1
