# generated using pymatgen
data_CuH11C11(NO2)2
_symmetry_space_group_name_H-M   'P 1'
_cell_length_a   8.64620000
_cell_length_b   13.15980000
_cell_length_c   15.32168927
_cell_angle_alpha   115.43212924
_cell_angle_beta   94.90693555
_cell_angle_gamma   90.00000000
_symmetry_Int_Tables_number   1
_chemical_formula_structural   CuH11C11(NO2)2
_chemical_formula_sum   'Cu4 H44 C44 N8 O16'
_cell_volume   1567.31982289
_cell_formula_units_Z   4
loop_
 _symmetry_equiv_pos_site_id
 _symmetry_equiv_pos_as_xyz
  1  'x, y, z'
loop_
 _atom_site_type_symbol
 _atom_site_label
 _atom_site_symmetry_multiplicity
 _atom_site_fract_x
 _atom_site_fract_y
 _atom_site_fract_z
 _atom_site_occupancy
  Cu  Cu0  1  0.96189000  0.08508000  0.57898000  1
  Cu  Cu1  1  0.53811000  0.50610000  0.42102000  1
  Cu  Cu2  1  0.46189000  0.49390000  0.57898000  1
  Cu  Cu3  1  0.03811000  0.91492000  0.42102000  1
  H  H4  1  0.99500000  0.45930000  0.38480000  1
  H  H5  1  0.98840000  0.35300000  0.47480000  1
  H  H6  1  0.93170000  0.64040000  0.69860000  1
  H  H7  1  0.90390000  0.63670000  0.09740000  1
  H  H8  1  0.90080000  0.82930000  0.68560000  1
  H  H9  1  0.89420000  0.28830000  0.37300000  1
  H  H10  1  0.86820000  0.33090000  0.64540000  1
  H  H11  1  0.82340000  0.13560000  0.77200000  1
  H  H12  1  0.81710000  0.37800000  0.11520000  1
  H  H13  1  0.79310000  0.75900000  0.59100000  1
  H  H14  1  0.77150000  0.70950000  0.24560000  1
  H  H15  1  0.72850000  0.46390000  0.75440000  1
  H  H16  1  0.70690000  0.16800000  0.40900000  1
  H  H17  1  0.68290000  0.26280000  0.88480000  1
  H  H18  1  0.67660000  0.36360000  0.22800000  1
  H  H19  1  0.63180000  0.68550000  0.35460000  1
  H  H20  1  0.60580000  0.91530000  0.62700000  1
  H  H21  1  0.59920000  0.14370000  0.31440000  1
  H  H22  1  0.59610000  0.53930000  0.90260000  1
  H  H23  1  0.56830000  0.94180000  0.30140000  1
  H  H24  1  0.51160000  0.87820000  0.52520000  1
  H  H25  1  0.50500000  0.07450000  0.61520000  1
  H  H26  1  0.49500000  0.92550000  0.38480000  1
  H  H27  1  0.48840000  0.12180000  0.47480000  1
  H  H28  1  0.43170000  0.05820000  0.69860000  1
  H  H29  1  0.40390000  0.46070000  0.09740000  1
  H  H30  1  0.40080000  0.85630000  0.68560000  1
  H  H31  1  0.39420000  0.08470000  0.37300000  1
  H  H32  1  0.36820000  0.31450000  0.64540000  1
  H  H33  1  0.32340000  0.63640000  0.77200000  1
  H  H34  1  0.31710000  0.73720000  0.11520000  1
  H  H35  1  0.29310000  0.83200000  0.59100000  1
  H  H36  1  0.27150000  0.53610000  0.24560000  1
  H  H37  1  0.22850000  0.29050000  0.75440000  1
  H  H38  1  0.20690000  0.24100000  0.40900000  1
  H  H39  1  0.18290000  0.62200000  0.88480000  1
  H  H40  1  0.17660000  0.86440000  0.22800000  1
  H  H41  1  0.13180000  0.66910000  0.35460000  1
  H  H42  1  0.10580000  0.71170000  0.62700000  1
  H  H43  1  0.09920000  0.17070000  0.31440000  1
  H  H44  1  0.09610000  0.36330000  0.90260000  1
  H  H45  1  0.06830000  0.35960000  0.30140000  1
  H  H46  1  0.01160000  0.64700000  0.52520000  1
  H  H47  1  0.00500000  0.54070000  0.61520000  1
  C  C48  1  0.99750000  0.31460000  0.40540000  1
  C  C49  1  0.94220000  0.86740000  0.57420000  1
  C  C50  1  0.93580000  0.60260000  0.62880000  1
  C  C51  1  0.89910000  0.78710000  0.61580000  1
  C  C52  1  0.89700000  0.56530000  0.09560000  1
  C  C53  1  0.83010000  0.31700000  0.69440000  1
  C  C54  1  0.81100000  0.54640000  0.16720000  1
  C  C55  1  0.80360000  0.20340000  0.76860000  1
  C  C56  1  0.78070000  0.44230000  0.16340000  1
  C  C57  1  0.77400000  0.55540000  0.58060000  1
  C  C58  1  0.75340000  0.63750000  0.24060000  1
  C  C59  1  0.74660000  0.39690000  0.75940000  1
  C  C60  1  0.72600000  0.97480000  0.41940000  1
  C  C61  1  0.71930000  0.27890000  0.83660000  1
  C  C62  1  0.69640000  0.43480000  0.23140000  1
  C  C63  1  0.68900000  0.37920000  0.83280000  1
  C  C64  1  0.66990000  0.62260000  0.30560000  1
  C  C65  1  0.60300000  0.46970000  0.90440000  1
  C  C66  1  0.60090000  0.17130000  0.38420000  1
  C  C67  1  0.56420000  0.97380000  0.37120000  1
  C  C68  1  0.55780000  0.29320000  0.42580000  1
  C  C69  1  0.50250000  0.90920000  0.59460000  1
  C  C70  1  0.49750000  0.09080000  0.40540000  1
  C  C71  1  0.44220000  0.70680000  0.57420000  1
  C  C72  1  0.43580000  0.02620000  0.62880000  1
  C  C73  1  0.39910000  0.82870000  0.61580000  1
  C  C74  1  0.39700000  0.53030000  0.09560000  1
  C  C75  1  0.33010000  0.37740000  0.69440000  1
  C  C76  1  0.31100000  0.62080000  0.16720000  1
  C  C77  1  0.30360000  0.56520000  0.76860000  1
  C  C78  1  0.28070000  0.72110000  0.16340000  1
  C  C79  1  0.27400000  0.02520000  0.58060000  1
  C  C80  1  0.25340000  0.60310000  0.24060000  1
  C  C81  1  0.24660000  0.36250000  0.75940000  1
  C  C82  1  0.22600000  0.44460000  0.41940000  1
  C  C83  1  0.21930000  0.55770000  0.83660000  1
  C  C84  1  0.19640000  0.79660000  0.23140000  1
  C  C85  1  0.18900000  0.45360000  0.83280000  1
  C  C86  1  0.16990000  0.68300000  0.30560000  1
  C  C87  1  0.10300000  0.43470000  0.90440000  1
  C  C88  1  0.10090000  0.21290000  0.38420000  1
  C  C89  1  0.06420000  0.39740000  0.37120000  1
  C  C90  1  0.05780000  0.13260000  0.42580000  1
  C  C91  1  0.00250000  0.68540000  0.59460000  1
  N  N92  1  0.96210000  0.48250000  0.03040000  1
  N  N93  1  0.85910000  0.22020000  0.69800000  1
  N  N94  1  0.64090000  0.52220000  0.30200000  1
  N  N95  1  0.53790000  0.45210000  0.96960000  1
  N  N96  1  0.46210000  0.54790000  0.03040000  1
  N  N97  1  0.35910000  0.47780000  0.69800000  1
  N  N98  1  0.14090000  0.77980000  0.30200000  1
  N  N99  1  0.03790000  0.51750000  0.96960000  1
  O  O100  1  0.98490000  0.82480000  0.48960000  1
  O  O101  1  0.92640000  0.96960000  0.62500000  1
  O  O102  1  0.81950000  0.90577000  0.36834000  1
  O  O103  1  0.75530000  0.04618000  0.50436000  1
  O  O104  1  0.74470000  0.54182000  0.49564000  1
  O  O105  1  0.68050000  0.53743000  0.63166000  1
  O  O106  1  0.57360000  0.34460000  0.37500000  1
  O  O107  1  0.51510000  0.33520000  0.51040000  1
  O  O108  1  0.48490000  0.66480000  0.48960000  1
  O  O109  1  0.42640000  0.65540000  0.62500000  1
  O  O110  1  0.31950000  0.46257000  0.36834000  1
  O  O111  1  0.25530000  0.45818000  0.50436000  1
  O  O112  1  0.24470000  0.95382000  0.49564000  1
  O  O113  1  0.18050000  0.09423000  0.63166000  1
  O  O114  1  0.07360000  0.03040000  0.37500000  1
  O  O115  1  0.01510000  0.17520000  0.51040000  1
