# generated using pymatgen
data_SmH8C12NO8
_symmetry_space_group_name_H-M   'P 1'
_cell_length_a   11.34690000
_cell_length_b   16.27761380
_cell_length_c   16.27761380
_cell_angle_alpha   83.02234232
_cell_angle_beta   69.60176944
_cell_angle_gamma   69.60176944
_symmetry_Int_Tables_number   1
_chemical_formula_structural   SmH8C12NO8
_chemical_formula_sum   'Sm8 H64 C96 N8 O64'
_cell_volume   2641.24827872
_cell_formula_units_Z   8
loop_
 _symmetry_equiv_pos_site_id
 _symmetry_equiv_pos_as_xyz
  1  'x, y, z'
loop_
 _atom_site_type_symbol
 _atom_site_label
 _atom_site_symmetry_multiplicity
 _atom_site_fract_x
 _atom_site_fract_y
 _atom_site_fract_z
 _atom_site_occupancy
  C  C0  1  0.19612000  0.57835000  0.41841000  1
  C  C1  1  0.80712000  0.07835000  0.91841000  1
  C  C2  1  0.68442000  0.54927000  0.43729000  1
  C  C3  1  0.32902000  0.04927000  0.93729000  1
  C  C4  1  0.32216000  0.58464000  0.34744000  1
  C  C5  1  0.74576000  0.08464000  0.84744000  1
  C  C6  1  0.83165000  0.50399000  0.39951000  1
  C  C7  1  0.26485000  0.00399000  0.89951000  1
  C  C8  1  0.90114000  0.54737000  0.33115000  1
  C  C9  1  0.22034000  0.04737000  0.83115000  1
  C  C10  1  0.25812000  0.91853000  0.92303000  1
  C  C11  1  0.90032000  0.41853000  0.42303000  1
  C  C12  1  0.03267000  0.50804000  0.28282000  1
  C  C13  1  0.17647000  0.00804000  0.78282000  1
  C  C14  1  0.30449000  0.78216000  0.00706000  1
  C  C15  1  0.90629000  0.28216000  0.50706000  1
  C  C16  1  0.02947000  0.37701000  0.37025000  1
  C  C17  1  0.22327000  0.87701000  0.87025000  1
  C  C18  1  0.59320000  0.65256000  0.08464000  1
  C  C19  1  0.66960000  0.15256000  0.58464000  1
  C  C20  1  0.95929000  0.71718000  0.00804000  1
  C  C21  1  0.31549000  0.21718000  0.50804000  1
  C  C22  1  0.68845000  0.50706000  0.21784000  1
  C  C23  1  0.58665000  0.00706000  0.71784000  1
  C  C24  1  0.09478000  0.42173000  0.30051000  1
  C  C25  1  0.18298000  0.92173000  0.80051000  1
  C  C26  1  0.05149000  0.66885000  0.04737000  1
  C  C27  1  0.23229000  0.16885000  0.54737000  1
  C  C28  1  0.63792000  0.43666000  0.27230000  1
  C  C29  1  0.65312000  0.93666000  0.77230000  1
  C  C30  1  0.42542000  0.72770000  0.93666000  1
  C  C31  1  0.91022000  0.22770000  0.43666000  1
  C  C32  1  0.72553000  0.58159000  0.07835000  1
  C  C33  1  0.61453000  0.08159000  0.57835000  1
  C  C34  1  0.88957000  0.75842000  0.87744000  1
  C  C35  1  0.47457000  0.25842000  0.37744000  1
  C  C36  1  0.98349000  0.69949000  0.92173000  1
  C  C37  1  0.39529000  0.19949000  0.42173000  1
  C  C38  1  0.23299000  0.37744000  0.24158000  1
  C  C39  1  0.14799000  0.87744000  0.74158000  1
  C  C40  1  0.26631000  0.56271000  0.04927000  1
  C  C41  1  0.12171000  0.06271000  0.54927000  1
  C  C42  1  0.16436000  0.60049000  0.00399000  1
  C  C43  1  0.23116000  0.10049000  0.50399000  1
  C  C44  1  0.09352000  0.62975000  0.87701000  1
  C  C45  1  0.39972000  0.12975000  0.37701000  1
  C  C46  1  0.81885000  0.42303000  0.08147000  1
  C  C47  1  0.67665000  0.92303000  0.58147000  1
  C  C48  1  0.18115000  0.57697000  0.91853000  1
  C  C49  1  0.32335000  0.07697000  0.41853000  1
  C  C50  1  0.90648000  0.37025000  0.12299000  1
  C  C51  1  0.60028000  0.87025000  0.62299000  1
  C  C52  1  0.83564000  0.39951000  0.99601000  1
  C  C53  1  0.76884000  0.89951000  0.49601000  1
  C  C54  1  0.73369000  0.43729000  0.95073000  1
  C  C55  1  0.87829000  0.93729000  0.45073000  1
  C  C56  1  0.76701000  0.62256000  0.75842000  1
  C  C57  1  0.85201000  0.12256000  0.25842000  1
  C  C58  1  0.01651000  0.30051000  0.07827000  1
  C  C59  1  0.60471000  0.80051000  0.57827000  1
  C  C60  1  0.11043000  0.24158000  0.12256000  1
  C  C61  1  0.52543000  0.74158000  0.62256000  1
  C  C62  1  0.27447000  0.41841000  0.92165000  1
  C  C63  1  0.38547000  0.91841000  0.42165000  1
  C  C64  1  0.57458000  0.27230000  0.06334000  1
  C  C65  1  0.08978000  0.77230000  0.56334000  1
  C  C66  1  0.36208000  0.56334000  0.72770000  1
  C  C67  1  0.34688000  0.06334000  0.22770000  1
  C  C68  1  0.94851000  0.33115000  0.95263000  1
  C  C69  1  0.76771000  0.83115000  0.45263000  1
  C  C70  1  0.90522000  0.57827000  0.69949000  1
  C  C71  1  0.81702000  0.07827000  0.19949000  1
  C  C72  1  0.31155000  0.49294000  0.78216000  1
  C  C73  1  0.41335000  0.99294000  0.28216000  1
  C  C74  1  0.04071000  0.28282000  0.99196000  1
  C  C75  1  0.68451000  0.78282000  0.49196000  1
  C  C76  1  0.40680000  0.34744000  0.91536000  1
  C  C77  1  0.33040000  0.84744000  0.41536000  1
  C  C78  1  0.97053000  0.62299000  0.62975000  1
  C  C79  1  0.77673000  0.12299000  0.12975000  1
  C  C80  1  0.69551000  0.21784000  0.99294000  1
  C  C81  1  0.09371000  0.71784000  0.49294000  1
  C  C82  1  0.96733000  0.49196000  0.71718000  1
  C  C83  1  0.82353000  0.99196000  0.21718000  1
  C  C84  1  0.74188000  0.08147000  0.07697000  1
  C  C85  1  0.09968000  0.58147000  0.57697000  1
  C  C86  1  0.09886000  0.45263000  0.66885000  1
  C  C87  1  0.77966000  0.95263000  0.16885000  1
  C  C88  1  0.16835000  0.49601000  0.60049000  1
  C  C89  1  0.73515000  0.99601000  0.10049000  1
  C  C90  1  0.67784000  0.41536000  0.65256000  1
  C  C91  1  0.25424000  0.91536000  0.15256000  1
  C  C92  1  0.31558000  0.45073000  0.56271000  1
  C  C93  1  0.67098000  0.95073000  0.06271000  1
  C  C94  1  0.80388000  0.42165000  0.58159000  1
  C  C95  1  0.19288000  0.92165000  0.08159000  1
  H  H96  1  0.12020000  0.60380000  0.39600000  1
  H  H97  1  0.88000000  0.10380000  0.89600000  1
  H  H98  1  0.20600000  0.51580000  0.43180000  1
  H  H99  1  0.84640000  0.01580000  0.93180000  1
  H  H100  1  0.85630000  0.60580000  0.31760000  1
  H  H101  1  0.22030000  0.10580000  0.81760000  1
  H  H102  1  0.31140000  0.76070000  0.06530000  1
  H  H103  1  0.86260000  0.26070000  0.56530000  1
  H  H104  1  0.62330000  0.56530000  0.23930000  1
  H  H105  1  0.57210000  0.06530000  0.73930000  1
  H  H106  1  0.88080000  0.76170000  0.03950000  1
  H  H107  1  0.31800000  0.26170000  0.53950000  1
  H  H108  1  0.03790000  0.68240000  0.10580000  1
  H  H109  1  0.17390000  0.18240000  0.60580000  1
  H  H110  1  0.22370000  0.77490000  0.00290000  1
  H  H111  1  0.07970000  0.53950000  0.23830000  1
  H  H112  1  0.99850000  0.27490000  0.50290000  1
  H  H113  1  0.14250000  0.03950000  0.73830000  1
  H  H114  1  0.77340000  0.50290000  0.22510000  1
  H  H115  1  0.49860000  0.00290000  0.72510000  1
  H  H116  1  0.77600000  0.60400000  0.10380000  1
  H  H117  1  0.51620000  0.10400000  0.60380000  1
  H  H118  1  0.22670000  0.81770000  0.88150000  1
  H  H119  1  0.07410000  0.31770000  0.38150000  1
  H  H120  1  0.77820000  0.56820000  0.01580000  1
  H  H121  1  0.63780000  0.06820000  0.51580000  1
  H  H122  1  0.54610000  0.30170000  0.27730000  1
  H  H123  1  0.87490000  0.80170000  0.77730000  1
  H  H124  1  0.89180000  0.38150000  0.18230000  1
  H  H125  1  0.54440000  0.88150000  0.68230000  1
  H  H126  1  0.65220000  0.72270000  0.80170000  1
  H  H127  1  0.82340000  0.22270000  0.30170000  1
  H  H128  1  0.34780000  0.27730000  0.19830000  1
  H  H129  1  0.17660000  0.77730000  0.69830000  1
  H  H130  1  0.10820000  0.61850000  0.81770000  1
  H  H131  1  0.45560000  0.11850000  0.31770000  1
  H  H132  1  0.45390000  0.69830000  0.72270000  1
  H  H133  1  0.12510000  0.19830000  0.22270000  1
  H  H134  1  0.22180000  0.43180000  0.98420000  1
  H  H135  1  0.36220000  0.93180000  0.48420000  1
  H  H136  1  0.77330000  0.18230000  0.11850000  1
  H  H137  1  0.92590000  0.68230000  0.61850000  1
  H  H138  1  0.22400000  0.39600000  0.89620000  1
  H  H139  1  0.48380000  0.89600000  0.39620000  1
  H  H140  1  0.22660000  0.49710000  0.77490000  1
  H  H141  1  0.50140000  0.99710000  0.27490000  1
  H  H142  1  0.92030000  0.46050000  0.76170000  1
  H  H143  1  0.77630000  0.22510000  0.99710000  1
  H  H144  1  0.85750000  0.96050000  0.26170000  1
  H  H145  1  0.00150000  0.72510000  0.49710000  1
  H  H146  1  0.96210000  0.31760000  0.89420000  1
  H  H147  1  0.82610000  0.81760000  0.39420000  1
  H  H148  1  0.11920000  0.23830000  0.96050000  1
  H  H149  1  0.68200000  0.73830000  0.46050000  1
  H  H150  1  0.37670000  0.43470000  0.76070000  1
  H  H151  1  0.42790000  0.93470000  0.26070000  1
  H  H152  1  0.68860000  0.23930000  0.93470000  1
  H  H153  1  0.13740000  0.73930000  0.43470000  1
  H  H154  1  0.14370000  0.39420000  0.68240000  1
  H  H155  1  0.77970000  0.89420000  0.18240000  1
  H  H156  1  0.79400000  0.48420000  0.56820000  1
  H  H157  1  0.15360000  0.98420000  0.06820000  1
  H  H158  1  0.87980000  0.39620000  0.60400000  1
  H  H159  1  0.12000000  0.89620000  0.10400000  1
  N  N160  1  0.29085000  0.87550000  0.99940000  1
  N  N161  1  0.83425000  0.37550000  0.49940000  1
  N  N162  1  0.70975000  0.49940000  0.12450000  1
  N  N163  1  0.66635000  0.99940000  0.62450000  1
  N  N164  1  0.29025000  0.50060000  0.87550000  1
  N  N165  1  0.33365000  0.00060000  0.37550000  1
  N  N166  1  0.70915000  0.12450000  0.00060000  1
  N  N167  1  0.16575000  0.62450000  0.50060000  1
  O  O168  1  0.62169000  0.98736000  0.00220000  1
  O  O169  1  0.38875000  0.48736000  0.50220000  1
  O  O170  1  0.39605000  0.61631000  0.36623000  1
  O  O171  1  0.62141000  0.11631000  0.86623000  1
  O  O172  1  0.66088000  0.87799000  0.09297000  1
  O  O173  1  0.36816000  0.37799000  0.59297000  1
  O  O174  1  0.34343000  0.55622000  0.27452000  1
  O  O175  1  0.82583000  0.05622000  0.77452000  1
  O  O176  1  0.60035000  0.72548000  0.05622000  1
  O  O177  1  0.61795000  0.22548000  0.55622000  1
  O  O178  1  0.65862000  0.41786000  0.34338000  1
  O  O179  1  0.58014000  0.91786000  0.84338000  1
  O  O180  1  0.48764000  0.63377000  0.11631000  1
  O  O181  1  0.76228000  0.13377000  0.61631000  1
  O  O182  1  0.77760000  0.80199000  0.91905000  1
  O  O183  1  0.50136000  0.30199000  0.41905000  1
  O  O184  1  0.24615000  0.59297000  0.12201000  1
  O  O185  1  0.03887000  0.09297000  0.62201000  1
  O  O186  1  0.52078000  0.75911000  0.90299000  1
  O  O187  1  0.81712000  0.25911000  0.40299000  1
  O  O188  1  0.57623000  0.40299000  0.24089000  1
  O  O189  1  0.77989000  0.90299000  0.74089000  1
  O  O190  1  0.30335000  0.41905000  0.19801000  1
  O  O191  1  0.07959000  0.91905000  0.69801000  1
  O  O192  1  0.42352000  0.65662000  0.91786000  1
  O  O193  1  0.00200000  0.15662000  0.41786000  1
  O  O194  1  0.93519000  0.76097000  0.79229000  1
  O  O195  1  0.51155000  0.26097000  0.29229000  1
  O  O196  1  0.27252000  0.29229000  0.23903000  1
  O  O197  1  0.19616000  0.79229000  0.73903000  1
  O  O198  1  0.37611000  0.50220000  0.01264000  1
  O  O199  1  0.10905000  0.00220000  0.51264000  1
  O  O200  1  0.62389000  0.49780000  0.98736000  1
  O  O201  1  0.89095000  0.99780000  0.48736000  1
  O  O202  1  0.72748000  0.70771000  0.76097000  1
  O  O203  1  0.80384000  0.20771000  0.26097000  1
  O  O204  1  0.06481000  0.23903000  0.20771000  1
  O  O205  1  0.48845000  0.73903000  0.70771000  1
  O  O206  1  0.57648000  0.34338000  0.08214000  1
  O  O207  1  0.99800000  0.84338000  0.58214000  1
  O  O208  1  0.69665000  0.58095000  0.80199000  1
  O  O209  1  0.92041000  0.08095000  0.30199000  1
  O  O210  1  0.42377000  0.59701000  0.75911000  1
  O  O211  1  0.22011000  0.09701000  0.25911000  1
  O  O212  1  0.47922000  0.24089000  0.09701000  1
  O  O213  1  0.18288000  0.74089000  0.59701000  1
  O  O214  1  0.75385000  0.40703000  0.87799000  1
  O  O215  1  0.96113000  0.90703000  0.37799000  1
  O  O216  1  0.22240000  0.19801000  0.08095000  1
  O  O217  1  0.49864000  0.69801000  0.58095000  1
  O  O218  1  0.51236000  0.36623000  0.88369000  1
  O  O219  1  0.23772000  0.86623000  0.38369000  1
  O  O220  1  0.34138000  0.58214000  0.65662000  1
  O  O221  1  0.41986000  0.08214000  0.15662000  1
  O  O222  1  0.39965000  0.27452000  0.94378000  1
  O  O223  1  0.38205000  0.77452000  0.44378000  1
  O  O224  1  0.65657000  0.44378000  0.72548000  1
  O  O225  1  0.17417000  0.94378000  0.22548000  1
  O  O226  1  0.33912000  0.12201000  0.90703000  1
  O  O227  1  0.63184000  0.62201000  0.40703000  1
  O  O228  1  0.60395000  0.38369000  0.63377000  1
  O  O229  1  0.37859000  0.88369000  0.13377000  1
  O  O230  1  0.37831000  0.01264000  0.99780000  1
  O  O231  1  0.61125000  0.51264000  0.49780000  1
  Sm  Sm232  1  0.54166000  0.86394000  0.99158000  1
  Sm  Sm233  1  0.60282000  0.36394000  0.49158000  1
  Sm  Sm234  1  0.46676000  0.49158000  0.13606000  1
  Sm  Sm235  1  0.90560000  0.99158000  0.63606000  1
  Sm  Sm236  1  0.53324000  0.50842000  0.86394000  1
  Sm  Sm237  1  0.09440000  0.00842000  0.36394000  1
  Sm  Sm238  1  0.45834000  0.13606000  0.00842000  1
  Sm  Sm239  1  0.39718000  0.63606000  0.50842000  1
