# generated using pymatgen
data_CrH5C8O5
_symmetry_space_group_name_H-M   'P 1'
_cell_length_a   6.81200000
_cell_length_b   11.13989928
_cell_length_c   11.13989928
_cell_angle_alpha   71.63336468
_cell_angle_beta   72.19683937
_cell_angle_gamma   72.19683937
_symmetry_Int_Tables_number   1
_chemical_formula_structural   CrH5C8O5
_chemical_formula_sum   'Cr2 H10 C16 O10'
_cell_volume   743.07393347
_cell_formula_units_Z   2
loop_
 _symmetry_equiv_pos_site_id
 _symmetry_equiv_pos_as_xyz
  1  'x, y, z'
loop_
 _atom_site_type_symbol
 _atom_site_label
 _atom_site_symmetry_multiplicity
 _atom_site_fract_x
 _atom_site_fract_y
 _atom_site_fract_z
 _atom_site_occupancy
  C  C0  1  0.05400000  0.48500000  0.40700000  1
  C  C1  1  0.12500000  0.48700000  0.26300000  1
  C  C2  1  0.37500000  0.23700000  0.01300000  1
  C  C3  1  0.44600000  0.09300000  0.01500000  1
  C  C4  1  0.55400000  0.90700000  0.98500000  1
  C  C5  1  0.62500000  0.76300000  0.98700000  1
  C  C6  1  0.87500000  0.51300000  0.73700000  1
  C  C7  1  0.94600000  0.51500000  0.59300000  1
  C  C8  1  0.84400000  0.47800000  0.44200000  1
  C  C9  1  0.26400000  0.05800000  0.02200000  1
  C  C10  1  0.34400000  0.94200000  0.97800000  1
  C  C11  1  0.76400000  0.52200000  0.55800000  1
  C  C12  1  0.73600000  0.94200000  0.97800000  1
  C  C13  1  0.15600000  0.52200000  0.55800000  1
  C  C14  1  0.23600000  0.47800000  0.44200000  1
  C  C15  1  0.65600000  0.05800000  0.02200000  1
  Cr  Cr16  1  1.00000000  0.50000000  0.00000000  1
  Cr  Cr17  1  0.50000000  0.50000000  1.00000000  1
  H  H18  1  0.25000000  0.64070000  0.85930000  1
  H  H19  1  0.75000000  0.35930000  0.14070000  1
  H  H20  1  0.91438000  0.90237000  0.94811000  1
  H  H21  1  0.26486000  0.55189000  0.59763000  1
  H  H22  1  0.41438000  0.44811000  0.40237000  1
  H  H23  1  0.76486000  0.09763000  0.05189000  1
  H  H24  1  0.73514000  0.44811000  0.40237000  1
  H  H25  1  0.08562000  0.09763000  0.05189000  1
  H  H26  1  0.23514000  0.90237000  0.94811000  1
  H  H27  1  0.58562000  0.55189000  0.59763000  1
  O  O28  1  0.25000000  0.56400000  0.93600000  1
  O  O29  1  0.75000000  0.43600000  0.06400000  1
  O  O30  1  0.01000000  0.49100000  0.17700000  1
  O  O31  1  0.17800000  0.32300000  0.00900000  1
  O  O32  1  0.51000000  0.67700000  0.99100000  1
  O  O33  1  0.67800000  0.50900000  0.82300000  1
  O  O34  1  0.82200000  0.67700000  0.99100000  1
  O  O35  1  0.99000000  0.50900000  0.82300000  1
  O  O36  1  0.32200000  0.49100000  0.17700000  1
  O  O37  1  0.49000000  0.32300000  0.00900000  1
