# generated using pymatgen
data_Cu2H5C6N3O5
_symmetry_space_group_name_H-M   'P 1'
_cell_length_a   8.10500000
_cell_length_b   16.96900000
_cell_length_c   17.66600000
_cell_angle_alpha   90.00000000
_cell_angle_beta   102.49500000
_cell_angle_gamma   90.00000000
_symmetry_Int_Tables_number   1
_chemical_formula_structural   Cu2H5C6N3O5
_chemical_formula_sum   'Cu16 H40 C48 N24 O40'
_cell_volume   2372.12411419
_cell_formula_units_Z   8
loop_
 _symmetry_equiv_pos_site_id
 _symmetry_equiv_pos_as_xyz
  1  'x, y, z'
loop_
 _atom_site_type_symbol
 _atom_site_label
 _atom_site_symmetry_multiplicity
 _atom_site_fract_x
 _atom_site_fract_y
 _atom_site_fract_z
 _atom_site_occupancy
  Cu  Cu0  1  0.00577000  0.70429000  0.28783000  1
  Cu  Cu1  1  0.00577000  0.79571000  0.78783000  1
  Cu  Cu2  1  0.20535000  0.60267000  0.17002000  1
  Cu  Cu3  1  0.20535000  0.89733000  0.67002000  1
  Cu  Cu4  1  0.40762000  0.58083000  0.79756000  1
  Cu  Cu5  1  0.40762000  0.91917000  0.29756000  1
  Cu  Cu6  1  0.46442000  0.16737000  0.52707000  1
  Cu  Cu7  1  0.46442000  0.33263000  0.02707000  1
  Cu  Cu8  1  0.53558000  0.66737000  0.97293000  1
  Cu  Cu9  1  0.53558000  0.83263000  0.47293000  1
  Cu  Cu10  1  0.59238000  0.08083000  0.70244000  1
  Cu  Cu11  1  0.59238000  0.41917000  0.20244000  1
  Cu  Cu12  1  0.79465000  0.10267000  0.32998000  1
  Cu  Cu13  1  0.79465000  0.39733000  0.82998000  1
  Cu  Cu14  1  0.99423000  0.20429000  0.21217000  1
  Cu  Cu15  1  0.99423000  0.29571000  0.71217000  1
  H  H16  1  0.03210000  0.53920000  0.92330000  1
  H  H17  1  0.03210000  0.96080000  0.42330000  1
  H  H18  1  0.07390000  0.13670000  0.48610000  1
  H  H19  1  0.07390000  0.36330000  0.98610000  1
  H  H20  1  0.08730000  0.61910000  0.88850000  1
  H  H21  1  0.08730000  0.88090000  0.38850000  1
  H  H22  1  0.16540000  0.23090000  0.07610000  1
  H  H23  1  0.16540000  0.26910000  0.57610000  1
  H  H24  1  0.28160000  0.15450000  0.77270000  1
  H  H25  1  0.28160000  0.34550000  0.27270000  1
  H  H26  1  0.29810000  0.54230000  0.35810000  1
  H  H27  1  0.29810000  0.95770000  0.85810000  1
  H  H28  1  0.30890000  0.00090000  0.44290000  1
  H  H29  1  0.30890000  0.49910000  0.94290000  1
  H  H30  1  0.35000000  0.22280000  0.34710000  1
  H  H31  1  0.35000000  0.27720000  0.84710000  1
  H  H32  1  0.44780000  0.68140000  0.31340000  1
  H  H33  1  0.44780000  0.81860000  0.81340000  1
  H  H34  1  0.48840000  0.56910000  0.39330000  1
  H  H35  1  0.48840000  0.93090000  0.89330000  1
  H  H36  1  0.51160000  0.06910000  0.10670000  1
  H  H37  1  0.51160000  0.43090000  0.60670000  1
  H  H38  1  0.55220000  0.18140000  0.18660000  1
  H  H39  1  0.55220000  0.31860000  0.68660000  1
  H  H40  1  0.65000000  0.72280000  0.15290000  1
  H  H41  1  0.65000000  0.77720000  0.65290000  1
  H  H42  1  0.69110000  0.50090000  0.05710000  1
  H  H43  1  0.69110000  0.99910000  0.55710000  1
  H  H44  1  0.70190000  0.04230000  0.14190000  1
  H  H45  1  0.70190000  0.45770000  0.64190000  1
  H  H46  1  0.71840000  0.65450000  0.72730000  1
  H  H47  1  0.71840000  0.84550000  0.22730000  1
  H  H48  1  0.83460000  0.73090000  0.42390000  1
  H  H49  1  0.83460000  0.76910000  0.92390000  1
  H  H50  1  0.91270000  0.11910000  0.61150000  1
  H  H51  1  0.91270000  0.38090000  0.11150000  1
  H  H52  1  0.92610000  0.63670000  0.01390000  1
  H  H53  1  0.92610000  0.86330000  0.51390000  1
  H  H54  1  0.96790000  0.03920000  0.57670000  1
  H  H55  1  0.96790000  0.46080000  0.07670000  1
  C  C56  1  0.07960000  0.52480000  0.81370000  1
  C  C57  1  0.07960000  0.97520000  0.31370000  1
  C  C58  1  0.10850000  0.15570000  0.44140000  1
  C  C59  1  0.10850000  0.34430000  0.94140000  1
  C  C60  1  0.11350000  0.56220000  0.89500000  1
  C  C61  1  0.11350000  0.93780000  0.39500000  1
  C  C62  1  0.21760000  0.23410000  0.61610000  1
  C  C63  1  0.21760000  0.26590000  0.11610000  1
  C  C64  1  0.25790000  0.20210000  0.36620000  1
  C  C65  1  0.25790000  0.29790000  0.86620000  1
  C  C66  1  0.27110000  0.55530000  0.94120000  1
  C  C67  1  0.27110000  0.94470000  0.44120000  1
  C  C68  1  0.27990000  0.17250000  0.72170000  1
  C  C69  1  0.27990000  0.32750000  0.22170000  1
  C  C70  1  0.28840000  0.58720000  0.02370000  1
  C  C71  1  0.28840000  0.91280000  0.52370000  1
  C  C72  1  0.30470000  0.69780000  0.39740000  1
  C  C73  1  0.30470000  0.80220000  0.89740000  1
  C  C74  1  0.34820000  0.65430000  0.32680000  1
  C  C75  1  0.34820000  0.84570000  0.82680000  1
  C  C76  1  0.39650000  0.57040000  0.34620000  1
  C  C77  1  0.39650000  0.92960000  0.84620000  1
  C  C78  1  0.45410000  0.52760000  0.28200000  1
  C  C79  1  0.45410000  0.97240000  0.78200000  1
  C  C80  1  0.54590000  0.02760000  0.21800000  1
  C  C81  1  0.54590000  0.47240000  0.71800000  1
  C  C82  1  0.60350000  0.07040000  0.15380000  1
  C  C83  1  0.60350000  0.42960000  0.65380000  1
  C  C84  1  0.65180000  0.15430000  0.17320000  1
  C  C85  1  0.65180000  0.34570000  0.67320000  1
  C  C86  1  0.69530000  0.19780000  0.10260000  1
  C  C87  1  0.69530000  0.30220000  0.60260000  1
  C  C88  1  0.71160000  0.08720000  0.47630000  1
  C  C89  1  0.71160000  0.41280000  0.97630000  1
  C  C90  1  0.72010000  0.67250000  0.77830000  1
  C  C91  1  0.72010000  0.82750000  0.27830000  1
  C  C92  1  0.72890000  0.05530000  0.55880000  1
  C  C93  1  0.72890000  0.44470000  0.05880000  1
  C  C94  1  0.74210000  0.70210000  0.13380000  1
  C  C95  1  0.74210000  0.79790000  0.63380000  1
  C  C96  1  0.78240000  0.73410000  0.88390000  1
  C  C97  1  0.78240000  0.76590000  0.38390000  1
  C  C98  1  0.88650000  0.06220000  0.60500000  1
  C  C99  1  0.88650000  0.43780000  0.10500000  1
  C  C100  1  0.89150000  0.65570000  0.05860000  1
  C  C101  1  0.89150000  0.84430000  0.55860000  1
  C  C102  1  0.92040000  0.02480000  0.68630000  1
  C  C103  1  0.92040000  0.47520000  0.18630000  1
  N  N104  1  0.01030000  0.15830000  0.37090000  1
  N  N105  1  0.01030000  0.34170000  0.87090000  1
  N  N106  1  0.10500000  0.18760000  0.32220000  1
  N  N107  1  0.10500000  0.31240000  0.82220000  1
  N  N108  1  0.17220000  0.22800000  0.68540000  1
  N  N109  1  0.17220000  0.27200000  0.18540000  1
  N  N110  1  0.26520000  0.18370000  0.44110000  1
  N  N111  1  0.26520000  0.31630000  0.94110000  1
  N  N112  1  0.34200000  0.18610000  0.61020000  1
  N  N113  1  0.34200000  0.31390000  0.11020000  1
  N  N114  1  0.38200000  0.14600000  0.67940000  1
  N  N115  1  0.38200000  0.35400000  0.17940000  1
  N  N116  1  0.61800000  0.64600000  0.82060000  1
  N  N117  1  0.61800000  0.85400000  0.32060000  1
  N  N118  1  0.65800000  0.68610000  0.88980000  1
  N  N119  1  0.65800000  0.81390000  0.38980000  1
  N  N120  1  0.73480000  0.68370000  0.05890000  1
  N  N121  1  0.73480000  0.81630000  0.55890000  1
  N  N122  1  0.82780000  0.72800000  0.81460000  1
  N  N123  1  0.82780000  0.77200000  0.31460000  1
  N  N124  1  0.89500000  0.68760000  0.17780000  1
  N  N125  1  0.89500000  0.81240000  0.67780000  1
  N  N126  1  0.98970000  0.65830000  0.12910000  1
  N  N127  1  0.98970000  0.84170000  0.62910000  1
  O  O128  1  0.06270000  0.00440000  0.71430000  1
  O  O129  1  0.06270000  0.49560000  0.21430000  1
  O  O130  1  0.15570000  0.72340000  0.38970000  1
  O  O131  1  0.15570000  0.77660000  0.88970000  1
  O  O132  1  0.19470000  0.55780000  0.06560000  1
  O  O133  1  0.19470000  0.94220000  0.56560000  1
  O  O134  1  0.19790000  0.52080000  0.77730000  1
  O  O135  1  0.19790000  0.97920000  0.27730000  1
  O  O136  1  0.20990000  0.66230000  0.26260000  1
  O  O137  1  0.20990000  0.83770000  0.76260000  1
  O  O138  1  0.38240000  0.60590000  0.90110000  1
  O  O139  1  0.38240000  0.89410000  0.40110000  1
  O  O140  1  0.40120000  0.63780000  0.04720000  1
  O  O141  1  0.40120000  0.86220000  0.54720000  1
  O  O142  1  0.41760000  0.55120000  0.21180000  1
  O  O143  1  0.41760000  0.94880000  0.71180000  1
  O  O144  1  0.41870000  0.70650000  0.45670000  1
  O  O145  1  0.41870000  0.79350000  0.95670000  1
  O  O146  1  0.46300000  0.53630000  0.70060000  1
  O  O147  1  0.46300000  0.96370000  0.20060000  1
  O  O148  1  0.53700000  0.03630000  0.79940000  1
  O  O149  1  0.53700000  0.46370000  0.29940000  1
  O  O150  1  0.58130000  0.20650000  0.04330000  1
  O  O151  1  0.58130000  0.29350000  0.54330000  1
  O  O152  1  0.58240000  0.05120000  0.28820000  1
  O  O153  1  0.58240000  0.44880000  0.78820000  1
  O  O154  1  0.59880000  0.13780000  0.45280000  1
  O  O155  1  0.59880000  0.36220000  0.95280000  1
  O  O156  1  0.61760000  0.10590000  0.59890000  1
  O  O157  1  0.61760000  0.39410000  0.09890000  1
  O  O158  1  0.79010000  0.16230000  0.23740000  1
  O  O159  1  0.79010000  0.33770000  0.73740000  1
  O  O160  1  0.80210000  0.02080000  0.72270000  1
  O  O161  1  0.80210000  0.47920000  0.22270000  1
  O  O162  1  0.80530000  0.05780000  0.43440000  1
  O  O163  1  0.80530000  0.44220000  0.93440000  1
  O  O164  1  0.84430000  0.22340000  0.11030000  1
  O  O165  1  0.84430000  0.27660000  0.61030000  1
  O  O166  1  0.93730000  0.50440000  0.78570000  1
  O  O167  1  0.93730000  0.99560000  0.28570000  1
