# generated using pymatgen
data_Co2H18C24N4O9
_symmetry_space_group_name_H-M   'P 1'
_cell_length_a   10.53440000
_cell_length_b   11.90730000
_cell_length_c   14.04610000
_cell_angle_alpha   106.64500000
_cell_angle_beta   101.97700000
_cell_angle_gamma   112.07800000
_symmetry_Int_Tables_number   1
_chemical_formula_structural   Co2H18C24N4O9
_chemical_formula_sum   'Co4 H36 C48 N8 O18'
_cell_volume   1462.39612094
_cell_formula_units_Z   2
loop_
 _symmetry_equiv_pos_site_id
 _symmetry_equiv_pos_as_xyz
  1  'x, y, z'
loop_
 _atom_site_type_symbol
 _atom_site_label
 _atom_site_symmetry_multiplicity
 _atom_site_fract_x
 _atom_site_fract_y
 _atom_site_fract_z
 _atom_site_occupancy
  Co  Co0  1  0.19149000  0.99136000  0.21280000  1
  Co  Co1  1  0.44871000  0.72920000  0.68837000  1
  Co  Co2  1  0.55129000  0.27080000  0.31163000  1
  Co  Co3  1  0.80851000  0.00864000  0.78720000  1
  H  H4  1  0.00630000  0.48160000  0.81170000  1
  H  H5  1  0.00670000  0.22620000  0.13840000  1
  H  H6  1  0.01730000  0.68750000  0.13320000  1
  H  H7  1  0.04730000  0.10720000  0.98980000  1
  H  H8  1  0.05940000  0.30740000  0.32320000  1
  H  H9  1  0.07680000  0.04380000  0.70750000  1
  H  H10  1  0.11790000  0.67460000  0.61070000  1
  H  H11  1  0.13820000  0.56960000  0.36120000  1
  H  H12  1  0.13880000  0.27690000  0.68490000  1
  H  H13  1  0.15420000  0.14940000  0.53010000  1
  H  H14  1  0.25510000  0.50400000  0.74640000  1
  H  H15  1  0.30560000  0.95570000  0.41440000  1
  H  H16  1  0.32320000  0.10590000  0.77610000  1
  H  H17  1  0.38580000  0.48770000  0.50360000  1
  H  H18  1  0.40710000  0.83420000  0.89960000  1
  H  H19  1  0.43600000  0.02500000  0.21000000  1
  H  H20  1  0.43960000  0.18060000  0.96110000  1
  H  H21  1  0.47600000  0.04500000  0.31100000  1
  H  H22  1  0.52400000  0.95500000  0.68900000  1
  H  H23  1  0.56040000  0.81940000  0.03890000  1
  H  H24  1  0.56400000  0.97500000  0.79000000  1
  H  H25  1  0.59290000  0.16580000  0.10040000  1
  H  H26  1  0.61420000  0.51230000  0.49640000  1
  H  H27  1  0.67680000  0.89410000  0.22390000  1
  H  H28  1  0.69440000  0.04430000  0.58560000  1
  H  H29  1  0.74490000  0.49600000  0.25360000  1
  H  H30  1  0.84580000  0.85060000  0.46990000  1
  H  H31  1  0.86120000  0.72310000  0.31510000  1
  H  H32  1  0.86180000  0.43040000  0.63880000  1
  H  H33  1  0.88210000  0.32540000  0.38930000  1
  H  H34  1  0.92320000  0.95620000  0.29250000  1
  H  H35  1  0.94060000  0.69260000  0.67680000  1
  H  H36  1  0.95270000  0.89280000  0.01020000  1
  H  H37  1  0.98270000  0.31250000  0.86680000  1
  H  H38  1  0.99330000  0.77380000  0.86160000  1
  H  H39  1  0.99370000  0.51840000  0.18830000  1
  C  C40  1  0.03540000  0.71990000  0.72430000  1
  C  C41  1  0.05980000  0.60760000  0.23560000  1
  C  C42  1  0.06650000  0.76900000  0.83330000  1
  C  C43  1  0.07400000  0.70900000  0.20400000  1
  C  C44  1  0.10540000  0.10890000  0.94630000  1
  C  C45  1  0.12180000  0.07120000  0.78180000  1
  C  C46  1  0.14200000  0.71090000  0.68550000  1
  C  C47  1  0.14390000  0.63810000  0.33780000  1
  C  C48  1  0.19110000  0.31840000  0.64680000  1
  C  C49  1  0.19960000  0.24320000  0.55560000  1
  C  C50  1  0.20760000  0.81080000  0.89990000  1
  C  C51  1  0.23710000  0.77000000  0.40610000  1
  C  C52  1  0.24280000  0.86550000  0.36790000  1
  C  C53  1  0.25260000  0.14970000  0.99440000  1
  C  C54  1  0.25690000  0.86930000  0.01960000  1
  C  C55  1  0.25890000  0.45360000  0.68200000  1
  C  C56  1  0.26880000  0.10880000  0.82210000  1
  C  C57  1  0.27580000  0.30760000  0.50190000  1
  C  C58  1  0.29960000  0.23330000  0.40610000  1
  C  C59  1  0.30920000  0.18300000  0.11180000  1
  C  C60  1  0.30970000  0.80220000  0.85400000  1
  C  C61  1  0.33310000  0.80940000  0.51870000  1
  C  C62  1  0.33620000  0.44360000  0.54160000  1
  C  C63  1  0.33750000  0.15130000  0.93110000  1
  C  C64  1  0.66250000  0.84870000  0.06890000  1
  C  C65  1  0.66380000  0.55640000  0.45840000  1
  C  C66  1  0.66690000  0.19060000  0.48130000  1
  C  C67  1  0.69030000  0.19780000  0.14600000  1
  C  C68  1  0.69080000  0.81700000  0.88820000  1
  C  C69  1  0.70040000  0.76670000  0.59390000  1
  C  C70  1  0.72420000  0.69240000  0.49810000  1
  C  C71  1  0.73120000  0.89120000  0.17790000  1
  C  C72  1  0.74110000  0.54640000  0.31800000  1
  C  C73  1  0.74310000  0.13070000  0.98040000  1
  C  C74  1  0.74740000  0.85030000  0.00560000  1
  C  C75  1  0.75720000  0.13450000  0.63210000  1
  C  C76  1  0.76290000  0.23000000  0.59390000  1
  C  C77  1  0.79240000  0.18920000  0.10010000  1
  C  C78  1  0.80040000  0.75680000  0.44440000  1
  C  C79  1  0.80890000  0.68160000  0.35320000  1
  C  C80  1  0.85610000  0.36190000  0.66220000  1
  C  C81  1  0.85800000  0.28910000  0.31450000  1
  C  C82  1  0.87820000  0.92880000  0.21820000  1
  C  C83  1  0.89460000  0.89110000  0.05370000  1
  C  C84  1  0.92600000  0.29100000  0.79600000  1
  C  C85  1  0.93350000  0.23100000  0.16670000  1
  C  C86  1  0.94020000  0.39240000  0.76440000  1
  C  C87  1  0.96460000  0.28010000  0.27570000  1
  N  N88  1  0.03950000  0.07140000  0.84190000  1
  N  N89  1  0.16400000  0.83760000  0.26790000  1
  N  N90  1  0.27860000  0.75110000  0.74840000  1
  N  N91  1  0.32930000  0.51770000  0.63100000  1
  N  N92  1  0.67070000  0.48230000  0.36900000  1
  N  N93  1  0.72140000  0.24890000  0.25160000  1
  N  N94  1  0.83600000  0.16240000  0.73210000  1
  N  N95  1  0.96050000  0.92860000  0.15810000  1
  O  O96  1  0.16100000  0.86640000  0.05980000  1
  O  O97  1  0.21520000  0.11120000  0.36020000  1
  O  O98  1  0.21590000  0.13580000  0.15080000  1
  O  O99  1  0.33350000  0.71570000  0.54350000  1
  O  O100  1  0.39180000  0.91950000  0.06920000  1
  O  O101  1  0.40120000  0.30050000  0.38180000  1
  O  O102  1  0.40270000  0.92950000  0.57630000  1
  O  O103  1  0.42520000  0.06020000  0.25840000  1
  O  O104  1  0.44660000  0.25410000  0.16230000  1
  O  O105  1  0.55340000  0.74590000  0.83770000  1
  O  O106  1  0.57480000  0.93980000  0.74160000  1
  O  O107  1  0.59730000  0.07050000  0.42370000  1
  O  O108  1  0.59880000  0.69950000  0.61820000  1
  O  O109  1  0.60820000  0.08050000  0.93080000  1
  O  O110  1  0.66650000  0.28430000  0.45650000  1
  O  O111  1  0.78410000  0.86420000  0.84920000  1
  O  O112  1  0.78480000  0.88880000  0.63980000  1
  O  O113  1  0.83900000  0.13360000  0.94020000  1
