# generated using pymatgen
data_Cu3H32C48(N3O4)2
_symmetry_space_group_name_H-M   'P 1'
_cell_length_a   13.39520000
_cell_length_b   14.85713494
_cell_length_c   14.85713494
_cell_angle_alpha   100.02549358
_cell_angle_beta   104.65506027
_cell_angle_gamma   104.65506027
_symmetry_Int_Tables_number   1
_chemical_formula_structural   Cu3H32C48(N3O4)2
_chemical_formula_sum   'Cu6 H64 C96 N12 O16'
_cell_volume   2676.48526980
_cell_formula_units_Z   2
loop_
 _symmetry_equiv_pos_site_id
 _symmetry_equiv_pos_as_xyz
  1  'x, y, z'
loop_
 _atom_site_type_symbol
 _atom_site_label
 _atom_site_symmetry_multiplicity
 _atom_site_fract_x
 _atom_site_fract_y
 _atom_site_fract_z
 _atom_site_occupancy
  C  C0  1  0.38890000  0.86525000  0.13255000  1
  C  C1  1  0.88890000  0.13255000  0.86525000  1
  C  C2  1  0.49150000  0.52978000  0.46682000  1
  C  C3  1  0.99150000  0.46682000  0.52978000  1
  C  C4  1  0.08590000  0.90300000  0.05440000  1
  C  C5  1  0.58590000  0.05440000  0.90300000  1
  C  C6  1  0.72120000  0.55790000  0.36630000  1
  C  C7  1  0.22120000  0.36630000  0.55790000  1
  C  C8  1  0.22050000  0.47088000  0.44832000  1
  C  C9  1  0.72050000  0.44832000  0.47088000  1
  C  C10  1  0.45280000  0.49652000  0.37208000  1
  C  C11  1  0.95280000  0.37208000  0.49652000  1
  C  C12  1  0.44780000  0.55932000  0.30508000  1
  C  C13  1  0.94780000  0.30508000  0.55932000  1
  C  C14  1  0.99010000  0.85880000  0.98380000  1
  C  C15  1  0.49010000  0.98380000  0.85880000  1
  C  C16  1  0.69010000  0.46162000  0.37818000  1
  C  C17  1  0.19010000  0.37818000  0.46162000  1
  C  C18  1  0.94860000  0.74517000  0.07503000  1
  C  C19  1  0.44860000  0.07503000  0.74517000  1
  C  C20  1  0.21320000  0.62644000  0.16256000  1
  C  C21  1  0.71320000  0.16256000  0.62644000  1
  C  C22  1  0.91650000  0.77740000  0.99200000  1
  C  C23  1  0.41650000  0.99200000  0.77740000  1
  C  C24  1  0.87890000  0.66380000  0.08980000  1
  C  C25  1  0.37890000  0.08980000  0.66380000  1
  C  C26  1  0.85420000  0.56040000  0.18660000  1
  C  C27  1  0.35420000  0.18660000  0.56040000  1
  C  C28  1  0.13870000  0.41715000  0.28465000  1
  C  C29  1  0.63870000  0.28465000  0.41715000  1
  C  C30  1  0.62860000  0.37970000  0.30330000  1
  C  C31  1  0.12860000  0.30330000  0.37970000  1
  C  C32  1  0.13260000  0.58726000  0.06554000  1
  C  C33  1  0.63260000  0.06554000  0.58726000  1
  C  C34  1  0.81340000  0.72430000  0.92370000  1
  C  C35  1  0.31340000  0.92370000  0.72430000  1
  C  C36  1  0.77740000  0.61290000  0.02050000  1
  C  C37  1  0.27740000  0.02050000  0.61290000  1
  C  C38  1  0.75270000  0.50530000  0.12130000  1
  C  C39  1  0.25270000  0.12130000  0.50530000  1
  C  C40  1  0.10400000  0.32310000  0.29290000  1
  C  C41  1  0.60400000  0.29290000  0.32310000  1
  C  C42  1  0.74740000  0.64780000  0.93640000  1
  C  C43  1  0.24740000  0.93640000  0.64780000  1
  C  C44  1  0.71440000  0.53230000  0.04010000  1
  C  C45  1  0.21440000  0.04010000  0.53230000  1
  C  C46  1  0.03900000  0.52039000  0.04701000  1
  C  C47  1  0.53900000  0.04701000  0.52039000  1
  C  C48  1  0.96100000  0.47961000  0.95299000  1
  C  C49  1  0.46100000  0.95299000  0.47961000  1
  C  C50  1  0.28560000  0.46770000  0.95990000  1
  C  C51  1  0.78560000  0.95990000  0.46770000  1
  C  C52  1  0.25260000  0.35220000  0.06360000  1
  C  C53  1  0.75260000  0.06360000  0.35220000  1
  C  C54  1  0.89600000  0.67690000  0.70710000  1
  C  C55  1  0.39600000  0.70710000  0.67690000  1
  C  C56  1  0.24730000  0.49470000  0.87870000  1
  C  C57  1  0.74730000  0.87870000  0.49470000  1
  C  C58  1  0.22260000  0.38710000  0.97950000  1
  C  C59  1  0.72260000  0.97950000  0.38710000  1
  C  C60  1  0.18660000  0.27570000  0.07630000  1
  C  C61  1  0.68660000  0.07630000  0.27570000  1
  C  C62  1  0.86740000  0.41274000  0.93446000  1
  C  C63  1  0.36740000  0.93446000  0.41274000  1
  C  C64  1  0.37140000  0.62030000  0.69670000  1
  C  C65  1  0.87140000  0.69670000  0.62030000  1
  C  C66  1  0.86130000  0.58285000  0.71535000  1
  C  C67  1  0.36130000  0.71535000  0.58285000  1
  C  C68  1  0.14580000  0.43960000  0.81340000  1
  C  C69  1  0.64580000  0.81340000  0.43960000  1
  C  C70  1  0.12110000  0.33620000  0.91020000  1
  C  C71  1  0.62110000  0.91020000  0.33620000  1
  C  C72  1  0.08350000  0.22260000  0.00800000  1
  C  C73  1  0.58350000  0.00800000  0.22260000  1
  C  C74  1  0.78680000  0.37356000  0.83744000  1
  C  C75  1  0.28680000  0.83744000  0.37356000  1
  C  C76  1  0.05140000  0.25483000  0.92497000  1
  C  C77  1  0.55140000  0.92497000  0.25483000  1
  C  C78  1  0.30990000  0.53838000  0.62182000  1
  C  C79  1  0.80990000  0.62182000  0.53838000  1
  C  C80  1  0.00990000  0.14120000  0.01620000  1
  C  C81  1  0.50990000  0.01620000  0.14120000  1
  C  C82  1  0.55220000  0.44068000  0.69492000  1
  C  C83  1  0.05220000  0.69492000  0.44068000  1
  C  C84  1  0.54720000  0.50348000  0.62792000  1
  C  C85  1  0.04720000  0.62792000  0.50348000  1
  C  C86  1  0.77950000  0.52912000  0.55168000  1
  C  C87  1  0.27950000  0.55168000  0.52912000  1
  C  C88  1  0.27880000  0.44210000  0.63370000  1
  C  C89  1  0.77880000  0.63370000  0.44210000  1
  C  C90  1  0.91410000  0.09700000  0.94560000  1
  C  C91  1  0.41410000  0.94560000  0.09700000  1
  C  C92  1  0.50850000  0.47022000  0.53318000  1
  C  C93  1  0.00850000  0.53318000  0.47022000  1
  C  C94  1  0.61110000  0.13475000  0.86745000  1
  C  C95  1  0.11110000  0.86745000  0.13475000  1
  Cu  Cu96  1  0.25000000  0.63126000  0.36874000  1
  Cu  Cu97  1  0.75000000  0.36874000  0.63126000  1
  Cu  Cu98  1  0.05696000  0.73250000  0.25920000  1
  Cu  Cu99  1  0.55696000  0.25920000  0.73250000  1
  Cu  Cu100  1  0.94304000  0.26750000  0.74080000  1
  Cu  Cu101  1  0.44304000  0.74080000  0.26750000  1
  H  H102  1  0.36470000  0.95110000  0.04230000  1
  H  H103  1  0.86470000  0.04230000  0.95110000  1
  H  H104  1  0.32250000  0.81630000  0.10030000  1
  H  H105  1  0.82250000  0.10030000  0.81630000  1
  H  H106  1  0.99080000  0.50730000  0.40370000  1
  H  H107  1  0.49080000  0.40370000  0.50730000  1
  H  H108  1  0.70100000  0.56810000  0.30450000  1
  H  H109  1  0.20100000  0.30450000  0.56810000  1
  H  H110  1  0.97310000  0.88270000  0.92930000  1
  H  H111  1  0.47310000  0.92930000  0.88270000  1
  H  H112  1  0.87980000  0.54150000  0.24310000  1
  H  H113  1  0.37980000  0.24310000  0.54150000  1
  H  H114  1  0.42710000  0.42950000  0.34610000  1
  H  H115  1  0.92710000  0.34610000  0.42950000  1
  H  H116  1  0.12130000  0.42910000  0.22350000  1
  H  H117  1  0.62130000  0.22350000  0.42910000  1
  H  H118  1  0.14900000  0.61120000  0.01460000  1
  H  H119  1  0.64900000  0.01460000  0.61120000  1
  H  H120  1  0.60470000  0.38500000  0.24000000  1
  H  H121  1  0.10470000  0.24000000  0.38500000  1
  H  H122  1  0.79110000  0.74430000  0.86730000  1
  H  H123  1  0.29110000  0.86730000  0.74430000  1
  H  H124  1  0.02230000  0.49790000  0.09850000  1
  H  H125  1  0.52230000  0.09850000  0.49790000  1
  H  H126  1  0.71140000  0.45010000  0.13350000  1
  H  H127  1  0.21140000  0.13350000  0.45010000  1
  H  H128  1  0.06320000  0.27290000  0.23750000  1
  H  H129  1  0.56320000  0.23750000  0.27290000  1
  H  H130  1  0.35470000  0.50310000  0.00330000  1
  H  H131  1  0.85470000  0.00330000  0.50310000  1
  H  H132  1  0.67960000  0.61570000  0.88950000  1
  H  H133  1  0.17960000  0.88950000  0.61570000  1
  H  H134  1  0.32040000  0.38430000  0.11050000  1
  H  H135  1  0.82040000  0.11050000  0.38430000  1
  H  H136  1  0.64530000  0.49690000  0.99670000  1
  H  H137  1  0.14530000  0.99670000  0.49690000  1
  H  H138  1  0.93680000  0.72710000  0.76250000  1
  H  H139  1  0.43680000  0.76250000  0.72710000  1
  H  H140  1  0.28860000  0.54990000  0.86650000  1
  H  H141  1  0.78860000  0.86650000  0.54990000  1
  H  H142  1  0.97770000  0.50210000  0.90150000  1
  H  H143  1  0.47770000  0.90150000  0.50210000  1
  H  H144  1  0.20890000  0.25570000  0.13270000  1
  H  H145  1  0.70890000  0.13270000  0.25570000  1
  H  H146  1  0.39530000  0.61500000  0.76000000  1
  H  H147  1  0.89530000  0.76000000  0.61500000  1
  H  H148  1  0.85100000  0.38880000  0.98540000  1
  H  H149  1  0.35100000  0.98540000  0.38880000  1
  H  H150  1  0.87870000  0.57090000  0.77650000  1
  H  H151  1  0.37870000  0.77650000  0.57090000  1
  H  H152  1  0.57290000  0.57050000  0.65390000  1
  H  H153  1  0.07290000  0.65390000  0.57050000  1
  H  H154  1  0.12020000  0.45850000  0.75690000  1
  H  H155  1  0.62020000  0.75690000  0.45850000  1
  H  H156  1  0.02690000  0.11730000  0.07070000  1
  H  H157  1  0.52690000  0.07070000  0.11730000  1
  H  H158  1  0.29900000  0.43190000  0.69550000  1
  H  H159  1  0.79900000  0.69550000  0.43190000  1
  H  H160  1  0.00920000  0.49270000  0.59630000  1
  H  H161  1  0.50920000  0.59630000  0.49270000  1
  H  H162  1  0.67750000  0.18370000  0.89970000  1
  H  H163  1  0.17750000  0.89970000  0.18370000  1
  H  H164  1  0.63530000  0.04890000  0.95770000  1
  H  H165  1  0.13530000  0.95770000  0.04890000  1
  N  N166  1  0.04490000  0.78985000  0.14495000  1
  N  N167  1  0.54490000  0.14495000  0.78985000  1
  N  N168  1  0.19550000  0.49030000  0.36098000  1
  N  N169  1  0.69550000  0.36098000  0.49030000  1
  N  N170  1  0.91590000  0.63801000  0.17227000  1
  N  N171  1  0.41590000  0.17227000  0.63801000  1
  N  N172  1  0.08410000  0.36199000  0.82773000  1
  N  N173  1  0.58410000  0.82773000  0.36199000  1
  N  N174  1  0.80450000  0.50970000  0.63902000  1
  N  N175  1  0.30450000  0.63902000  0.50970000  1
  N  N176  1  0.95510000  0.21015000  0.85505000  1
  N  N177  1  0.45510000  0.85505000  0.21015000  1
  O  O178  1  0.43480000  0.64064000  0.33652000  1
  O  O179  1  0.93480000  0.33652000  0.64064000  1
  O  O180  1  0.30630000  0.67473000  0.16715000  1
  O  O181  1  0.80630000  0.16715000  0.67473000  1
  O  O182  1  0.18150000  0.60864000  0.23202000  1
  O  O183  1  0.68150000  0.23202000  0.60864000  1
  O  O184  1  0.45930000  0.53226000  0.22664000  1
  O  O185  1  0.95930000  0.22664000  0.53226000  1
  O  O186  1  0.54070000  0.46774000  0.77336000  1
  O  O187  1  0.04070000  0.77336000  0.46774000  1
  O  O188  1  0.81850000  0.39136000  0.76798000  1
  O  O189  1  0.31850000  0.76798000  0.39136000  1
  O  O190  1  0.69370000  0.32527000  0.83285000  1
  O  O191  1  0.19370000  0.83285000  0.32527000  1
  O  O192  1  0.56520000  0.35936000  0.66348000  1
  O  O193  1  0.06520000  0.66348000  0.35936000  1
