# generated using pymatgen
data_ZnH8C19(NO3)2
_symmetry_space_group_name_H-M   'P 1'
_cell_length_a   5.63640000
_cell_length_b   18.88630000
_cell_length_c   25.30100000
_cell_angle_alpha   90.00000000
_cell_angle_beta   90.00000000
_cell_angle_gamma   95.47000000
_symmetry_Int_Tables_number   1
_chemical_formula_structural   ZnH8C19(NO3)2
_chemical_formula_sum   'Zn4 H32 C76 N8 O24'
_cell_volume   2681.04553573
_cell_formula_units_Z   4
loop_
 _symmetry_equiv_pos_site_id
 _symmetry_equiv_pos_as_xyz
  1  'x, y, z'
loop_
 _atom_site_type_symbol
 _atom_site_label
 _atom_site_symmetry_multiplicity
 _atom_site_fract_x
 _atom_site_fract_y
 _atom_site_fract_z
 _atom_site_occupancy
  Zn  Zn0  1  0.10300000  0.06025000  0.96668000  1
  Zn  Zn1  1  0.10300000  0.56025000  0.53332000  1
  Zn  Zn2  1  0.89700000  0.43975000  0.46668000  1
  Zn  Zn3  1  0.89700000  0.93975000  0.03332000  1
  H  H4  1  0.01300000  0.25460000  0.84170000  1
  H  H5  1  0.01300000  0.75460000  0.65830000  1
  H  H6  1  0.02950000  0.20740000  0.06750000  1
  H  H7  1  0.02950000  0.70740000  0.43250000  1
  H  H8  1  0.05840000  0.31550000  0.41570000  1
  H  H9  1  0.05840000  0.81550000  0.08430000  1
  H  H10  1  0.06710000  0.27610000  0.14420000  1
  H  H11  1  0.06710000  0.77610000  0.35580000  1
  H  H12  1  0.07280000  0.03440000  0.16520000  1
  H  H13  1  0.07280000  0.53440000  0.33480000  1
  H  H14  1  0.12700000  0.10080000  0.24310000  1
  H  H15  1  0.12700000  0.60080000  0.25690000  1
  H  H16  1  0.39080000  0.34530000  0.31580000  1
  H  H17  1  0.39080000  0.84530000  0.18420000  1
  H  H18  1  0.47530000  0.41060000  0.39260000  1
  H  H19  1  0.47530000  0.91060000  0.10740000  1
  H  H20  1  0.52470000  0.08940000  0.89260000  1
  H  H21  1  0.52470000  0.58940000  0.60740000  1
  H  H22  1  0.60920000  0.15470000  0.81580000  1
  H  H23  1  0.60920000  0.65470000  0.68420000  1
  H  H24  1  0.87300000  0.39920000  0.74310000  1
  H  H25  1  0.87300000  0.89920000  0.75690000  1
  H  H26  1  0.92720000  0.46560000  0.66520000  1
  H  H27  1  0.92720000  0.96560000  0.83480000  1
  H  H28  1  0.93290000  0.22390000  0.64420000  1
  H  H29  1  0.93290000  0.72390000  0.85580000  1
  H  H30  1  0.94160000  0.18450000  0.91570000  1
  H  H31  1  0.94160000  0.68450000  0.58430000  1
  H  H32  1  0.97050000  0.29260000  0.56750000  1
  H  H33  1  0.97050000  0.79260000  0.93250000  1
  H  H34  1  0.98700000  0.24540000  0.34170000  1
  H  H35  1  0.98700000  0.74540000  0.15830000  1
  C  C36  1  0.05890000  0.26090000  0.64129000  1
  C  C37  1  0.05890000  0.76090000  0.85871000  1
  C  C38  1  0.07880000  0.17870000  0.89490000  1
  C  C39  1  0.07880000  0.67870000  0.60510000  1
  C  C40  1  0.08150000  0.30200000  0.59549000  1
  C  C41  1  0.08150000  0.80200000  0.90451000  1
  C  C42  1  0.11700000  0.21980000  0.85091000  1
  C  C43  1  0.11700000  0.71980000  0.64909000  1
  C  C44  1  0.17940000  0.23280000  0.73119000  1
  C  C45  1  0.17940000  0.73280000  0.76881000  1
  C  C46  1  0.20340000  0.07000000  0.16790000  1
  C  C47  1  0.20340000  0.57000000  0.33210000  1
  C  C48  1  0.21530000  0.27320000  0.68183000  1
  C  C49  1  0.21530000  0.77320000  0.81817000  1
  C  C50  1  0.22560000  0.40710000  0.54539000  1
  C  C51  1  0.22560000  0.90710000  0.95461000  1
  C  C52  1  0.23470000  0.10950000  0.21441000  1
  C  C53  1  0.23470000  0.60950000  0.28559000  1
  C  C54  1  0.26150000  0.35600000  0.59002000  1
  C  C55  1  0.26150000  0.85600000  0.90998000  1
  C  C56  1  0.27520000  0.04480000  0.07517000  1
  C  C57  1  0.27520000  0.54480000  0.42483000  1
  C  C58  1  0.31270000  0.20890000  0.82024000  1
  C  C59  1  0.31270000  0.70890000  0.67976000  1
  C  C60  1  0.35730000  0.08130000  0.12572000  1
  C  C61  1  0.35730000  0.58130000  0.37428000  1
  C  C62  1  0.41130000  0.32660000  0.67678000  1
  C  C63  1  0.41130000  0.82660000  0.82322000  1
  C  C64  1  0.41870000  0.12260000  0.88139000  1
  C  C65  1  0.41870000  0.62260000  0.61861000  1
  C  C66  1  0.42390000  0.16110000  0.21830000  1
  C  C67  1  0.42390000  0.66110000  0.28170000  1
  C  C68  1  0.43880000  0.36780000  0.62974000  1
  C  C69  1  0.43880000  0.86780000  0.87026000  1
  C  C70  1  0.45090000  0.20220000  0.26791000  1
  C  C71  1  0.45090000  0.70220000  0.23209000  1
  C  C72  1  0.47010000  0.16100000  0.83587000  1
  C  C73  1  0.47010000  0.66100000  0.66413000  1
  C  C74  1  0.52990000  0.33900000  0.33587000  1
  C  C75  1  0.52990000  0.83900000  0.16413000  1
  C  C76  1  0.54910000  0.29780000  0.76791000  1
  C  C77  1  0.54910000  0.79780000  0.73209000  1
  C  C78  1  0.56120000  0.13220000  0.12974000  1
  C  C79  1  0.56120000  0.63220000  0.37026000  1
  C  C80  1  0.57610000  0.33890000  0.71830000  1
  C  C81  1  0.57610000  0.83890000  0.78170000  1
  C  C82  1  0.58130000  0.37740000  0.38139000  1
  C  C83  1  0.58130000  0.87740000  0.11861000  1
  C  C84  1  0.58870000  0.17340000  0.17678000  1
  C  C85  1  0.58870000  0.67340000  0.32322000  1
  C  C86  1  0.64270000  0.41870000  0.62572000  1
  C  C87  1  0.64270000  0.91870000  0.87428000  1
  C  C88  1  0.68730000  0.29110000  0.32024000  1
  C  C89  1  0.68730000  0.79110000  0.17976000  1
  C  C90  1  0.72480000  0.45520000  0.57517000  1
  C  C91  1  0.72480000  0.95520000  0.92483000  1
  C  C92  1  0.73850000  0.14400000  0.09002000  1
  C  C93  1  0.73850000  0.64400000  0.40998000  1
  C  C94  1  0.76530000  0.39050000  0.71441000  1
  C  C95  1  0.76530000  0.89050000  0.78559000  1
  C  C96  1  0.77440000  0.09290000  0.04539000  1
  C  C97  1  0.77440000  0.59290000  0.45461000  1
  C  C98  1  0.78470000  0.22680000  0.18183000  1
  C  C99  1  0.78470000  0.72680000  0.31817000  1
  C  C100  1  0.79660000  0.43000000  0.66790000  1
  C  C101  1  0.79660000  0.93000000  0.83210000  1
  C  C102  1  0.82060000  0.26720000  0.23119000  1
  C  C103  1  0.82060000  0.76720000  0.26881000  1
  C  C104  1  0.88300000  0.28020000  0.35091000  1
  C  C105  1  0.88300000  0.78020000  0.14909000  1
  C  C106  1  0.91850000  0.19800000  0.09549000  1
  C  C107  1  0.91850000  0.69800000  0.40451000  1
  C  C108  1  0.92120000  0.32130000  0.39490000  1
  C  C109  1  0.92120000  0.82130000  0.10510000  1
  C  C110  1  0.94110000  0.23910000  0.14129000  1
  C  C111  1  0.94110000  0.73910000  0.35871000  1
  N  N112  1  0.22410000  0.13055000  0.91048000  1
  N  N113  1  0.22410000  0.63055000  0.58952000  1
  N  N114  1  0.34880000  0.24710000  0.77097000  1
  N  N115  1  0.34880000  0.74710000  0.72903000  1
  N  N116  1  0.65120000  0.25290000  0.27097000  1
  N  N117  1  0.65120000  0.75290000  0.22903000  1
  N  N118  1  0.77590000  0.36945000  0.41048000  1
  N  N119  1  0.77590000  0.86945000  0.08952000  1
  O  O120  1  0.01260000  0.18810000  0.73812000  1
  O  O121  1  0.01260000  0.68810000  0.76188000  1
  O  O122  1  0.14510000  0.38170000  0.50285000  1
  O  O123  1  0.14510000  0.88170000  0.99715000  1
  O  O124  1  0.17860000  0.48232000  0.42084000  1
  O  O125  1  0.17860000  0.98232000  0.07916000  1
  O  O126  1  0.25880000  0.47230000  0.55707000  1
  O  O127  1  0.25880000  0.97230000  0.94293000  1
  O  O128  1  0.29020000  0.08200000  0.03365000  1
  O  O129  1  0.29020000  0.58200000  0.46635000  1
  O  O130  1  0.31540000  0.19422000  0.30517000  1
  O  O131  1  0.31540000  0.69422000  0.19483000  1
  O  O132  1  0.68460000  0.30578000  0.80517000  1
  O  O133  1  0.68460000  0.80578000  0.69483000  1
  O  O134  1  0.70980000  0.41800000  0.53365000  1
  O  O135  1  0.70980000  0.91800000  0.96635000  1
  O  O136  1  0.74120000  0.02770000  0.05707000  1
  O  O137  1  0.74120000  0.52770000  0.44293000  1
  O  O138  1  0.82140000  0.01768000  0.92084000  1
  O  O139  1  0.82140000  0.51768000  0.57916000  1
  O  O140  1  0.85490000  0.11830000  0.00285000  1
  O  O141  1  0.85490000  0.61830000  0.49715000  1
  O  O142  1  0.98740000  0.31190000  0.23812000  1
  O  O143  1  0.98740000  0.81190000  0.26188000  1
