# generated using pymatgen
data_MnZn2H36C72(N2O3)4
_symmetry_space_group_name_H-M   'P 1'
_cell_length_a   13.89599988
_cell_length_b   13.89599988
_cell_length_c   16.24000000
_cell_angle_alpha   65.60388168
_cell_angle_beta   65.60388168
_cell_angle_gamma   74.93817965
_symmetry_Int_Tables_number   1
_chemical_formula_structural   MnZn2H36C72(N2O3)4
_chemical_formula_sum   'Mn1 Zn2 H36 C72 N8 O12'
_cell_volume   2585.81752669
_cell_formula_units_Z   1
loop_
 _symmetry_equiv_pos_site_id
 _symmetry_equiv_pos_as_xyz
  1  'x, y, z'
loop_
 _atom_site_type_symbol
 _atom_site_label
 _atom_site_symmetry_multiplicity
 _atom_site_fract_x
 _atom_site_fract_y
 _atom_site_fract_z
 _atom_site_occupancy
  C  C0  1  0.25800000  0.74860000  0.03830000  1
  C  C1  1  0.74860000  0.25800000  0.03830000  1
  C  C2  1  0.33620000  0.67420000  0.06470000  1
  C  C3  1  0.67420000  0.33620000  0.06470000  1
  C  C4  1  0.37510000  0.66470000  0.13340000  1
  C  C5  1  0.66470000  0.37510000  0.13340000  1
  C  C6  1  0.31410000  0.72690000  0.19820000  1
  C  C7  1  0.72690000  0.31410000  0.19820000  1
  C  C8  1  0.13030000  0.91530000  0.37750000  1
  C  C9  1  0.91530000  0.13030000  0.37750000  1
  C  C10  1  0.45880000  0.59140000  0.15680000  1
  C  C11  1  0.59140000  0.45880000  0.15680000  1
  C  C12  1  0.19880000  0.85180000  0.31330000  1
  C  C13  1  0.85180000  0.19880000  0.31330000  1
  C  C14  1  0.39110000  0.67270000  0.50580000  1
  C  C15  1  0.67270000  0.39110000  0.50580000  1
  C  C16  1  0.53230000  0.53230000  0.50380000  1
  C  C17  1  0.30000000  0.77400000  0.72850000  1
  C  C18  1  0.77400000  0.30000000  0.72850000  1
  C  C19  1  0.24080000  0.83380000  0.67080000  1
  C  C20  1  0.83380000  0.24080000  0.67080000  1
  C  C21  1  0.50070000  0.57650000  0.22800000  1
  C  C22  1  0.57650000  0.50070000  0.22800000  1
  C  C23  1  0.48500000  0.62780000  0.51290000  1
  C  C24  1  0.62780000  0.48500000  0.51290000  1
  C  C25  1  0.28380000  0.88080000  0.24170000  1
  C  C26  1  0.88080000  0.28380000  0.24170000  1
  C  C27  1  0.34730000  0.82050000  0.18290000  1
  C  C28  1  0.82050000  0.34730000  0.18290000  1
  C  C29  1  0.54550000  0.69530000  0.52650000  1
  C  C30  1  0.69530000  0.54550000  0.52650000  1
  C  C31  1  0.16410000  0.16410000  0.53620000  1
  C  C32  1  0.69920000  0.69920000  0.62900000  1
  C  C33  1  0.70390000  0.70390000  0.54680000  1
  C  C34  1  0.23020000  0.23020000  0.53730000  1
  C  C35  1  0.23320000  0.23320000  0.37220000  1
  C  C36  1  0.76680000  0.76680000  0.62780000  1
  C  C37  1  0.76980000  0.76980000  0.46270000  1
  C  C38  1  0.29610000  0.29610000  0.45320000  1
  C  C39  1  0.30080000  0.30080000  0.37100000  1
  C  C40  1  0.83590000  0.83590000  0.46380000  1
  C  C41  1  0.45450000  0.30470000  0.47350000  1
  C  C42  1  0.30470000  0.45450000  0.47350000  1
  C  C43  1  0.65270000  0.17950000  0.81710000  1
  C  C44  1  0.17950000  0.65270000  0.81710000  1
  C  C45  1  0.71620000  0.11920000  0.75830000  1
  C  C46  1  0.11920000  0.71620000  0.75830000  1
  C  C47  1  0.51500000  0.37220000  0.48710000  1
  C  C48  1  0.37220000  0.51500000  0.48710000  1
  C  C49  1  0.49930000  0.42350000  0.77200000  1
  C  C50  1  0.42350000  0.49930000  0.77200000  1
  C  C51  1  0.75920000  0.16620000  0.32920000  1
  C  C52  1  0.16620000  0.75920000  0.32920000  1
  C  C53  1  0.70000000  0.22600000  0.27150000  1
  C  C54  1  0.22600000  0.70000000  0.27150000  1
  C  C55  1  0.46770000  0.46770000  0.49620000  1
  C  C56  1  0.60890000  0.32730000  0.49420000  1
  C  C57  1  0.32730000  0.60890000  0.49420000  1
  C  C58  1  0.80120000  0.14820000  0.68670000  1
  C  C59  1  0.14820000  0.80120000  0.68670000  1
  C  C60  1  0.54120000  0.40860000  0.84320000  1
  C  C61  1  0.40860000  0.54120000  0.84320000  1
  C  C62  1  0.86970000  0.08470000  0.62250000  1
  C  C63  1  0.08470000  0.86970000  0.62250000  1
  C  C64  1  0.68590000  0.27310000  0.80180000  1
  C  C65  1  0.27310000  0.68590000  0.80180000  1
  C  C66  1  0.62490000  0.33530000  0.86660000  1
  C  C67  1  0.33530000  0.62490000  0.86660000  1
  C  C68  1  0.66380000  0.32580000  0.93530000  1
  C  C69  1  0.32580000  0.66380000  0.93530000  1
  C  C70  1  0.74200000  0.25140000  0.96170000  1
  C  C71  1  0.25140000  0.74200000  0.96170000  1
  H  H72  1  0.21590000  0.79630000  0.06930000  1
  H  H73  1  0.79630000  0.21590000  0.06930000  1
  H  H74  1  0.47690000  0.61590000  0.26860000  1
  H  H75  1  0.61590000  0.47690000  0.26860000  1
  H  H76  1  0.36540000  0.74080000  0.50780000  1
  H  H77  1  0.74080000  0.36540000  0.50780000  1
  H  H78  1  0.26380000  0.89640000  0.62090000  1
  H  H79  1  0.89640000  0.26380000  0.62090000  1
  H  H80  1  0.36370000  0.79750000  0.71460000  1
  H  H81  1  0.79750000  0.36370000  0.71460000  1
  H  H82  1  0.11960000  0.11960000  0.59250000  1
  H  H83  1  0.30480000  0.94580000  0.22770000  1
  H  H84  1  0.94580000  0.30480000  0.22770000  1
  H  H85  1  0.41080000  0.84320000  0.13430000  1
  H  H86  1  0.84320000  0.41080000  0.13430000  1
  H  H87  1  0.65550000  0.65550000  0.68650000  1
  H  H88  1  0.22770000  0.22770000  0.59620000  1
  H  H89  1  0.23590000  0.23590000  0.31310000  1
  H  H90  1  0.76410000  0.76410000  0.68690000  1
  H  H91  1  0.77230000  0.77230000  0.40380000  1
  H  H92  1  0.34450000  0.34450000  0.31350000  1
  H  H93  1  0.58920000  0.15680000  0.86570000  1
  H  H94  1  0.15680000  0.58920000  0.86570000  1
  H  H95  1  0.69520000  0.05420000  0.77230000  1
  H  H96  1  0.05420000  0.69520000  0.77230000  1
  H  H97  1  0.88040000  0.88040000  0.40750000  1
  H  H98  1  0.63630000  0.20250000  0.28540000  1
  H  H99  1  0.20250000  0.63630000  0.28540000  1
  H  H100  1  0.73620000  0.10360000  0.37910000  1
  H  H101  1  0.10360000  0.73620000  0.37910000  1
  H  H102  1  0.63460000  0.25920000  0.49220000  1
  H  H103  1  0.25920000  0.63460000  0.49220000  1
  H  H104  1  0.52310000  0.38410000  0.73140000  1
  H  H105  1  0.38410000  0.52310000  0.73140000  1
  H  H106  1  0.78410000  0.20370000  0.93070000  1
  H  H107  1  0.20370000  0.78410000  0.93070000  1
  Mn  Mn108  1  0.50000000  0.50000000  1.00000000  1
  N  N109  1  0.38070000  0.61930000  1.00000000  1
  N  N110  1  0.61930000  0.38070000  1.00000000  1
  N  N111  1  0.51790000  0.51790000  0.10860000  1
  N  N112  1  0.64370000  0.64370000  0.53620000  1
  N  N113  1  0.17220000  0.17220000  0.44760000  1
  N  N114  1  0.82780000  0.82780000  0.55240000  1
  N  N115  1  0.35630000  0.35630000  0.46380000  1
  N  N116  1  0.48210000  0.48210000  0.89140000  1
  O  O117  1  0.11850000  0.95310000  0.55890000  1
  O  O118  1  0.95310000  0.11850000  0.55890000  1
  O  O119  1  0.16570000  0.99690000  0.36490000  1
  O  O120  1  0.99690000  0.16570000  0.36490000  1
  O  O121  1  0.51370000  0.78270000  0.52930000  1
  O  O122  1  0.78270000  0.51370000  0.52930000  1
  O  O123  1  0.48630000  0.21730000  0.47070000  1
  O  O124  1  0.21730000  0.48630000  0.47070000  1
  O  O125  1  0.83430000  0.00310000  0.63510000  1
  O  O126  1  0.00310000  0.83430000  0.63510000  1
  O  O127  1  0.88150000  0.04690000  0.44110000  1
  O  O128  1  0.04690000  0.88150000  0.44110000  1
  Zn  Zn129  1  0.07820000  0.07820000  0.45206000  1
  Zn  Zn130  1  0.92180000  0.92180000  0.54794000  1
