# generated using pymatgen
data_FeH8C16(NO2)2
_symmetry_space_group_name_H-M   'P 1'
_cell_length_a   22.06134028
_cell_length_b   22.06110000
_cell_length_c   22.06110000
_cell_angle_alpha   109.47100000
_cell_angle_beta   109.47144127
_cell_angle_gamma   109.47144127
_symmetry_Int_Tables_number   1
_chemical_formula_structural   FeH8C16(NO2)2
_chemical_formula_sum   'Fe12 H96 C192 N24 O48'
_cell_volume   8265.38611916
_cell_formula_units_Z   12
loop_
 _symmetry_equiv_pos_site_id
 _symmetry_equiv_pos_as_xyz
  1  'x, y, z'
loop_
 _atom_site_type_symbol
 _atom_site_label
 _atom_site_symmetry_multiplicity
 _atom_site_fract_x
 _atom_site_fract_y
 _atom_site_fract_z
 _atom_site_occupancy
  Fe  Fe0  1  0.40922000  0.90922000  0.50000000  1
  Fe  Fe1  1  0.50000000  0.09078000  0.59078000  1
  Fe  Fe2  1  0.09078000  0.59078000  0.50000000  1
  Fe  Fe3  1  0.50000000  0.40922000  0.90922000  1
  Fe  Fe4  1  0.40922000  0.50000000  0.90922000  1
  Fe  Fe5  1  0.09078000  0.50000000  0.59078000  1
  Fe  Fe6  1  0.90922000  0.50000000  0.40922000  1
  Fe  Fe7  1  0.59078000  0.50000000  0.09078000  1
  Fe  Fe8  1  0.50000000  0.59078000  0.09078000  1
  Fe  Fe9  1  0.90922000  0.40922000  0.50000000  1
  Fe  Fe10  1  0.50000000  0.90922000  0.40922000  1
  Fe  Fe11  1  0.59078000  0.09078000  0.50000000  1
  H  H12  1  0.32980000  0.52990000  0.41830000  1
  H  H13  1  0.11160000  0.52990000  0.20010000  1
  H  H14  1  0.79990000  0.47010000  0.88840000  1
  H  H15  1  0.58170000  0.47010000  0.67020000  1
  H  H16  1  0.47010000  0.67020000  0.58170000  1
  H  H17  1  0.79990000  0.32980000  0.91150000  1
  H  H18  1  0.08850000  0.67020000  0.20010000  1
  H  H19  1  0.41830000  0.32980000  0.52990000  1
  H  H20  1  0.43980000  0.75240000  0.55280000  1
  H  H21  1  0.19960000  0.75240000  0.31260000  1
  H  H22  1  0.68740000  0.24760000  0.80040000  1
  H  H23  1  0.44720000  0.24760000  0.56020000  1
  H  H24  1  0.24760000  0.56020000  0.44720000  1
  H  H25  1  0.11300000  0.56020000  0.31260000  1
  H  H26  1  0.68740000  0.43980000  0.88700000  1
  H  H27  1  0.55280000  0.43980000  0.75240000  1
  H  H28  1  0.32980000  0.41830000  0.52990000  1
  H  H29  1  0.47010000  0.58170000  0.67020000  1
  H  H30  1  0.88840000  0.41830000  0.08850000  1
  H  H31  1  0.91150000  0.58170000  0.11160000  1
  H  H32  1  0.43980000  0.88700000  0.68740000  1
  H  H33  1  0.55280000  0.11300000  0.80040000  1
  H  H34  1  0.19960000  0.88700000  0.44720000  1
  H  H35  1  0.31260000  0.11300000  0.56020000  1
  H  H36  1  0.43980000  0.55280000  0.75240000  1
  H  H37  1  0.24760000  0.44720000  0.56020000  1
  H  H38  1  0.88700000  0.44720000  0.19960000  1
  H  H39  1  0.80040000  0.55280000  0.11300000  1
  H  H40  1  0.47010000  0.88840000  0.79990000  1
  H  H41  1  0.58170000  0.11160000  0.91150000  1
  H  H42  1  0.08850000  0.88840000  0.41830000  1
  H  H43  1  0.20010000  0.11160000  0.52990000  1
  H  H44  1  0.11160000  0.20010000  0.52990000  1
  H  H45  1  0.47010000  0.79990000  0.88840000  1
  H  H46  1  0.67020000  0.20010000  0.08850000  1
  H  H47  1  0.91150000  0.79990000  0.32980000  1
  H  H48  1  0.24760000  0.80040000  0.68740000  1
  H  H49  1  0.11300000  0.80040000  0.55280000  1
  H  H50  1  0.44720000  0.19960000  0.88700000  1
  H  H51  1  0.31260000  0.19960000  0.75240000  1
  H  H52  1  0.11300000  0.31260000  0.56020000  1
  H  H53  1  0.43980000  0.68740000  0.88700000  1
  H  H54  1  0.75240000  0.31260000  0.19960000  1
  H  H55  1  0.80040000  0.68740000  0.24760000  1
  H  H56  1  0.32980000  0.91150000  0.79990000  1
  H  H57  1  0.41830000  0.08850000  0.88840000  1
  H  H58  1  0.11160000  0.91150000  0.58170000  1
  H  H59  1  0.20010000  0.08850000  0.67020000  1
  H  H60  1  0.79990000  0.91150000  0.32980000  1
  H  H61  1  0.88840000  0.08850000  0.41830000  1
  H  H62  1  0.58170000  0.91150000  0.11160000  1
  H  H63  1  0.67020000  0.08850000  0.20010000  1
  H  H64  1  0.19960000  0.31260000  0.75240000  1
  H  H65  1  0.24760000  0.68740000  0.80040000  1
  H  H66  1  0.56020000  0.31260000  0.11300000  1
  H  H67  1  0.88700000  0.68740000  0.43980000  1
  H  H68  1  0.68740000  0.80040000  0.24760000  1
  H  H69  1  0.55280000  0.80040000  0.11300000  1
  H  H70  1  0.88700000  0.19960000  0.44720000  1
  H  H71  1  0.75240000  0.19960000  0.31260000  1
  H  H72  1  0.08850000  0.20010000  0.67020000  1
  H  H73  1  0.32980000  0.79990000  0.91150000  1
  H  H74  1  0.52990000  0.20010000  0.11160000  1
  H  H75  1  0.88840000  0.79990000  0.47010000  1
  H  H76  1  0.79990000  0.88840000  0.47010000  1
  H  H77  1  0.91150000  0.11160000  0.58170000  1
  H  H78  1  0.41830000  0.88840000  0.08850000  1
  H  H79  1  0.52990000  0.11160000  0.20010000  1
  H  H80  1  0.19960000  0.44720000  0.88700000  1
  H  H81  1  0.11300000  0.55280000  0.80040000  1
  H  H82  1  0.75240000  0.55280000  0.43980000  1
  H  H83  1  0.56020000  0.44720000  0.24760000  1
  H  H84  1  0.68740000  0.88700000  0.43980000  1
  H  H85  1  0.80040000  0.11300000  0.55280000  1
  H  H86  1  0.44720000  0.88700000  0.19960000  1
  H  H87  1  0.56020000  0.11300000  0.31260000  1
  H  H88  1  0.08850000  0.41830000  0.88840000  1
  H  H89  1  0.11160000  0.58170000  0.91150000  1
  H  H90  1  0.52990000  0.41830000  0.32980000  1
  H  H91  1  0.67020000  0.58170000  0.47010000  1
  H  H92  1  0.44720000  0.56020000  0.24760000  1
  H  H93  1  0.31260000  0.56020000  0.11300000  1
  H  H94  1  0.88700000  0.43980000  0.68740000  1
  H  H95  1  0.75240000  0.43980000  0.55280000  1
  H  H96  1  0.55280000  0.75240000  0.43980000  1
  H  H97  1  0.31260000  0.75240000  0.19960000  1
  H  H98  1  0.80040000  0.24760000  0.68740000  1
  H  H99  1  0.56020000  0.24760000  0.44720000  1
  H  H100  1  0.58170000  0.67020000  0.47010000  1
  H  H101  1  0.91150000  0.32980000  0.79990000  1
  H  H102  1  0.20010000  0.67020000  0.08850000  1
  H  H103  1  0.52990000  0.32980000  0.41830000  1
  H  H104  1  0.41830000  0.52990000  0.32980000  1
  H  H105  1  0.20010000  0.52990000  0.11160000  1
  H  H106  1  0.88840000  0.47010000  0.79990000  1
  H  H107  1  0.67020000  0.47010000  0.58170000  1
  C  C108  1  0.55710000  0.62160000  0.55710000  1
  C  C109  1  0.53669000  0.66838000  0.53669000  1
  C  C110  1  0.49710000  0.76440000  0.49710000  1
  C  C111  1  0.47670000  0.80740000  0.47670000  1
  C  C112  1  0.93550000  0.37840000  0.93550000  1
  C  C113  1  0.86831000  0.33162000  0.86831000  1
  C  C114  1  0.33070000  0.80740000  0.33070000  1
  C  C115  1  0.26730000  0.76440000  0.26730000  1
  C  C116  1  0.73270000  0.23560000  0.73270000  1
  C  C117  1  0.66930000  0.19260000  0.66930000  1
  C  C118  1  0.13169000  0.66838000  0.13169000  1
  C  C119  1  0.06450000  0.62160000  0.06450000  1
  C  C120  1  0.52330000  0.19260000  0.52330000  1
  C  C121  1  0.50290000  0.23560000  0.50290000  1
  C  C122  1  0.46331000  0.33162000  0.46331000  1
  C  C123  1  0.44290000  0.37840000  0.44290000  1
  C  C124  1  0.55710000  0.55710000  0.62160000  1
  C  C125  1  0.37840000  0.44290000  0.44290000  1
  C  C126  1  0.00000000  0.44290000  0.06450000  1
  C  C127  1  0.93550000  0.55710000  0.00000000  1
  C  C128  1  0.48970000  0.68940000  0.55570000  1
  C  C129  1  0.80030000  0.31060000  0.86630000  1
  C  C130  1  0.13370000  0.68940000  0.19970000  1
  C  C131  1  0.44430000  0.31060000  0.51030000  1
  C  C132  1  0.47060000  0.73770000  0.53770000  1
  C  C133  1  0.73290000  0.26230000  0.80000000  1
  C  C134  1  0.20000000  0.73770000  0.26710000  1
  C  C135  1  0.46230000  0.26230000  0.52940000  1
  C  C136  1  0.53669000  0.53669000  0.66838000  1
  C  C137  1  0.33162000  0.46331000  0.46331000  1
  C  C138  1  0.00000000  0.46331000  0.13169000  1
  C  C139  1  0.86831000  0.53669000  0.00000000  1
  C  C140  1  0.31060000  0.51030000  0.44430000  1
  C  C141  1  0.06600000  0.51030000  0.19970000  1
  C  C142  1  0.80030000  0.48970000  0.93400000  1
  C  C143  1  0.55570000  0.48970000  0.68940000  1
  C  C144  1  0.47670000  0.00000000  0.66930000  1
  C  C145  1  0.33070000  0.00000000  0.52330000  1
  C  C146  1  0.48970000  0.55570000  0.68940000  1
  C  C147  1  0.31060000  0.44430000  0.51030000  1
  C  C148  1  0.93400000  0.44430000  0.13370000  1
  C  C149  1  0.86630000  0.55570000  0.06600000  1
  C  C150  1  0.26230000  0.52940000  0.46230000  1
  C  C151  1  0.06710000  0.52940000  0.26710000  1
  C  C152  1  0.73290000  0.47060000  0.93290000  1
  C  C153  1  0.53770000  0.47060000  0.73770000  1
  C  C154  1  0.49710000  0.00000000  0.73270000  1
  C  C155  1  0.26730000  0.00000000  0.50290000  1
  C  C156  1  0.47060000  0.93290000  0.73290000  1
  C  C157  1  0.53770000  0.06710000  0.80000000  1
  C  C158  1  0.20000000  0.93290000  0.46230000  1
  C  C159  1  0.26710000  0.06710000  0.52940000  1
  C  C160  1  0.47060000  0.53770000  0.73770000  1
  C  C161  1  0.26230000  0.46230000  0.52940000  1
  C  C162  1  0.93290000  0.46230000  0.20000000  1
  C  C163  1  0.80000000  0.53770000  0.06710000  1
  C  C164  1  0.49710000  0.49710000  0.76440000  1
  C  C165  1  0.23560000  0.50290000  0.50290000  1
  C  C166  1  1.00000000  0.50290000  0.26730000  1
  C  C167  1  0.73270000  0.49710000  0.00000000  1
  C  C168  1  0.48970000  0.93400000  0.80030000  1
  C  C169  1  0.55570000  0.06600000  0.86630000  1
  C  C170  1  0.13370000  0.93400000  0.44430000  1
  C  C171  1  0.19970000  0.06600000  0.51030000  1
  C  C172  1  0.47670000  0.47670000  0.80740000  1
  C  C173  1  0.19260000  0.52330000  0.52330000  1
  C  C174  1  0.00000000  0.52330000  0.33070000  1
  C  C175  1  0.66930000  0.47670000  0.00000000  1
  C  C176  1  0.53669000  0.00000000  0.86831000  1
  C  C177  1  0.13169000  0.00000000  0.46331000  1
  C  C178  1  0.55710000  0.00000000  0.93550000  1
  C  C179  1  0.06450000  0.00000000  0.44290000  1
  C  C180  1  0.93550000  0.93550000  0.37840000  1
  C  C181  1  1.00000000  0.06450000  0.44290000  1
  C  C182  1  0.55710000  0.93550000  0.00000000  1
  C  C183  1  0.62160000  0.06450000  0.06450000  1
  C  C184  1  0.06600000  0.19970000  0.51030000  1
  C  C185  1  0.48970000  0.80030000  0.93400000  1
  C  C186  1  0.68940000  0.19970000  0.13370000  1
  C  C187  1  0.86630000  0.80030000  0.31060000  1
  C  C188  1  0.06710000  0.26710000  0.52940000  1
  C  C189  1  0.47060000  0.73290000  0.93290000  1
  C  C190  1  0.73770000  0.26710000  0.20000000  1
  C  C191  1  0.80000000  0.73290000  0.26230000  1
  C  C192  1  0.86831000  0.86831000  0.33162000  1
  C  C193  1  1.00000000  0.13169000  0.46331000  1
  C  C194  1  0.53669000  0.86831000  0.00000000  1
  C  C195  1  0.66838000  0.13169000  0.13169000  1
  C  C196  1  0.26230000  0.80000000  0.73290000  1
  C  C197  1  0.06710000  0.80000000  0.53770000  1
  C  C198  1  0.46230000  0.20000000  0.93290000  1
  C  C199  1  0.26710000  0.20000000  0.73770000  1
  C  C200  1  0.33070000  0.33070000  0.80740000  1
  C  C201  1  0.19260000  0.66930000  0.66930000  1
  C  C202  1  1.00000000  0.66930000  0.47670000  1
  C  C203  1  0.52330000  0.33070000  0.00000000  1
  C  C204  1  0.31060000  0.86630000  0.80030000  1
  C  C205  1  0.44430000  0.13370000  0.93400000  1
  C  C206  1  0.06600000  0.86630000  0.55570000  1
  C  C207  1  0.19970000  0.13370000  0.68940000  1
  C  C208  1  0.26730000  0.26730000  0.76440000  1
  C  C209  1  0.23560000  0.73270000  0.73270000  1
  C  C210  1  0.00000000  0.73270000  0.49710000  1
  C  C211  1  0.50290000  0.26730000  0.00000000  1
  C  C212  1  0.73270000  0.73270000  0.23560000  1
  C  C213  1  0.49710000  0.73270000  0.00000000  1
  C  C214  1  0.00000000  0.26730000  0.50290000  1
  C  C215  1  0.76440000  0.26730000  0.26730000  1
  C  C216  1  0.80030000  0.86630000  0.31060000  1
  C  C217  1  0.93400000  0.13370000  0.44430000  1
  C  C218  1  0.55570000  0.86630000  0.06600000  1
  C  C219  1  0.68940000  0.13370000  0.19970000  1
  C  C220  1  0.66930000  0.66930000  0.19260000  1
  C  C221  1  0.47670000  0.66930000  0.00000000  1
  C  C222  1  0.00000000  0.33070000  0.52330000  1
  C  C223  1  0.80740000  0.33070000  0.33070000  1
  C  C224  1  0.73290000  0.80000000  0.26230000  1
  C  C225  1  0.53770000  0.80000000  0.06710000  1
  C  C226  1  0.93290000  0.20000000  0.46230000  1
  C  C227  1  0.73770000  0.20000000  0.26710000  1
  C  C228  1  0.13169000  0.13169000  0.66838000  1
  C  C229  1  0.33162000  0.86831000  0.86831000  1
  C  C230  1  0.46331000  0.13169000  0.00000000  1
  C  C231  1  0.00000000  0.86831000  0.53669000  1
  C  C232  1  0.20000000  0.26710000  0.73770000  1
  C  C233  1  0.26230000  0.73290000  0.80000000  1
  C  C234  1  0.52940000  0.26710000  0.06710000  1
  C  C235  1  0.93290000  0.73290000  0.47060000  1
  C  C236  1  0.13370000  0.19970000  0.68940000  1
  C  C237  1  0.31060000  0.80030000  0.86630000  1
  C  C238  1  0.51030000  0.19970000  0.06600000  1
  C  C239  1  0.93400000  0.80030000  0.48970000  1
  C  C240  1  0.06450000  0.06450000  0.62160000  1
  C  C241  1  0.37840000  0.93550000  0.93550000  1
  C  C242  1  0.44290000  0.06450000  0.00000000  1
  C  C243  1  0.00000000  0.93550000  0.55710000  1
  C  C244  1  0.93550000  1.00000000  0.55710000  1
  C  C245  1  0.44290000  0.00000000  0.06450000  1
  C  C246  1  0.86831000  0.00000000  0.53669000  1
  C  C247  1  0.46331000  0.00000000  0.13169000  1
  C  C248  1  0.52330000  0.52330000  0.19260000  1
  C  C249  1  0.33070000  0.52330000  0.00000000  1
  C  C250  1  0.00000000  0.47670000  0.66930000  1
  C  C251  1  0.80740000  0.47670000  0.47670000  1
  C  C252  1  0.80030000  0.93400000  0.48970000  1
  C  C253  1  0.86630000  0.06600000  0.55570000  1
  C  C254  1  0.44430000  0.93400000  0.13370000  1
  C  C255  1  0.51030000  0.06600000  0.19970000  1
  C  C256  1  0.50290000  0.50290000  0.23560000  1
  C  C257  1  0.26730000  0.50290000  0.00000000  1
  C  C258  1  0.00000000  0.49710000  0.73270000  1
  C  C259  1  0.76440000  0.49710000  0.49710000  1
  C  C260  1  0.20000000  0.46230000  0.93290000  1
  C  C261  1  0.06710000  0.53770000  0.80000000  1
  C  C262  1  0.73770000  0.53770000  0.47060000  1
  C  C263  1  0.52940000  0.46230000  0.26230000  1
  C  C264  1  0.73290000  0.93290000  0.47060000  1
  C  C265  1  0.80000000  0.06710000  0.53770000  1
  C  C266  1  0.46230000  0.93290000  0.20000000  1
  C  C267  1  0.52940000  0.06710000  0.26710000  1
  C  C268  1  0.73270000  0.00000000  0.49710000  1
  C  C269  1  0.50290000  0.00000000  0.26730000  1
  C  C270  1  0.46230000  0.52940000  0.26230000  1
  C  C271  1  0.26710000  0.52940000  0.06710000  1
  C  C272  1  0.93290000  0.47060000  0.73290000  1
  C  C273  1  0.73770000  0.47060000  0.53770000  1
  C  C274  1  0.13370000  0.44430000  0.93400000  1
  C  C275  1  0.06600000  0.55570000  0.86630000  1
  C  C276  1  0.68940000  0.55570000  0.48970000  1
  C  C277  1  0.51030000  0.44430000  0.31060000  1
  C  C278  1  0.66930000  0.00000000  0.47670000  1
  C  C279  1  0.52330000  0.00000000  0.33070000  1
  C  C280  1  0.44430000  0.51030000  0.31060000  1
  C  C281  1  0.19970000  0.51030000  0.06600000  1
  C  C282  1  0.93400000  0.48970000  0.80030000  1
  C  C283  1  0.68940000  0.48970000  0.55570000  1
  C  C284  1  0.46331000  0.46331000  0.33162000  1
  C  C285  1  0.13169000  0.46331000  0.00000000  1
  C  C286  1  1.00000000  0.53669000  0.86831000  1
  C  C287  1  0.66838000  0.53669000  0.53669000  1
  C  C288  1  0.53770000  0.73770000  0.47060000  1
  C  C289  1  0.80000000  0.26230000  0.73290000  1
  C  C290  1  0.26710000  0.73770000  0.20000000  1
  C  C291  1  0.52940000  0.26230000  0.46230000  1
  C  C292  1  0.55570000  0.68940000  0.48970000  1
  C  C293  1  0.86630000  0.31060000  0.80030000  1
  C  C294  1  0.19970000  0.68940000  0.13370000  1
  C  C295  1  0.51030000  0.31060000  0.44430000  1
  C  C296  1  0.44290000  0.44290000  0.37840000  1
  C  C297  1  0.06450000  0.44290000  0.00000000  1
  C  C298  1  0.00000000  0.55710000  0.93550000  1
  C  C299  1  0.62160000  0.55710000  0.55710000  1
  N  N300  1  0.39650000  0.46520000  0.39650000  1
  N  N301  1  0.06870000  0.46520000  0.06870000  1
  N  N302  1  0.93130000  0.53480000  0.93130000  1
  N  N303  1  0.60350000  0.53480000  0.60350000  1
  N  N304  1  0.39650000  0.39650000  0.46520000  1
  N  N305  1  0.53480000  0.60350000  0.60350000  1
  N  N306  1  0.93130000  0.39650000  0.00000000  1
  N  N307  1  0.00000000  0.60350000  0.06870000  1
  N  N308  1  0.06870000  0.06870000  0.46520000  1
  N  N309  1  0.53480000  0.93130000  0.93130000  1
  N  N310  1  0.60350000  0.06870000  0.00000000  1
  N  N311  1  0.00000000  0.93130000  0.39650000  1
  N  N312  1  0.93130000  0.00000000  0.39650000  1
  N  N313  1  0.60350000  0.00000000  0.06870000  1
  N  N314  1  0.39650000  0.00000000  0.93130000  1
  N  N315  1  0.06870000  0.00000000  0.60350000  1
  N  N316  1  0.93130000  0.93130000  0.53480000  1
  N  N317  1  0.00000000  0.06870000  0.60350000  1
  N  N318  1  0.39650000  0.93130000  0.00000000  1
  N  N319  1  0.46520000  0.06870000  0.06870000  1
  N  N320  1  0.60350000  0.60350000  0.53480000  1
  N  N321  1  0.00000000  0.39650000  0.93130000  1
  N  N322  1  0.06870000  0.60350000  0.00000000  1
  N  N323  1  0.46520000  0.39650000  0.39650000  1
  O  O324  1  0.42730000  0.82650000  0.49560000  1
  O  O325  1  0.33090000  0.82650000  0.39920000  1
  O  O326  1  0.60080000  0.17350000  0.66910000  1
  O  O327  1  0.50440000  0.17350000  0.57270000  1
  O  O328  1  0.42730000  0.93170000  0.60080000  1
  O  O329  1  0.49560000  0.06830000  0.66910000  1
  O  O330  1  0.33090000  0.93170000  0.50440000  1
  O  O331  1  0.39920000  0.06830000  0.57270000  1
  O  O332  1  0.17350000  0.57270000  0.50440000  1
  O  O333  1  0.06830000  0.57270000  0.39920000  1
  O  O334  1  0.60080000  0.42730000  0.93170000  1
  O  O335  1  0.49560000  0.42730000  0.82650000  1
  O  O336  1  0.42730000  0.49560000  0.82650000  1
  O  O337  1  0.17350000  0.50440000  0.57270000  1
  O  O338  1  0.93170000  0.50440000  0.33090000  1
  O  O339  1  0.66910000  0.49560000  0.06830000  1
  O  O340  1  0.17350000  0.66910000  0.60080000  1
  O  O341  1  0.06830000  0.66910000  0.49560000  1
  O  O342  1  0.50440000  0.33090000  0.93170000  1
  O  O343  1  0.39920000  0.33090000  0.82650000  1
  O  O344  1  0.33090000  0.39920000  0.82650000  1
  O  O345  1  0.17350000  0.60080000  0.66910000  1
  O  O346  1  0.93170000  0.60080000  0.42730000  1
  O  O347  1  0.57270000  0.39920000  0.06830000  1
  O  O348  1  0.42730000  0.60080000  0.93170000  1
  O  O349  1  0.06830000  0.39920000  0.57270000  1
  O  O350  1  0.82650000  0.39920000  0.33090000  1
  O  O351  1  0.66910000  0.60080000  0.17350000  1
  O  O352  1  0.60080000  0.66910000  0.17350000  1
  O  O353  1  0.49560000  0.66910000  0.06830000  1
  O  O354  1  0.93170000  0.33090000  0.50440000  1
  O  O355  1  0.82650000  0.33090000  0.39920000  1
  O  O356  1  0.33090000  0.50440000  0.93170000  1
  O  O357  1  0.06830000  0.49560000  0.66910000  1
  O  O358  1  0.82650000  0.49560000  0.42730000  1
  O  O359  1  0.57270000  0.50440000  0.17350000  1
  O  O360  1  0.50440000  0.57270000  0.17350000  1
  O  O361  1  0.39920000  0.57270000  0.06830000  1
  O  O362  1  0.93170000  0.42730000  0.60080000  1
  O  O363  1  0.82650000  0.42730000  0.49560000  1
  O  O364  1  0.60080000  0.93170000  0.42730000  1
  O  O365  1  0.66910000  0.06830000  0.49560000  1
  O  O366  1  0.50440000  0.93170000  0.33090000  1
  O  O367  1  0.57270000  0.06830000  0.39920000  1
  O  O368  1  0.49560000  0.82650000  0.42730000  1
  O  O369  1  0.39920000  0.82650000  0.33090000  1
  O  O370  1  0.66910000  0.17350000  0.60080000  1
  O  O371  1  0.57270000  0.17350000  0.50440000  1
