# generated using pymatgen
data_Cd3H16(C12N13)2
_symmetry_space_group_name_H-M   'P 1'
_cell_length_a   11.05400000
_cell_length_b   14.66600000
_cell_length_c   22.72300000
_cell_angle_alpha   90.00000000
_cell_angle_beta   90.00000000
_cell_angle_gamma   96.80000000
_symmetry_Int_Tables_number   1
_chemical_formula_structural   Cd3H16(C12N13)2
_chemical_formula_sum   'Cd6 H32 C48 N52'
_cell_volume   3657.89278904
_cell_formula_units_Z   2
loop_
 _symmetry_equiv_pos_site_id
 _symmetry_equiv_pos_as_xyz
  1  'x, y, z'
loop_
 _atom_site_type_symbol
 _atom_site_label
 _atom_site_symmetry_multiplicity
 _atom_site_fract_x
 _atom_site_fract_y
 _atom_site_fract_z
 _atom_site_occupancy
  Cd  Cd0  1  0.00000000  0.00000000  0.00000000  1
  Cd  Cd1  1  0.00000000  0.50000000  0.50000000  1
  Cd  Cd2  1  0.86075000  0.28894000  0.42455000  1
  Cd  Cd3  1  0.86075000  0.78894000  0.07545000  1
  Cd  Cd4  1  0.13925000  0.21106000  0.92455000  1
  Cd  Cd5  1  0.13925000  0.71106000  0.57545000  1
  H  H6  1  0.92330000  0.72570000  0.29800000  1
  H  H7  1  0.92330000  0.22570000  0.20200000  1
  H  H8  1  0.90920000  0.30640000  0.28750000  1
  H  H9  1  0.90920000  0.80640000  0.21250000  1
  H  H10  1  0.83340000  0.99440000  0.29310000  1
  H  H11  1  0.83340000  0.49440000  0.20690000  1
  H  H12  1  0.82080000  0.08180000  0.37570000  1
  H  H13  1  0.82080000  0.58180000  0.12430000  1
  H  H14  1  0.66810000  0.42910000  0.44030000  1
  H  H15  1  0.66810000  0.92910000  0.05970000  1
  H  H16  1  0.61870000  0.31110000  0.89690000  1
  H  H17  1  0.61870000  0.81110000  0.60310000  1
  H  H18  1  0.58540000  0.17320000  0.39500000  1
  H  H19  1  0.58540000  0.67320000  0.10500000  1
  H  H20  1  0.53170000  0.04990000  0.94630000  1
  H  H21  1  0.53170000  0.54990000  0.55370000  1
  H  H22  1  0.46830000  0.45010000  0.44630000  1
  H  H23  1  0.46830000  0.95010000  0.05370000  1
  H  H24  1  0.41460000  0.32680000  0.89500000  1
  H  H25  1  0.41460000  0.82680000  0.60500000  1
  H  H26  1  0.38130000  0.18890000  0.39690000  1
  H  H27  1  0.38130000  0.68890000  0.10310000  1
  H  H28  1  0.33190000  0.07090000  0.94030000  1
  H  H29  1  0.33190000  0.57090000  0.55970000  1
  H  H30  1  0.17920000  0.41820000  0.87570000  1
  H  H31  1  0.17920000  0.91820000  0.62430000  1
  H  H32  1  0.16660000  0.50560000  0.79310000  1
  H  H33  1  0.16660000  0.00560000  0.70690000  1
  H  H34  1  0.09080000  0.19360000  0.78750000  1
  H  H35  1  0.09080000  0.69360000  0.71250000  1
  H  H36  1  0.07670000  0.77430000  0.79800000  1
  H  H37  1  0.07670000  0.27430000  0.70200000  1
  C  C38  1  0.90330000  0.69470000  0.26300000  1
  C  C39  1  0.90330000  0.19470000  0.23700000  1
  C  C40  1  0.89430000  0.24270000  0.28857000  1
  C  C41  1  0.89430000  0.74270000  0.21143000  1
  C  C42  1  0.89280000  0.54684000  0.31598000  1
  C  C43  1  0.89280000  0.04684000  0.18402000  1
  C  C44  1  0.88240000  0.59987000  0.26210000  1
  C  C45  1  0.88240000  0.09987000  0.23790000  1
  C  C46  1  0.85000000  0.05790000  0.29089000  1
  C  C47  1  0.85000000  0.55790000  0.20911000  1
  C  C48  1  0.84260000  0.11100000  0.34032000  1
  C  C49  1  0.84260000  0.61100000  0.15968000  1
  C  C50  1  0.72840000  0.16536000  0.93167000  1
  C  C51  1  0.72840000  0.66536000  0.56833000  1
  C  C52  1  0.60970000  0.37960000  0.43255000  1
  C  C53  1  0.60970000  0.87960000  0.06745000  1
  C  C54  1  0.60020000  0.17960000  0.92398000  1
  C  C55  1  0.60020000  0.67960000  0.57602000  1
  C  C56  1  0.56200000  0.26170000  0.90716000  1
  C  C57  1  0.56200000  0.76170000  0.59284000  1
  C  C58  1  0.56150000  0.22960000  0.40560000  1
  C  C59  1  0.56150000  0.72960000  0.09440000  1
  C  C60  1  0.51010000  0.10720000  0.93596000  1
  C  C61  1  0.51010000  0.60720000  0.56404000  1
  C  C62  1  0.48990000  0.39280000  0.43596000  1
  C  C63  1  0.48990000  0.89280000  0.06404000  1
  C  C64  1  0.43850000  0.27040000  0.90560000  1
  C  C65  1  0.43850000  0.77040000  0.59440000  1
  C  C66  1  0.43800000  0.23830000  0.40716000  1
  C  C67  1  0.43800000  0.73830000  0.09284000  1
  C  C68  1  0.39980000  0.32040000  0.42398000  1
  C  C69  1  0.39980000  0.82040000  0.07602000  1
  C  C70  1  0.39030000  0.12040000  0.93255000  1
  C  C71  1  0.39030000  0.62040000  0.56745000  1
  C  C72  1  0.27160000  0.33464000  0.43167000  1
  C  C73  1  0.27160000  0.83464000  0.06833000  1
  C  C74  1  0.15740000  0.38900000  0.84032000  1
  C  C75  1  0.15740000  0.88900000  0.65968000  1
  C  C76  1  0.15000000  0.44210000  0.79089000  1
  C  C77  1  0.15000000  0.94210000  0.70911000  1
  C  C78  1  0.11760000  0.90013000  0.76210000  1
  C  C79  1  0.11760000  0.40013000  0.73790000  1
  C  C80  1  0.10720000  0.95316000  0.81598000  1
  C  C81  1  0.10720000  0.45316000  0.68402000  1
  C  C82  1  0.10570000  0.25730000  0.78857000  1
  C  C83  1  0.10570000  0.75730000  0.71143000  1
  C  C84  1  0.09670000  0.80530000  0.76300000  1
  C  C85  1  0.09670000  0.30530000  0.73700000  1
  N  N86  1  0.93040000  0.58311000  0.36742000  1
  N  N87  1  0.93040000  0.08311000  0.13258000  1
  N  N88  1  0.92660000  0.51201000  0.40321000  1
  N  N89  1  0.92660000  0.01201000  0.09679000  1
  N  N90  1  0.92020000  0.18243000  0.93192000  1
  N  N91  1  0.92020000  0.68243000  0.56808000  1
  N  N92  1  0.88710000  0.43583000  0.37453000  1
  N  N93  1  0.88710000  0.93583000  0.12547000  1
  N  N94  1  0.88120000  0.10483000  0.95899000  1
  N  N95  1  0.88120000  0.60483000  0.54101000  1
  N  N96  1  0.86580000  0.45622000  0.31901000  1
  N  N97  1  0.86580000  0.95622000  0.18099000  1
  N  N98  1  0.86520000  0.20208000  0.34004000  1
  N  N99  1  0.86520000  0.70208000  0.15996000  1
  N  N100  1  0.85730000  0.87474000  0.99138000  1
  N  N101  1  0.85730000  0.37474000  0.50862000  1
  N  N102  1  0.82460000  0.22294000  0.91404000  1
  N  N103  1  0.82460000  0.72294000  0.58596000  1
  N  N104  1  0.78100000  0.86530000  0.95485000  1
  N  N105  1  0.78100000  0.36530000  0.54515000  1
  N  N106  1  0.76120000  0.09230000  0.95916000  1
  N  N107  1  0.76120000  0.59230000  0.54084000  1
  N  N108  1  0.70690000  0.85660000  0.91990000  1
  N  N109  1  0.70690000  0.35660000  0.58010000  1
  N  N110  1  0.64790000  0.29818000  0.41856000  1
  N  N111  1  0.64790000  0.79818000  0.08144000  1
  N  N112  1  0.35210000  0.20182000  0.91856000  1
  N  N113  1  0.35210000  0.70182000  0.58144000  1
  N  N114  1  0.29310000  0.64340000  0.41990000  1
  N  N115  1  0.29310000  0.14340000  0.08010000  1
  N  N116  1  0.23880000  0.40770000  0.45916000  1
  N  N117  1  0.23880000  0.90770000  0.04084000  1
  N  N118  1  0.21900000  0.63470000  0.45485000  1
  N  N119  1  0.21900000  0.13470000  0.04515000  1
  N  N120  1  0.17540000  0.27706000  0.41404000  1
  N  N121  1  0.17540000  0.77706000  0.08596000  1
  N  N122  1  0.14270000  0.62526000  0.49138000  1
  N  N123  1  0.14270000  0.12526000  0.00862000  1
  N  N124  1  0.13480000  0.29792000  0.84004000  1
  N  N125  1  0.13480000  0.79792000  0.65996000  1
  N  N126  1  0.13420000  0.04378000  0.81901000  1
  N  N127  1  0.13420000  0.54378000  0.68099000  1
  N  N128  1  0.11880000  0.39517000  0.45899000  1
  N  N129  1  0.11880000  0.89517000  0.04101000  1
  N  N130  1  0.11290000  0.06417000  0.87453000  1
  N  N131  1  0.11290000  0.56417000  0.62547000  1
  N  N132  1  0.07980000  0.31757000  0.43192000  1
  N  N133  1  0.07980000  0.81757000  0.06808000  1
  N  N134  1  0.07340000  0.98799000  0.90321000  1
  N  N135  1  0.07340000  0.48799000  0.59679000  1
  N  N136  1  0.06960000  0.91689000  0.86742000  1
  N  N137  1  0.06960000  0.41689000  0.63258000  1
