# generated using pymatgen
data_Cu2H11C24(NO5)2
_symmetry_space_group_name_H-M   'P 1'
_cell_length_a   18.68410000
_cell_length_b   18.68410000
_cell_length_c   34.67960000
_cell_angle_alpha   90.00000000
_cell_angle_beta   90.00000000
_cell_angle_gamma   90.00000000
_symmetry_Int_Tables_number   1
_chemical_formula_structural   Cu2H11C24(NO5)2
_chemical_formula_sum   'Cu16 H88 C192 N16 O80'
_cell_volume   12106.49552041
_cell_formula_units_Z   8
loop_
 _symmetry_equiv_pos_site_id
 _symmetry_equiv_pos_as_xyz
  1  'x, y, z'
loop_
 _atom_site_type_symbol
 _atom_site_label
 _atom_site_symmetry_multiplicity
 _atom_site_fract_x
 _atom_site_fract_y
 _atom_site_fract_z
 _atom_site_occupancy
  Cu  Cu0  1  0.19531000  0.76199000  0.27884000  1
  Cu  Cu1  1  0.19531000  0.76199000  0.72116000  1
  Cu  Cu2  1  0.23801000  0.19531000  0.27884000  1
  Cu  Cu3  1  0.23801000  0.19531000  0.72116000  1
  Cu  Cu4  1  0.26199000  0.69531000  0.22116000  1
  Cu  Cu5  1  0.26199000  0.69531000  0.77884000  1
  Cu  Cu6  1  0.30469000  0.26199000  0.22116000  1
  Cu  Cu7  1  0.30469000  0.26199000  0.77884000  1
  Cu  Cu8  1  0.69531000  0.73801000  0.22116000  1
  Cu  Cu9  1  0.69531000  0.73801000  0.77884000  1
  Cu  Cu10  1  0.73801000  0.30469000  0.22116000  1
  Cu  Cu11  1  0.73801000  0.30469000  0.77884000  1
  Cu  Cu12  1  0.76199000  0.80469000  0.27884000  1
  Cu  Cu13  1  0.76199000  0.80469000  0.72116000  1
  Cu  Cu14  1  0.80469000  0.23801000  0.27884000  1
  Cu  Cu15  1  0.80469000  0.23801000  0.72116000  1
  H  H16  1  0.01170000  0.63830000  0.09350000  1
  H  H17  1  0.01170000  0.63830000  0.90650000  1
  H  H18  1  0.01980000  0.44800000  0.05770000  1
  H  H19  1  0.01980000  0.44800000  0.94230000  1
  H  H20  1  0.02140000  0.24730000  0.23960000  1
  H  H21  1  0.02140000  0.24730000  0.76040000  1
  H  H22  1  0.05200000  0.48020000  0.44230000  1
  H  H23  1  0.05200000  0.48020000  0.55770000  1
  H  H24  1  0.08020000  0.67680000  0.14620000  1
  H  H25  1  0.08020000  0.67680000  0.85380000  1
  H  H26  1  0.09540000  0.28040000  0.00000000  1
  H  H27  1  0.13240000  0.29340000  0.14330000  1
  H  H28  1  0.13240000  0.29340000  0.85670000  1
  H  H29  1  0.13830000  0.51170000  0.40650000  1
  H  H30  1  0.13830000  0.51170000  0.59350000  1
  H  H31  1  0.17680000  0.58020000  0.35380000  1
  H  H32  1  0.17680000  0.58020000  0.64620000  1
  H  H33  1  0.20660000  0.36760000  0.35670000  1
  H  H34  1  0.20660000  0.36760000  0.64330000  1
  H  H35  1  0.21960000  0.40460000  0.50000000  1
  H  H36  1  0.24730000  0.97860000  0.23960000  1
  H  H37  1  0.24730000  0.97860000  0.76040000  1
  H  H38  1  0.25270000  0.47860000  0.26040000  1
  H  H39  1  0.25270000  0.47860000  0.73960000  1
  H  H40  1  0.28040000  0.90460000  0.00000000  1
  H  H41  1  0.29340000  0.86760000  0.14330000  1
  H  H42  1  0.29340000  0.86760000  0.85670000  1
  H  H43  1  0.32320000  0.08020000  0.14620000  1
  H  H44  1  0.32320000  0.08020000  0.85380000  1
  H  H45  1  0.36170000  0.01170000  0.09350000  1
  H  H46  1  0.36170000  0.01170000  0.90650000  1
  H  H47  1  0.36760000  0.79340000  0.35670000  1
  H  H48  1  0.36760000  0.79340000  0.64330000  1
  H  H49  1  0.40460000  0.78040000  0.50000000  1
  H  H50  1  0.41980000  0.17680000  0.35380000  1
  H  H51  1  0.41980000  0.17680000  0.64620000  1
  H  H52  1  0.44800000  0.98020000  0.05770000  1
  H  H53  1  0.44800000  0.98020000  0.94230000  1
  H  H54  1  0.47860000  0.74730000  0.26040000  1
  H  H55  1  0.47860000  0.74730000  0.73960000  1
  H  H56  1  0.48020000  0.94800000  0.44230000  1
  H  H57  1  0.48020000  0.94800000  0.55770000  1
  H  H58  1  0.48830000  0.13830000  0.40650000  1
  H  H59  1  0.48830000  0.13830000  0.59350000  1
  H  H60  1  0.51170000  0.86170000  0.40650000  1
  H  H61  1  0.51170000  0.86170000  0.59350000  1
  H  H62  1  0.51980000  0.05200000  0.44230000  1
  H  H63  1  0.51980000  0.05200000  0.55770000  1
  H  H64  1  0.52140000  0.25270000  0.26040000  1
  H  H65  1  0.52140000  0.25270000  0.73960000  1
  H  H66  1  0.55200000  0.01980000  0.05770000  1
  H  H67  1  0.55200000  0.01980000  0.94230000  1
  H  H68  1  0.58020000  0.82320000  0.35380000  1
  H  H69  1  0.58020000  0.82320000  0.64620000  1
  H  H70  1  0.59540000  0.21960000  0.50000000  1
  H  H71  1  0.63240000  0.20660000  0.35670000  1
  H  H72  1  0.63240000  0.20660000  0.64330000  1
  H  H73  1  0.63830000  0.98830000  0.09350000  1
  H  H74  1  0.63830000  0.98830000  0.90650000  1
  H  H75  1  0.67680000  0.91980000  0.14620000  1
  H  H76  1  0.67680000  0.91980000  0.85380000  1
  H  H77  1  0.70660000  0.13240000  0.14330000  1
  H  H78  1  0.70660000  0.13240000  0.85670000  1
  H  H79  1  0.71960000  0.09540000  0.00000000  1
  H  H80  1  0.74730000  0.52140000  0.26040000  1
  H  H81  1  0.74730000  0.52140000  0.73960000  1
  H  H82  1  0.75270000  0.02140000  0.23960000  1
  H  H83  1  0.75270000  0.02140000  0.76040000  1
  H  H84  1  0.78040000  0.59540000  0.50000000  1
  H  H85  1  0.79340000  0.63240000  0.35670000  1
  H  H86  1  0.79340000  0.63240000  0.64330000  1
  H  H87  1  0.82320000  0.41980000  0.35380000  1
  H  H88  1  0.82320000  0.41980000  0.64620000  1
  H  H89  1  0.86170000  0.48830000  0.40650000  1
  H  H90  1  0.86170000  0.48830000  0.59350000  1
  H  H91  1  0.86760000  0.70660000  0.14330000  1
  H  H92  1  0.86760000  0.70660000  0.85670000  1
  H  H93  1  0.90460000  0.71960000  0.00000000  1
  H  H94  1  0.91980000  0.32320000  0.14620000  1
  H  H95  1  0.91980000  0.32320000  0.85380000  1
  H  H96  1  0.94800000  0.51980000  0.44230000  1
  H  H97  1  0.94800000  0.51980000  0.55770000  1
  H  H98  1  0.97860000  0.75270000  0.23960000  1
  H  H99  1  0.97860000  0.75270000  0.76040000  1
  H  H100  1  0.98020000  0.55200000  0.05770000  1
  H  H101  1  0.98020000  0.55200000  0.94230000  1
  H  H102  1  0.98830000  0.36170000  0.09350000  1
  H  H103  1  0.98830000  0.36170000  0.90650000  1
  C  C104  1  0.01280000  0.46190000  0.00000000  1
  C  C105  1  0.02300000  0.26410000  0.21442000  1
  C  C106  1  0.02300000  0.26410000  0.78558000  1
  C  C107  1  0.02620000  0.31180000  0.13840000  1
  C  C108  1  0.02620000  0.31180000  0.86160000  1
  C  C109  1  0.02840000  0.42530000  0.03432000  1
  C  C110  1  0.02840000  0.42530000  0.96568000  1
  C  C111  1  0.03800000  0.69060000  0.15841000  1
  C  C112  1  0.03800000  0.69060000  0.84159000  1
  C  C113  1  0.03810000  0.48720000  0.50000000  1
  C  C114  1  0.03990000  0.71310000  0.19583000  1
  C  C115  1  0.03990000  0.71310000  0.80417000  1
  C  C116  1  0.05570000  0.35750000  0.03445000  1
  C  C117  1  0.05570000  0.35750000  0.96555000  1
  C  C118  1  0.07040000  0.32090000  0.07152000  1
  C  C119  1  0.07040000  0.32090000  0.92848000  1
  C  C120  1  0.07260000  0.32460000  0.00000000  1
  C  C121  1  0.07470000  0.47160000  0.46568000  1
  C  C122  1  0.07470000  0.47160000  0.53432000  1
  C  C123  1  0.08760000  0.26710000  0.19459000  1
  C  C124  1  0.08760000  0.26710000  0.80541000  1
  C  C125  1  0.08910000  0.29120000  0.15650000  1
  C  C126  1  0.08910000  0.29120000  0.84350000  1
  C  C127  1  0.11060000  0.71730000  0.21685000  1
  C  C128  1  0.11060000  0.71730000  0.78315000  1
  C  C129  1  0.14250000  0.44430000  0.46555000  1
  C  C130  1  0.14250000  0.44430000  0.53445000  1
  C  C131  1  0.15560000  0.25070000  0.21443000  1
  C  C132  1  0.15560000  0.25070000  0.78557000  1
  C  C133  1  0.17540000  0.42740000  0.50000000  1
  C  C134  1  0.17910000  0.42960000  0.42848000  1
  C  C135  1  0.17910000  0.42960000  0.57152000  1
  C  C136  1  0.18820000  0.47380000  0.36160000  1
  C  C137  1  0.18820000  0.47380000  0.63840000  1
  C  C138  1  0.19060000  0.53800000  0.34159000  1
  C  C139  1  0.19060000  0.53800000  0.65841000  1
  C  C140  1  0.20880000  0.41090000  0.34350000  1
  C  C141  1  0.20880000  0.41090000  0.65650000  1
  C  C142  1  0.21310000  0.53990000  0.30417000  1
  C  C143  1  0.21310000  0.53990000  0.69583000  1
  C  C144  1  0.21730000  0.61060000  0.28315000  1
  C  C145  1  0.21730000  0.61060000  0.71685000  1
  C  C146  1  0.23290000  0.41240000  0.30541000  1
  C  C147  1  0.23290000  0.41240000  0.69459000  1
  C  C148  1  0.23590000  0.47700000  0.28558000  1
  C  C149  1  0.23590000  0.47700000  0.71442000  1
  C  C150  1  0.24930000  0.34440000  0.28557000  1
  C  C151  1  0.24930000  0.34440000  0.71443000  1
  C  C152  1  0.25070000  0.84440000  0.21443000  1
  C  C153  1  0.25070000  0.84440000  0.78557000  1
  C  C154  1  0.26410000  0.97700000  0.21442000  1
  C  C155  1  0.26410000  0.97700000  0.78558000  1
  C  C156  1  0.26710000  0.91240000  0.19459000  1
  C  C157  1  0.26710000  0.91240000  0.80541000  1
  C  C158  1  0.28270000  0.11060000  0.21685000  1
  C  C159  1  0.28270000  0.11060000  0.78315000  1
  C  C160  1  0.28690000  0.03990000  0.19583000  1
  C  C161  1  0.28690000  0.03990000  0.80417000  1
  C  C162  1  0.29120000  0.91090000  0.15650000  1
  C  C163  1  0.29120000  0.91090000  0.84350000  1
  C  C164  1  0.30940000  0.03800000  0.15841000  1
  C  C165  1  0.30940000  0.03800000  0.84159000  1
  C  C166  1  0.31180000  0.97380000  0.13840000  1
  C  C167  1  0.31180000  0.97380000  0.86160000  1
  C  C168  1  0.32090000  0.92960000  0.07152000  1
  C  C169  1  0.32090000  0.92960000  0.92848000  1
  C  C170  1  0.32460000  0.92740000  0.00000000  1
  C  C171  1  0.34440000  0.75070000  0.28557000  1
  C  C172  1  0.34440000  0.75070000  0.71443000  1
  C  C173  1  0.35750000  0.94430000  0.03445000  1
  C  C174  1  0.35750000  0.94430000  0.96555000  1
  C  C175  1  0.38940000  0.21730000  0.28315000  1
  C  C176  1  0.38940000  0.21730000  0.71685000  1
  C  C177  1  0.41090000  0.79120000  0.34350000  1
  C  C178  1  0.41090000  0.79120000  0.65650000  1
  C  C179  1  0.41240000  0.76710000  0.30541000  1
  C  C180  1  0.41240000  0.76710000  0.69459000  1
  C  C181  1  0.42530000  0.97160000  0.03432000  1
  C  C182  1  0.42530000  0.97160000  0.96568000  1
  C  C183  1  0.42740000  0.82460000  0.50000000  1
  C  C184  1  0.42960000  0.82090000  0.42848000  1
  C  C185  1  0.42960000  0.82090000  0.57152000  1
  C  C186  1  0.44430000  0.85750000  0.46555000  1
  C  C187  1  0.44430000  0.85750000  0.53445000  1
  C  C188  1  0.46010000  0.21310000  0.30417000  1
  C  C189  1  0.46010000  0.21310000  0.69583000  1
  C  C190  1  0.46190000  0.98720000  0.00000000  1
  C  C191  1  0.46200000  0.19060000  0.34159000  1
  C  C192  1  0.46200000  0.19060000  0.65841000  1
  C  C193  1  0.47160000  0.92530000  0.46568000  1
  C  C194  1  0.47160000  0.92530000  0.53432000  1
  C  C195  1  0.47380000  0.81180000  0.36160000  1
  C  C196  1  0.47380000  0.81180000  0.63840000  1
  C  C197  1  0.47700000  0.76410000  0.28558000  1
  C  C198  1  0.47700000  0.76410000  0.71442000  1
  C  C199  1  0.48720000  0.96190000  0.50000000  1
  C  C200  1  0.51280000  0.03810000  0.50000000  1
  C  C201  1  0.52300000  0.23590000  0.28558000  1
  C  C202  1  0.52300000  0.23590000  0.71442000  1
  C  C203  1  0.52620000  0.18820000  0.36160000  1
  C  C204  1  0.52620000  0.18820000  0.63840000  1
  C  C205  1  0.52840000  0.07470000  0.46568000  1
  C  C206  1  0.52840000  0.07470000  0.53432000  1
  C  C207  1  0.53800000  0.80940000  0.34159000  1
  C  C208  1  0.53800000  0.80940000  0.65841000  1
  C  C209  1  0.53810000  0.01280000  0.00000000  1
  C  C210  1  0.53990000  0.78690000  0.30417000  1
  C  C211  1  0.53990000  0.78690000  0.69583000  1
  C  C212  1  0.55570000  0.14250000  0.46555000  1
  C  C213  1  0.55570000  0.14250000  0.53445000  1
  C  C214  1  0.57040000  0.17910000  0.42848000  1
  C  C215  1  0.57040000  0.17910000  0.57152000  1
  C  C216  1  0.57260000  0.17540000  0.50000000  1
  C  C217  1  0.57470000  0.02840000  0.03432000  1
  C  C218  1  0.57470000  0.02840000  0.96568000  1
  C  C219  1  0.58760000  0.23290000  0.30541000  1
  C  C220  1  0.58760000  0.23290000  0.69459000  1
  C  C221  1  0.58910000  0.20880000  0.34350000  1
  C  C222  1  0.58910000  0.20880000  0.65650000  1
  C  C223  1  0.61060000  0.78270000  0.28315000  1
  C  C224  1  0.61060000  0.78270000  0.71685000  1
  C  C225  1  0.64250000  0.05570000  0.03445000  1
  C  C226  1  0.64250000  0.05570000  0.96555000  1
  C  C227  1  0.65560000  0.24930000  0.28557000  1
  C  C228  1  0.65560000  0.24930000  0.71443000  1
  C  C229  1  0.67540000  0.07260000  0.00000000  1
  C  C230  1  0.67910000  0.07040000  0.07152000  1
  C  C231  1  0.67910000  0.07040000  0.92848000  1
  C  C232  1  0.68820000  0.02620000  0.13840000  1
  C  C233  1  0.68820000  0.02620000  0.86160000  1
  C  C234  1  0.69060000  0.96200000  0.15841000  1
  C  C235  1  0.69060000  0.96200000  0.84159000  1
  C  C236  1  0.70880000  0.08910000  0.15650000  1
  C  C237  1  0.70880000  0.08910000  0.84350000  1
  C  C238  1  0.71310000  0.96010000  0.19583000  1
  C  C239  1  0.71310000  0.96010000  0.80417000  1
  C  C240  1  0.71730000  0.88940000  0.21685000  1
  C  C241  1  0.71730000  0.88940000  0.78315000  1
  C  C242  1  0.73290000  0.08760000  0.19459000  1
  C  C243  1  0.73290000  0.08760000  0.80541000  1
  C  C244  1  0.73590000  0.02300000  0.21442000  1
  C  C245  1  0.73590000  0.02300000  0.78558000  1
  C  C246  1  0.74930000  0.15560000  0.21443000  1
  C  C247  1  0.74930000  0.15560000  0.78557000  1
  C  C248  1  0.75070000  0.65560000  0.28557000  1
  C  C249  1  0.75070000  0.65560000  0.71443000  1
  C  C250  1  0.76410000  0.52300000  0.28558000  1
  C  C251  1  0.76410000  0.52300000  0.71442000  1
  C  C252  1  0.76710000  0.58760000  0.30541000  1
  C  C253  1  0.76710000  0.58760000  0.69459000  1
  C  C254  1  0.78270000  0.38940000  0.28315000  1
  C  C255  1  0.78270000  0.38940000  0.71685000  1
  C  C256  1  0.78690000  0.46010000  0.30417000  1
  C  C257  1  0.78690000  0.46010000  0.69583000  1
  C  C258  1  0.79120000  0.58910000  0.34350000  1
  C  C259  1  0.79120000  0.58910000  0.65650000  1
  C  C260  1  0.80940000  0.46200000  0.34159000  1
  C  C261  1  0.80940000  0.46200000  0.65841000  1
  C  C262  1  0.81180000  0.52620000  0.36160000  1
  C  C263  1  0.81180000  0.52620000  0.63840000  1
  C  C264  1  0.82090000  0.57040000  0.42848000  1
  C  C265  1  0.82090000  0.57040000  0.57152000  1
  C  C266  1  0.82460000  0.57260000  0.50000000  1
  C  C267  1  0.84440000  0.74930000  0.21443000  1
  C  C268  1  0.84440000  0.74930000  0.78557000  1
  C  C269  1  0.85750000  0.55570000  0.46555000  1
  C  C270  1  0.85750000  0.55570000  0.53445000  1
  C  C271  1  0.88940000  0.28270000  0.21685000  1
  C  C272  1  0.88940000  0.28270000  0.78315000  1
  C  C273  1  0.91090000  0.70880000  0.15650000  1
  C  C274  1  0.91090000  0.70880000  0.84350000  1
  C  C275  1  0.91240000  0.73290000  0.19459000  1
  C  C276  1  0.91240000  0.73290000  0.80541000  1
  C  C277  1  0.92530000  0.52840000  0.46568000  1
  C  C278  1  0.92530000  0.52840000  0.53432000  1
  C  C279  1  0.92740000  0.67540000  0.00000000  1
  C  C280  1  0.92960000  0.67910000  0.07152000  1
  C  C281  1  0.92960000  0.67910000  0.92848000  1
  C  C282  1  0.94430000  0.64250000  0.03445000  1
  C  C283  1  0.94430000  0.64250000  0.96555000  1
  C  C284  1  0.96010000  0.28690000  0.19583000  1
  C  C285  1  0.96010000  0.28690000  0.80417000  1
  C  C286  1  0.96190000  0.51280000  0.50000000  1
  C  C287  1  0.96200000  0.30940000  0.15841000  1
  C  C288  1  0.96200000  0.30940000  0.84159000  1
  C  C289  1  0.97160000  0.57470000  0.03432000  1
  C  C290  1  0.97160000  0.57470000  0.96568000  1
  C  C291  1  0.97380000  0.68820000  0.13840000  1
  C  C292  1  0.97380000  0.68820000  0.86160000  1
  C  C293  1  0.97700000  0.73590000  0.21442000  1
  C  C294  1  0.97700000  0.73590000  0.78558000  1
  C  C295  1  0.98720000  0.53810000  0.00000000  1
  N  N296  1  0.02400000  0.33510000  0.09972000  1
  N  N297  1  0.02400000  0.33510000  0.90028000  1
  N  N298  1  0.16490000  0.47600000  0.40028000  1
  N  N299  1  0.16490000  0.47600000  0.59972000  1
  N  N300  1  0.33510000  0.97600000  0.09972000  1
  N  N301  1  0.33510000  0.97600000  0.90028000  1
  N  N302  1  0.47600000  0.83510000  0.40028000  1
  N  N303  1  0.47600000  0.83510000  0.59972000  1
  N  N304  1  0.52400000  0.16490000  0.40028000  1
  N  N305  1  0.52400000  0.16490000  0.59972000  1
  N  N306  1  0.66490000  0.02400000  0.09972000  1
  N  N307  1  0.66490000  0.02400000  0.90028000  1
  N  N308  1  0.83510000  0.52400000  0.40028000  1
  N  N309  1  0.83510000  0.52400000  0.59972000  1
  N  N310  1  0.97600000  0.66490000  0.09972000  1
  N  N311  1  0.97600000  0.66490000  0.90028000  1
  O  O312  1  0.10937000  0.75070000  0.24900000  1
  O  O313  1  0.10937000  0.75070000  0.75100000  1
  O  O314  1  0.12210000  0.28080000  0.07506000  1
  O  O315  1  0.12210000  0.28080000  0.92494000  1
  O  O316  1  0.15380000  0.22250000  0.24758000  1
  O  O317  1  0.15380000  0.22250000  0.75242000  1
  O  O318  1  0.16300000  0.68720000  0.20199000  1
  O  O319  1  0.16300000  0.68720000  0.79801000  1
  O  O320  1  0.18720000  0.66300000  0.29801000  1
  O  O321  1  0.18720000  0.66300000  0.70199000  1
  O  O322  1  0.21240000  0.26720000  0.19641000  1
  O  O323  1  0.21240000  0.26720000  0.80359000  1
  O  O324  1  0.21920000  0.37790000  0.42494000  1
  O  O325  1  0.21920000  0.37790000  0.57506000  1
  O  O326  1  0.22250000  0.84620000  0.24758000  1
  O  O327  1  0.22250000  0.84620000  0.75242000  1
  O  O328  1  0.23280000  0.28760000  0.30359000  1
  O  O329  1  0.23280000  0.28760000  0.69641000  1
  O  O330  1  0.24930000  0.10937000  0.24900000  1
  O  O331  1  0.24930000  0.10937000  0.75100000  1
  O  O332  1  0.25070000  0.60937000  0.25100000  1
  O  O333  1  0.25070000  0.60937000  0.74900000  1
  O  O334  1  0.26720000  0.78760000  0.19641000  1
  O  O335  1  0.26720000  0.78760000  0.80359000  1
  O  O336  1  0.27750000  0.34620000  0.25242000  1
  O  O337  1  0.27750000  0.34620000  0.74758000  1
  O  O338  1  0.28080000  0.87790000  0.07506000  1
  O  O339  1  0.28080000  0.87790000  0.92494000  1
  O  O340  1  0.28760000  0.76720000  0.30359000  1
  O  O341  1  0.28760000  0.76720000  0.69641000  1
  O  O342  1  0.31280000  0.16300000  0.20199000  1
  O  O343  1  0.31280000  0.16300000  0.79801000  1
  O  O344  1  0.33700000  0.18720000  0.29801000  1
  O  O345  1  0.33700000  0.18720000  0.70199000  1
  O  O346  1  0.34620000  0.72250000  0.25242000  1
  O  O347  1  0.34620000  0.72250000  0.74758000  1
  O  O348  1  0.37790000  0.78080000  0.42494000  1
  O  O349  1  0.37790000  0.78080000  0.57506000  1
  O  O350  1  0.39063000  0.25070000  0.25100000  1
  O  O351  1  0.39063000  0.25070000  0.74900000  1
  O  O352  1  0.60937000  0.74930000  0.25100000  1
  O  O353  1  0.60937000  0.74930000  0.74900000  1
  O  O354  1  0.62210000  0.21920000  0.42494000  1
  O  O355  1  0.62210000  0.21920000  0.57506000  1
  O  O356  1  0.65380000  0.27750000  0.25242000  1
  O  O357  1  0.65380000  0.27750000  0.74758000  1
  O  O358  1  0.66300000  0.81280000  0.29801000  1
  O  O359  1  0.66300000  0.81280000  0.70199000  1
  O  O360  1  0.68720000  0.83700000  0.20199000  1
  O  O361  1  0.68720000  0.83700000  0.79801000  1
  O  O362  1  0.71240000  0.23280000  0.30359000  1
  O  O363  1  0.71240000  0.23280000  0.69641000  1
  O  O364  1  0.71920000  0.12210000  0.07506000  1
  O  O365  1  0.71920000  0.12210000  0.92494000  1
  O  O366  1  0.72250000  0.65380000  0.25242000  1
  O  O367  1  0.72250000  0.65380000  0.74758000  1
  O  O368  1  0.73280000  0.21240000  0.19641000  1
  O  O369  1  0.73280000  0.21240000  0.80359000  1
  O  O370  1  0.74930000  0.39063000  0.25100000  1
  O  O371  1  0.74930000  0.39063000  0.74900000  1
  O  O372  1  0.75070000  0.89063000  0.24900000  1
  O  O373  1  0.75070000  0.89063000  0.75100000  1
  O  O374  1  0.76720000  0.71240000  0.30359000  1
  O  O375  1  0.76720000  0.71240000  0.69641000  1
  O  O376  1  0.77750000  0.15380000  0.24758000  1
  O  O377  1  0.77750000  0.15380000  0.75242000  1
  O  O378  1  0.78080000  0.62210000  0.42494000  1
  O  O379  1  0.78080000  0.62210000  0.57506000  1
  O  O380  1  0.78760000  0.73280000  0.19641000  1
  O  O381  1  0.78760000  0.73280000  0.80359000  1
  O  O382  1  0.81280000  0.33700000  0.29801000  1
  O  O383  1  0.81280000  0.33700000  0.70199000  1
  O  O384  1  0.83700000  0.31280000  0.20199000  1
  O  O385  1  0.83700000  0.31280000  0.79801000  1
  O  O386  1  0.84620000  0.77750000  0.24758000  1
  O  O387  1  0.84620000  0.77750000  0.75242000  1
  O  O388  1  0.87790000  0.71920000  0.07506000  1
  O  O389  1  0.87790000  0.71920000  0.92494000  1
  O  O390  1  0.89063000  0.24930000  0.24900000  1
  O  O391  1  0.89063000  0.24930000  0.75100000  1
