# generated using pymatgen
data_Gd2H18C42(SO6)3
_symmetry_space_group_name_H-M   'P 1'
_cell_length_a   14.89870000
_cell_length_b   19.02030000
_cell_length_c   30.08460000
_cell_angle_alpha   97.33240000
_cell_angle_beta   90.00000000
_cell_angle_gamma   113.05700000
_symmetry_Int_Tables_number   1
_chemical_formula_structural   Gd2H18C42(SO6)3
_chemical_formula_sum   'Gd8 H72 C168 S12 O72'
_cell_volume   7768.44210491
_cell_formula_units_Z   4
loop_
 _symmetry_equiv_pos_site_id
 _symmetry_equiv_pos_as_xyz
  1  'x, y, z'
loop_
 _atom_site_type_symbol
 _atom_site_label
 _atom_site_symmetry_multiplicity
 _atom_site_fract_x
 _atom_site_fract_y
 _atom_site_fract_z
 _atom_site_occupancy
  Gd  Gd0  1  0.22063000  0.58271000  0.14336000  1
  Gd  Gd1  1  0.36208000  0.58271000  0.64336000  1
  Gd  Gd2  1  0.38214000  0.82832000  0.15688000  1
  Gd  Gd3  1  0.44618000  0.82832000  0.65688000  1
  Gd  Gd4  1  0.55381000  0.17166000  0.34312000  1
  Gd  Gd5  1  0.61785000  0.17166000  0.84312000  1
  Gd  Gd6  1  0.63792000  0.41729000  0.35664000  1
  Gd  Gd7  1  0.77937000  0.41729000  0.85664000  1
  H  H8  1  0.01800000  0.70120000  0.25300000  1
  H  H9  1  0.02850000  0.57920000  0.64140000  1
  H  H10  1  0.03290000  0.37940000  0.85170000  1
  H  H11  1  0.06340000  0.14500000  0.84850000  1
  H  H12  1  0.07640000  0.83700000  0.64740000  1
  H  H13  1  0.08010000  0.33560000  0.60180000  1
  H  H14  1  0.08160000  0.14500000  0.34850000  1
  H  H15  1  0.08790000  0.85000000  0.15470000  1
  H  H16  1  0.12140000  0.40400000  0.73420000  1
  H  H17  1  0.17070000  0.82160000  0.25260000  1
  H  H18  1  0.17200000  0.59240000  0.35600000  1
  H  H19  1  0.18160000  0.60780000  0.28120000  1
  H  H20  1  0.19130000  0.58780000  0.43800000  1
  H  H21  1  0.20650000  0.80200000  0.64610000  1
  H  H22  1  0.23790000  0.15000000  0.34530000  1
  H  H23  1  0.23940000  0.16300000  0.85260000  1
  H  H24  1  0.24000000  0.59720000  0.51170000  1
  H  H25  1  0.25550000  0.33560000  0.10180000  1
  H  H26  1  0.27660000  0.94880000  0.39780000  1
  H  H27  1  0.28260000  0.40400000  0.23420000  1
  H  H28  1  0.30850000  0.93440000  0.26450000  1
  H  H29  1  0.31680000  0.29880000  0.24700000  1
  H  H30  1  0.32780000  0.05120000  0.10220000  1
  H  H31  1  0.34110000  0.80080000  0.00490000  1
  H  H32  1  0.34650000  0.37940000  0.35170000  1
  H  H33  1  0.34910000  0.17840000  0.24740000  1
  H  H34  1  0.35720000  0.59720000  0.01170000  1
  H  H35  1  0.37410000  0.06560000  0.23550000  1
  H  H36  1  0.39650000  0.58780000  0.93800000  1
  H  H37  1  0.40400000  0.81260000  0.81030000  1
  H  H38  1  0.40450000  0.19800000  0.85390000  1
  H  H39  1  0.40860000  0.81260000  0.31030000  1
  H  H40  1  0.42040000  0.59240000  0.85600000  1
  H  H41  1  0.42620000  0.60780000  0.78120000  1
  H  H42  1  0.44930000  0.42080000  0.85860000  1
  H  H43  1  0.45970000  0.80080000  0.50490000  1
  H  H44  1  0.54030000  0.19920000  0.49510000  1
  H  H45  1  0.55070000  0.57920000  0.14140000  1
  H  H46  1  0.57380000  0.39220000  0.21880000  1
  H  H47  1  0.57960000  0.40760000  0.14400000  1
  H  H48  1  0.59140000  0.18740000  0.68970000  1
  H  H49  1  0.59550000  0.80200000  0.14610000  1
  H  H50  1  0.59600000  0.18740000  0.18970000  1
  H  H51  1  0.60350000  0.41220000  0.06200000  1
  H  H52  1  0.62590000  0.93440000  0.76450000  1
  H  H53  1  0.64280000  0.40280000  0.98830000  1
  H  H54  1  0.65090000  0.82160000  0.75260000  1
  H  H55  1  0.65350000  0.62060000  0.64830000  1
  H  H56  1  0.65890000  0.19920000  0.99510000  1
  H  H57  1  0.67220000  0.94880000  0.89780000  1
  H  H58  1  0.68320000  0.70120000  0.75300000  1
  H  H59  1  0.69150000  0.06560000  0.73550000  1
  H  H60  1  0.71740000  0.59600000  0.76580000  1
  H  H61  1  0.72340000  0.05120000  0.60220000  1
  H  H62  1  0.74450000  0.66440000  0.89820000  1
  H  H63  1  0.76000000  0.40280000  0.48830000  1
  H  H64  1  0.76060000  0.83700000  0.14740000  1
  H  H65  1  0.76210000  0.85000000  0.65470000  1
  H  H66  1  0.79350000  0.19800000  0.35390000  1
  H  H67  1  0.80870000  0.41220000  0.56200000  1
  H  H68  1  0.81840000  0.39220000  0.71880000  1
  H  H69  1  0.82800000  0.40760000  0.64400000  1
  H  H70  1  0.82930000  0.17840000  0.74740000  1
  H  H71  1  0.87860000  0.59600000  0.26580000  1
  H  H72  1  0.91210000  0.15000000  0.84530000  1
  H  H73  1  0.91840000  0.85500000  0.65150000  1
  H  H74  1  0.91990000  0.66440000  0.39820000  1
  H  H75  1  0.92360000  0.16300000  0.35260000  1
  H  H76  1  0.93660000  0.85500000  0.15150000  1
  H  H77  1  0.96710000  0.62060000  0.14830000  1
  H  H78  1  0.97150000  0.42080000  0.35860000  1
  H  H79  1  0.98200000  0.29880000  0.74700000  1
  C  C80  1  0.00134000  0.30588000  0.71793000  1
  C  C81  1  0.02098000  0.73256000  0.36109000  1
  C  C82  1  0.02585000  0.26950000  0.35321000  1
  C  C83  1  0.03240000  0.80440000  0.15270000  1
  C  C84  1  0.03849000  0.33218000  0.85072000  1
  C  C85  1  0.03855000  0.34590000  0.35461000  1
  C  C86  1  0.03886000  0.63112000  0.64356000  1
  C  C87  1  0.04318000  0.73576000  0.15129000  1
  C  C88  1  0.05218000  0.74556000  0.31847000  1
  C  C89  1  0.05758000  0.19196000  0.84870000  1
  C  C90  1  0.06113000  0.32866000  0.63095000  1
  C  C91  1  0.06629000  0.78538000  0.64680000  1
  C  C92  1  0.08494000  0.36868000  0.70999000  1
  C  C93  1  0.11530000  0.38000000  0.66732000  1
  C  C94  1  0.12044000  0.25988000  0.35060000  1
  C  C95  1  0.12774000  0.32788000  0.85129000  1
  C  C96  1  0.13154000  0.68768000  0.64506000  1
  C  C97  1  0.13438000  0.19196000  0.34870000  1
  C  C98  1  0.13944000  0.25988000  0.85060000  1
  C  C99  1  0.14128000  0.81676000  0.31840000  1
  C  C100  1  0.14360000  0.73460000  0.15136000  1
  C  C101  1  0.14368000  0.76416000  0.64600000  1
  C  C102  1  0.17601000  0.85642000  0.36112000  1
  C  C103  1  0.19190000  0.84680000  0.28155000  1
  C  C104  1  0.20014000  0.32788000  0.35129000  1
  C  C105  1  0.20618000  0.44816000  0.66038000  1
  C  C106  1  0.21983000  0.66746000  0.64645000  1
  C  C107  1  0.22041000  0.63582000  0.34706000  1
  C  C108  1  0.22573000  0.64566000  0.30220000  1
  C  C109  1  0.22800000  0.19560000  0.34730000  1
  C  C110  1  0.24198000  0.44816000  0.16038000  1
  C  C111  1  0.24365000  0.26950000  0.85321000  1
  C  C112  1  0.24603000  0.62966000  0.45093000  1
  C  C113  1  0.25599000  0.92358000  0.36873000  1
  C  C114  1  0.26470000  0.38000000  0.16732000  1
  C  C115  1  0.26753000  0.32866000  0.13095000  1
  C  C116  1  0.27392000  0.91444000  0.28891000  1
  C  C117  1  0.27550000  0.63600000  0.49501000  1
  C  C118  1  0.28091000  0.21462000  0.85320000  1
  C  C119  1  0.28374000  0.36868000  0.20999000  1
  C  C120  1  0.28684000  0.69028000  0.37823000  1
  C  C121  1  0.28842000  0.26744000  0.13891000  1
  C  C122  1  0.29369000  0.33218000  0.35072000  1
  C  C123  1  0.29520000  0.71060000  0.28782000  1
  C  C124  1  0.29984000  0.68728000  0.42629000  1
  C  C125  1  0.30052000  0.71884000  0.23862000  1
  C  C126  1  0.30454000  0.30588000  0.21793000  1
  C  C127  1  0.30647000  0.95394000  0.33205000  1
  C  C128  1  0.30662000  0.25444000  0.18153000  1
  C  C129  1  0.30735000  0.34590000  0.85461000  1
  C  C130  1  0.30742000  0.26424000  0.34871000  1
  C  C131  1  0.31279000  0.69938000  0.06332000  1
  C  C132  1  0.31959000  0.14358000  0.13888000  1
  C  C133  1  0.32452000  0.18324000  0.18160000  1
  C  C134  1  0.33241000  0.07642000  0.13127000  1
  C  C135  1  0.34200000  0.69800000  0.01548000  1
  C  C136  1  0.34510000  0.15320000  0.21845000  1
  C  C137  1  0.34995000  0.75730000  0.99141000  1
  C  C138  1  0.35253000  0.04606000  0.16795000  1
  C  C139  1  0.35600000  0.69800000  0.51548000  1
  C  C140  1  0.35710000  0.75520000  0.36367000  1
  C  C141  1  0.35948000  0.08556000  0.21109000  1
  C  C142  1  0.36050000  0.63600000  0.99501000  1
  C  C143  1  0.36231000  0.76782000  0.31905000  1
  C  C144  1  0.36695000  0.97230000  0.16173000  1
  C  C145  1  0.37139000  0.75038000  0.94723000  1
  C  C146  1  0.37899000  0.75038000  0.44723000  1
  C  C147  1  0.37952000  0.23584000  0.85400000  1
  C  C148  1  0.38363000  0.62966000  0.95093000  1
  C  C149  1  0.38659000  0.69938000  0.56332000  1
  C  C150  1  0.38744000  0.68728000  0.92629000  1
  C  C151  1  0.39465000  0.02770000  0.33827000  1
  C  C152  1  0.39810000  0.75520000  0.86367000  1
  C  C153  1  0.40344000  0.69028000  0.87823000  1
  C  C154  1  0.40551000  0.76782000  0.81905000  1
  C  C155  1  0.40735000  0.75730000  0.49141000  1
  C  C156  1  0.40774000  0.36888000  0.85644000  1
  C  C157  1  0.40900000  0.26540000  0.34864000  1
  C  C158  1  0.41540000  0.71060000  0.78782000  1
  C  C159  1  0.41541000  0.63582000  0.84706000  1
  C  C160  1  0.41832000  0.71884000  0.73862000  1
  C  C161  1  0.41993000  0.64566000  0.80220000  1
  C  C162  1  0.44386000  0.31232000  0.85494000  1
  C  C163  1  0.44763000  0.66746000  0.14645000  1
  C  C164  1  0.55237000  0.33254000  0.85355000  1
  C  C165  1  0.55614000  0.68768000  0.14506000  1
  C  C166  1  0.58007000  0.35434000  0.19780000  1
  C  C167  1  0.58168000  0.28116000  0.26138000  1
  C  C168  1  0.58459000  0.36418000  0.15294000  1
  C  C169  1  0.58460000  0.28940000  0.21218000  1
  C  C170  1  0.59100000  0.73460000  0.65136000  1
  C  C171  1  0.59226000  0.63112000  0.14356000  1
  C  C172  1  0.59265000  0.24270000  0.50859000  1
  C  C173  1  0.59449000  0.23218000  0.18095000  1
  C  C174  1  0.59656000  0.30972000  0.12177000  1
  C  C175  1  0.60190000  0.24480000  0.13633000  1
  C  C176  1  0.60535000  0.97230000  0.66173000  1
  C  C177  1  0.61256000  0.31272000  0.07371000  1
  C  C178  1  0.61341000  0.30062000  0.43668000  1
  C  C179  1  0.61637000  0.37034000  0.04907000  1
  C  C180  1  0.62048000  0.76416000  0.14600000  1
  C  C181  1  0.62101000  0.24962000  0.55277000  1
  C  C182  1  0.62861000  0.24962000  0.05277000  1
  C  C183  1  0.63305000  0.02770000  0.83827000  1
  C  C184  1  0.63769000  0.23218000  0.68095000  1
  C  C185  1  0.63950000  0.36400000  0.00499000  1
  C  C186  1  0.64052000  0.91444000  0.78891000  1
  C  C187  1  0.64290000  0.24480000  0.63633000  1
  C  C188  1  0.64400000  0.30200000  0.48452000  1
  C  C189  1  0.64747000  0.95394000  0.83205000  1
  C  C190  1  0.65005000  0.24270000  0.00859000  1
  C  C191  1  0.65490000  0.84680000  0.78155000  1
  C  C192  1  0.65800000  0.30200000  0.98452000  1
  C  C193  1  0.66759000  0.92358000  0.86873000  1
  C  C194  1  0.67548000  0.81676000  0.81840000  1
  C  C195  1  0.68041000  0.85642000  0.86112000  1
  C  C196  1  0.68721000  0.30062000  0.93668000  1
  C  C197  1  0.69258000  0.73576000  0.65129000  1
  C  C198  1  0.69265000  0.65410000  0.14539000  1
  C  C199  1  0.69338000  0.74556000  0.81847000  1
  C  C200  1  0.69353000  0.04606000  0.66795000  1
  C  C201  1  0.69546000  0.69412000  0.78207000  1
  C  C202  1  0.69948000  0.28116000  0.76138000  1
  C  C203  1  0.70016000  0.31272000  0.57371000  1
  C  C204  1  0.70480000  0.28940000  0.71218000  1
  C  C205  1  0.70631000  0.66782000  0.64928000  1
  C  C206  1  0.71158000  0.73256000  0.86109000  1
  C  C207  1  0.71316000  0.30972000  0.62177000  1
  C  C208  1  0.71626000  0.63132000  0.79001000  1
  C  C209  1  0.71909000  0.78538000  0.14680000  1
  C  C210  1  0.72450000  0.36400000  0.50499000  1
  C  C211  1  0.72608000  0.08556000  0.71109000  1
  C  C212  1  0.73247000  0.67134000  0.86905000  1
  C  C213  1  0.73530000  0.62000000  0.83268000  1
  C  C214  1  0.74401000  0.07642000  0.63127000  1
  C  C215  1  0.75397000  0.37034000  0.54907000  1
  C  C216  1  0.75635000  0.73050000  0.14679000  1
  C  C217  1  0.75802000  0.55184000  0.83962000  1
  C  C218  1  0.77200000  0.80440000  0.65270000  1
  C  C219  1  0.77427000  0.35434000  0.69780000  1
  C  C220  1  0.77959000  0.36418000  0.65294000  1
  C  C221  1  0.78017000  0.33254000  0.35355000  1
  C  C222  1  0.79382000  0.55184000  0.33962000  1
  C  C223  1  0.79986000  0.67212000  0.64871000  1
  C  C224  1  0.80810000  0.15320000  0.71845000  1
  C  C225  1  0.82399000  0.14358000  0.63888000  1
  C  C226  1  0.85632000  0.23584000  0.35400000  1
  C  C227  1  0.85640000  0.26540000  0.84864000  1
  C  C228  1  0.85872000  0.18324000  0.68160000  1
  C  C229  1  0.86056000  0.74012000  0.14940000  1
  C  C230  1  0.86562000  0.80804000  0.65130000  1
  C  C231  1  0.86846000  0.31232000  0.35494000  1
  C  C232  1  0.87226000  0.67212000  0.14871000  1
  C  C233  1  0.87956000  0.74012000  0.64940000  1
  C  C234  1  0.88470000  0.62000000  0.33268000  1
  C  C235  1  0.91506000  0.63132000  0.29001000  1
  C  C236  1  0.93371000  0.21462000  0.35320000  1
  C  C237  1  0.93887000  0.67134000  0.36905000  1
  C  C238  1  0.94242000  0.80804000  0.15130000  1
  C  C239  1  0.94782000  0.25444000  0.68153000  1
  C  C240  1  0.95682000  0.26424000  0.84871000  1
  C  C241  1  0.96114000  0.36888000  0.35644000  1
  C  C242  1  0.96145000  0.65410000  0.64539000  1
  C  C243  1  0.96151000  0.66782000  0.14928000  1
  C  C244  1  0.96760000  0.19560000  0.84730000  1
  C  C245  1  0.97415000  0.73050000  0.64679000  1
  C  C246  1  0.97902000  0.26744000  0.63891000  1
  C  C247  1  0.99866000  0.69412000  0.28207000  1
  S  S248  1  0.10015000  0.80680000  0.40200000  1
  S  S249  1  0.16247000  0.40572000  0.35191000  1
  S  S250  1  0.24325000  0.40572000  0.85191000  1
  S  S251  1  0.29335000  0.19320000  0.09800000  1
  S  S252  1  0.37541000  0.81378000  0.90843000  1
  S  S253  1  0.43837000  0.81378000  0.40843000  1
  S  S254  1  0.56163000  0.18622000  0.59157000  1
  S  S255  1  0.62459000  0.18622000  0.09157000  1
  S  S256  1  0.70665000  0.80680000  0.90200000  1
  S  S257  1  0.75675000  0.59428000  0.14809000  1
  S  S258  1  0.83753000  0.59428000  0.64809000  1
  S  S259  1  0.89985000  0.19320000  0.59800000  1
  O  O260  1  0.05116000  0.85172000  0.42360000  1
  O  O261  1  0.14882000  0.67124000  0.14007000  1
  O  O262  1  0.15168000  0.77716000  0.42988000  1
  O  O263  1  0.17776000  0.43592000  0.30939000  1
  O  O264  1  0.19940000  0.45920000  0.39191000  1
  O  O265  1  0.19944000  0.14828000  0.07640000  1
  O  O266  1  0.20673000  0.59846000  0.64428000  1
  O  O267  1  0.21436000  0.79752000  0.16221000  1
  O  O268  1  0.22123000  0.45506000  0.12065000  1
  O  O269  1  0.23383000  0.45506000  0.62065000  1
  O  O270  1  0.24448000  0.49596000  0.19336000  1
  O  O271  1  0.25148000  0.49596000  0.69336000  1
  O  O272  1  0.25816000  0.43592000  0.80939000  1
  O  O273  1  0.25858000  0.65736000  0.21264000  1
  O  O274  1  0.25980000  0.45920000  0.89191000  1
  O  O275  1  0.28134000  0.81548000  0.90160000  1
  O  O276  1  0.28283000  0.63666000  0.07825000  1
  O  O277  1  0.30188000  0.72220000  0.65012000  1
  O  O278  1  0.32073000  0.76346000  0.08436000  1
  O  O279  1  0.34546000  0.78392000  0.22804000  1
  O  O280  1  0.35126000  0.93272000  0.12359000  1
  O  O281  1  0.35383000  0.63666000  0.57825000  1
  O  O282  1  0.37452000  0.22284000  0.07012000  1
  O  O283  1  0.39173000  0.59846000  0.14428000  1
  O  O284  1  0.39292000  0.95044000  0.19542000  1
  O  O285  1  0.39878000  0.65736000  0.71264000  1
  O  O286  1  0.41684000  0.20248000  0.33779000  1
  O  O287  1  0.41854000  0.06728000  0.37641000  1
  O  O288  1  0.42032000  0.72220000  0.15012000  1
  O  O289  1  0.43057000  0.88694000  0.41886000  1
  O  O290  1  0.43846000  0.78392000  0.72804000  1
  O  O291  1  0.44248000  0.04956000  0.30458000  1
  O  O292  1  0.44273000  0.76346000  0.58436000  1
  O  O293  1  0.45637000  0.88694000  0.91886000  1
  O  O294  1  0.46586000  0.18452000  0.59840000  1
  O  O295  1  0.47758000  0.32876000  0.35993000  1
  O  O296  1  0.52242000  0.67124000  0.64007000  1
  O  O297  1  0.53414000  0.81548000  0.40160000  1
  O  O298  1  0.54363000  0.11306000  0.08114000  1
  O  O299  1  0.55727000  0.23654000  0.41564000  1
  O  O300  1  0.55752000  0.95044000  0.69542000  1
  O  O301  1  0.56154000  0.21608000  0.27196000  1
  O  O302  1  0.56943000  0.11306000  0.58114000  1
  O  O303  1  0.57968000  0.27780000  0.84988000  1
  O  O304  1  0.58146000  0.93272000  0.62359000  1
  O  O305  1  0.58316000  0.79752000  0.66221000  1
  O  O306  1  0.60122000  0.34264000  0.28736000  1
  O  O307  1  0.60708000  0.04956000  0.80458000  1
  O  O308  1  0.60827000  0.40154000  0.85572000  1
  O  O309  1  0.62548000  0.77716000  0.92988000  1
  O  O310  1  0.64617000  0.36334000  0.42175000  1
  O  O311  1  0.64874000  0.06728000  0.87641000  1
  O  O312  1  0.65454000  0.21608000  0.77196000  1
  O  O313  1  0.67927000  0.23654000  0.91564000  1
  O  O314  1  0.69812000  0.27780000  0.34988000  1
  O  O315  1  0.71717000  0.36334000  0.92175000  1
  O  O316  1  0.71866000  0.18452000  0.09840000  1
  O  O317  1  0.74020000  0.54080000  0.10809000  1
  O  O318  1  0.74142000  0.34264000  0.78736000  1
  O  O319  1  0.74184000  0.56408000  0.19061000  1
  O  O320  1  0.74852000  0.50404000  0.30664000  1
  O  O321  1  0.75552000  0.50404000  0.80664000  1
  O  O322  1  0.76617000  0.54494000  0.37935000  1
  O  O323  1  0.77877000  0.54494000  0.87935000  1
  O  O324  1  0.78564000  0.20248000  0.83779000  1
  O  O325  1  0.79327000  0.40154000  0.35572000  1
  O  O326  1  0.80056000  0.85172000  0.92360000  1
  O  O327  1  0.80060000  0.54080000  0.60809000  1
  O  O328  1  0.82224000  0.56408000  0.69061000  1
  O  O329  1  0.84832000  0.22284000  0.57012000  1
  O  O330  1  0.85118000  0.32876000  0.85993000  1
  O  O331  1  0.94884000  0.14828000  0.57640000  1
