# generated using pymatgen
data_Ni2H39C63(N2O)6
_symmetry_space_group_name_H-M   'P 1'
_cell_length_a   13.83800000
_cell_length_b   16.94600000
_cell_length_c   16.94600000
_cell_angle_alpha   120.00000000
_cell_angle_beta   90.00000000
_cell_angle_gamma   90.00000000
_symmetry_Int_Tables_number   1
_chemical_formula_structural   Ni2H39C63(N2O)6
_chemical_formula_sum   'Ni4 H78 C126 N24 O12'
_cell_volume   3441.42541856
_cell_formula_units_Z   2
loop_
 _symmetry_equiv_pos_site_id
 _symmetry_equiv_pos_as_xyz
  1  'x, y, z'
loop_
 _atom_site_type_symbol
 _atom_site_label
 _atom_site_symmetry_multiplicity
 _atom_site_fract_x
 _atom_site_fract_y
 _atom_site_fract_z
 _atom_site_occupancy
  Ni  Ni0  1  0.89841000  0.66666667  0.33333333  1
  Ni  Ni1  1  0.60159000  0.66666667  0.33333333  1
  Ni  Ni2  1  0.39841000  0.33333333  0.66666667  1
  Ni  Ni3  1  0.10159000  0.33333333  0.66666667  1
  H  H4  1  0.44660000  0.98600000  0.22960000  1
  H  H5  1  0.05340000  0.98600000  0.75640000  1
  H  H6  1  0.56480000  0.97580000  0.32090000  1
  H  H7  1  0.93520000  0.97580000  0.65490000  1
  H  H8  1  0.61220000  0.93290000  0.42730000  1
  H  H9  1  0.88780000  0.93290000  0.50560000  1
  H  H10  1  0.83990000  0.89260000  0.17980000  1
  H  H11  1  0.66010000  0.89260000  0.71280000  1
  H  H12  1  0.25000000  0.83020000  0.41510000  1
  H  H13  1  0.66010000  0.82020000  0.10740000  1
  H  H14  1  0.83990000  0.82020000  0.71280000  1
  H  H15  1  0.65110000  0.78720000  0.22360000  1
  H  H16  1  0.84890000  0.78720000  0.56360000  1
  H  H17  1  0.41390000  0.78510000  0.36430000  1
  H  H18  1  0.08610000  0.78510000  0.42080000  1
  H  H19  1  0.84890000  0.77640000  0.21280000  1
  H  H20  1  0.65110000  0.77640000  0.56360000  1
  H  H21  1  0.05340000  0.77040000  0.01400000  1
  H  H22  1  0.44660000  0.77040000  0.75640000  1
  H  H23  1  0.94660000  0.75640000  0.77040000  1
  H  H24  1  0.55340000  0.75640000  0.98600000  1
  H  H25  1  0.33990000  0.71280000  0.82020000  1
  H  H26  1  0.16010000  0.71280000  0.89260000  1
  H  H27  1  0.93520000  0.67910000  0.02420000  1
  H  H28  1  0.56480000  0.67910000  0.65490000  1
  H  H29  1  0.06480000  0.65490000  0.67910000  1
  H  H30  1  0.43520000  0.65490000  0.97580000  1
  H  H31  1  0.08610000  0.63570000  0.21490000  1
  H  H32  1  0.41390000  0.63570000  0.42080000  1
  H  H33  1  0.25000000  0.58490000  0.16980000  1
  H  H34  1  0.25000000  0.58490000  0.41510000  1
  H  H35  1  0.41390000  0.57920000  0.21490000  1
  H  H36  1  0.08610000  0.57920000  0.36430000  1
  H  H37  1  0.88780000  0.57270000  0.06710000  1
  H  H38  1  0.61220000  0.57270000  0.50560000  1
  H  H39  1  0.15110000  0.56360000  0.77640000  1
  H  H40  1  0.34890000  0.56360000  0.78720000  1
  H  H41  1  0.11220000  0.50560000  0.57270000  1
  H  H42  1  0.38780000  0.50560000  0.93290000  1
  H  H43  1  0.61220000  0.49440000  0.06710000  1
  H  H44  1  0.88780000  0.49440000  0.42730000  1
  H  H45  1  0.65110000  0.43640000  0.21280000  1
  H  H46  1  0.84890000  0.43640000  0.22360000  1
  H  H47  1  0.38780000  0.42730000  0.49440000  1
  H  H48  1  0.11220000  0.42730000  0.93290000  1
  H  H49  1  0.91390000  0.42080000  0.63570000  1
  H  H50  1  0.58610000  0.42080000  0.78510000  1
  H  H51  1  0.75000000  0.41510000  0.58490000  1
  H  H52  1  0.75000000  0.41510000  0.83020000  1
  H  H53  1  0.58610000  0.36430000  0.57920000  1
  H  H54  1  0.91390000  0.36430000  0.78510000  1
  H  H55  1  0.56480000  0.34510000  0.02420000  1
  H  H56  1  0.93520000  0.34510000  0.32090000  1
  H  H57  1  0.43520000  0.32090000  0.34510000  1
  H  H58  1  0.06480000  0.32090000  0.97580000  1
  H  H59  1  0.83990000  0.28720000  0.10740000  1
  H  H60  1  0.66010000  0.28720000  0.17980000  1
  H  H61  1  0.44660000  0.24360000  0.01400000  1
  H  H62  1  0.05340000  0.24360000  0.22960000  1
  H  H63  1  0.55340000  0.22960000  0.24360000  1
  H  H64  1  0.94660000  0.22960000  0.98600000  1
  H  H65  1  0.34890000  0.22360000  0.43640000  1
  H  H66  1  0.15110000  0.22360000  0.78720000  1
  H  H67  1  0.91390000  0.21490000  0.57920000  1
  H  H68  1  0.58610000  0.21490000  0.63570000  1
  H  H69  1  0.15110000  0.21280000  0.43640000  1
  H  H70  1  0.34890000  0.21280000  0.77640000  1
  H  H71  1  0.16010000  0.17980000  0.28720000  1
  H  H72  1  0.33990000  0.17980000  0.89260000  1
  H  H73  1  0.75000000  0.16980000  0.58490000  1
  H  H74  1  0.33990000  0.10740000  0.28720000  1
  H  H75  1  0.16010000  0.10740000  0.82020000  1
  H  H76  1  0.11220000  0.06710000  0.49440000  1
  H  H77  1  0.38780000  0.06710000  0.57270000  1
  H  H78  1  0.06480000  0.02420000  0.34510000  1
  H  H79  1  0.43520000  0.02420000  0.67910000  1
  H  H80  1  0.94660000  0.01400000  0.24360000  1
  H  H81  1  0.55340000  0.01400000  0.77040000  1
  C  C82  1  0.02199000  0.97538000  0.31925000  1
  C  C83  1  0.47801000  0.97538000  0.65613000  1
  C  C84  1  0.95160000  0.96860000  0.25900000  1
  C  C85  1  0.54840000  0.96860000  0.70960000  1
  C  C86  1  0.66746000  0.96433000  0.45838000  1
  C  C87  1  0.83254000  0.96433000  0.50595000  1
  C  C88  1  0.16893000  0.94201000  0.44674000  1
  C  C89  1  0.33107000  0.94201000  0.49527000  1
  C  C90  1  0.75000000  0.91714000  0.45857000  1
  C  C91  1  0.02579000  0.90565000  0.33940000  1
  C  C92  1  0.47421000  0.90565000  0.56625000  1
  C  C93  1  0.88690000  0.89460000  0.21994000  1
  C  C94  1  0.61310000  0.89460000  0.67466000  1
  C  C95  1  0.25000000  0.89360000  0.44680000  1
  C  C96  1  0.96197000  0.83098000  0.30053000  1
  C  C97  1  0.53803000  0.83098000  0.53045000  1
  C  C98  1  0.89148000  0.82541000  0.23945000  1
  C  C99  1  0.60852000  0.82541000  0.58596000  1
  C  C100  1  0.75000000  0.81497000  0.40749000  1
  C  C101  1  0.05693000  0.81030000  0.38906000  1
  C  C102  1  0.44307000  0.81030000  0.42124000  1
  C  C103  1  0.61310000  0.78006000  0.10540000  1
  C  C104  1  0.88690000  0.78006000  0.67466000  1
  C  C105  1  0.60852000  0.76055000  0.17459000  1
  C  C106  1  0.89148000  0.76055000  0.58596000  1
  C  C107  1  0.54840000  0.74100000  0.03140000  1
  C  C108  1  0.95160000  0.74100000  0.70960000  1
  C  C109  1  0.45160000  0.70960000  0.74100000  1
  C  C110  1  0.04840000  0.70960000  0.96860000  1
  C  C111  1  0.53803000  0.69947000  0.16902000  1
  C  C112  1  0.96197000  0.69947000  0.53045000  1
  C  C113  1  0.47801000  0.68075000  0.02462000  1
  C  C114  1  0.02199000  0.68075000  0.65613000  1
  C  C115  1  0.38690000  0.67466000  0.78006000  1
  C  C116  1  0.11310000  0.67466000  0.89460000  1
  C  C117  1  0.47421000  0.66060000  0.09435000  1
  C  C118  1  0.02579000  0.66060000  0.56625000  1
  C  C119  1  0.52199000  0.65613000  0.68075000  1
  C  C120  1  0.97801000  0.65613000  0.97538000  1
  C  C121  1  0.44307000  0.61094000  0.18970000  1
  C  C122  1  0.05693000  0.61094000  0.42124000  1
  C  C123  1  0.75000000  0.59252000  0.18503000  1
  C  C124  1  0.75000000  0.59251000  0.40748000  1
  C  C125  1  0.39148000  0.58596000  0.76055000  1
  C  C126  1  0.10852000  0.58596000  0.82541000  1
  C  C127  1  0.05693000  0.57876000  0.18970000  1
  C  C128  1  0.44307000  0.57876000  0.38906000  1
  C  C129  1  0.52579000  0.56625000  0.66060000  1
  C  C130  1  0.97421000  0.56625000  0.90565000  1
  C  C131  1  0.33107000  0.55326000  0.05799000  1
  C  C132  1  0.16893000  0.55326000  0.49527000  1
  C  C133  1  0.25000000  0.55320000  0.10640000  1
  C  C134  1  0.25000000  0.55320000  0.44680000  1
  C  C135  1  0.83254000  0.54162000  0.03567000  1
  C  C136  1  0.66746000  0.54162000  0.50595000  1
  C  C137  1  0.75000000  0.54143000  0.08286000  1
  C  C138  1  0.75000000  0.54143000  0.45857000  1
  C  C139  1  0.46197000  0.53045000  0.69947000  1
  C  C140  1  0.03803000  0.53045000  0.83098000  1
  C  C141  1  0.16746000  0.50595000  0.54162000  1
  C  C142  1  0.33254000  0.50595000  0.96433000  1
  C  C143  1  0.16893000  0.50473000  0.05799000  1
  C  C144  1  0.33107000  0.50473000  0.44674000  1
  C  C145  1  0.66893000  0.49527000  0.55326000  1
  C  C146  1  0.83107000  0.49527000  0.94201000  1
  C  C147  1  0.66746000  0.49405000  0.03567000  1
  C  C148  1  0.83254000  0.49405000  0.45838000  1
  C  C149  1  0.96197000  0.46955000  0.16902000  1
  C  C150  1  0.53803000  0.46955000  0.30053000  1
  C  C151  1  0.25000000  0.45857000  0.54143000  1
  C  C152  1  0.25000000  0.45857000  0.91714000  1
  C  C153  1  0.33254000  0.45838000  0.49405000  1
  C  C154  1  0.16746000  0.45838000  0.96433000  1
  C  C155  1  0.75000000  0.44680000  0.55320000  1
  C  C156  1  0.75000000  0.44680000  0.89360000  1
  C  C157  1  0.83107000  0.44674000  0.50473000  1
  C  C158  1  0.66893000  0.44674000  0.94201000  1
  C  C159  1  0.02579000  0.43375000  0.09435000  1
  C  C160  1  0.47421000  0.43375000  0.33940000  1
  C  C161  1  0.55693000  0.42124000  0.61094000  1
  C  C162  1  0.94307000  0.42124000  0.81030000  1
  C  C163  1  0.89148000  0.41404000  0.17459000  1
  C  C164  1  0.60852000  0.41404000  0.23945000  1
  C  C165  1  0.25000000  0.40749000  0.59252000  1
  C  C166  1  0.25000000  0.40748000  0.81497000  1
  C  C167  1  0.94307000  0.38906000  0.57876000  1
  C  C168  1  0.55693000  0.38906000  0.81030000  1
  C  C169  1  0.02199000  0.34387000  0.02462000  1
  C  C170  1  0.47801000  0.34387000  0.31925000  1
  C  C171  1  0.97421000  0.33940000  0.43375000  1
  C  C172  1  0.52579000  0.33940000  0.90565000  1
  C  C173  1  0.88690000  0.32534000  0.10540000  1
  C  C174  1  0.61310000  0.32534000  0.21994000  1
  C  C175  1  0.97801000  0.31925000  0.34387000  1
  C  C176  1  0.52199000  0.31925000  0.97538000  1
  C  C177  1  0.03803000  0.30053000  0.46955000  1
  C  C178  1  0.46197000  0.30053000  0.83098000  1
  C  C179  1  0.95160000  0.29040000  0.03140000  1
  C  C180  1  0.54840000  0.29040000  0.25900000  1
  C  C181  1  0.04840000  0.25900000  0.29040000  1
  C  C182  1  0.45160000  0.25900000  0.96860000  1
  C  C183  1  0.10852000  0.23945000  0.41404000  1
  C  C184  1  0.39148000  0.23945000  0.82541000  1
  C  C185  1  0.11310000  0.21994000  0.32534000  1
  C  C186  1  0.38690000  0.21994000  0.89460000  1
  C  C187  1  0.55693000  0.18970000  0.57876000  1
  C  C188  1  0.94307000  0.18970000  0.61094000  1
  C  C189  1  0.25000000  0.18503000  0.59252000  1
  C  C190  1  0.39148000  0.17459000  0.41404000  1
  C  C191  1  0.10852000  0.17459000  0.76055000  1
  C  C192  1  0.46197000  0.16902000  0.46955000  1
  C  C193  1  0.03803000  0.16902000  0.69947000  1
  C  C194  1  0.75000000  0.10640000  0.55320000  1
  C  C195  1  0.38690000  0.10540000  0.32534000  1
  C  C196  1  0.11310000  0.10540000  0.78006000  1
  C  C197  1  0.52579000  0.09435000  0.43375000  1
  C  C198  1  0.97421000  0.09435000  0.66060000  1
  C  C199  1  0.25000000  0.08286000  0.54143000  1
  C  C200  1  0.66893000  0.05799000  0.50473000  1
  C  C201  1  0.83107000  0.05799000  0.55326000  1
  C  C202  1  0.16746000  0.03567000  0.49405000  1
  C  C203  1  0.33254000  0.03567000  0.54162000  1
  C  C204  1  0.45160000  0.03140000  0.29040000  1
  C  C205  1  0.04840000  0.03140000  0.74100000  1
  C  C206  1  0.52199000  0.02462000  0.34387000  1
  C  C207  1  0.97801000  0.02462000  0.68075000  1
  N  N208  1  0.08606000  0.89022000  0.39642000  1
  N  N209  1  0.41394000  0.89022000  0.49380000  1
  N  N210  1  0.98407000  0.77175000  0.33331000  1
  N  N211  1  0.51593000  0.77175000  0.43841667  1
  N  N212  1  0.51593000  0.66666667  0.22822667  1
  N  N213  1  0.98407000  0.66666667  0.43841667  1
  N  N214  1  0.41394000  0.60358000  0.10978000  1
  N  N215  1  0.08606000  0.60358000  0.49380000  1
  N  N216  1  0.98407000  0.56156000  0.22822667  1
  N  N217  1  0.51593000  0.56156000  0.33331000  1
  N  N218  1  0.08606000  0.50620000  0.10978000  1
  N  N219  1  0.41394000  0.50620000  0.39642000  1
  N  N220  1  0.58606000  0.49380000  0.60358000  1
  N  N221  1  0.91394000  0.49380000  0.89022000  1
  N  N222  1  0.48407000  0.43844000  0.66669000  1
  N  N223  1  0.01593000  0.43844000  0.77177333  1
  N  N224  1  0.91394000  0.39642000  0.50620000  1
  N  N225  1  0.58606000  0.39642000  0.89022000  1
  N  N226  1  0.01593000  0.33333333  0.56158333  1
  N  N227  1  0.48407000  0.33333333  0.77177333  1
  N  N228  1  0.48407000  0.22825000  0.56158333  1
  N  N229  1  0.01593000  0.22825000  0.66669000  1
  N  N230  1  0.58606000  0.10978000  0.50620000  1
  N  N231  1  0.91394000  0.10978000  0.60358000  1
  O  O232  1  0.68060000  0.77676000  0.35327000  1
  O  O233  1  0.81940000  0.77676000  0.42349000  1
  O  O234  1  0.81940000  0.64673000  0.22324000  1
  O  O235  1  0.68060000  0.64673000  0.42349000  1
  O  O236  1  0.68060000  0.57651000  0.22324000  1
  O  O237  1  0.81940000  0.57651000  0.35327000  1
  O  O238  1  0.18060000  0.42349000  0.64673000  1
  O  O239  1  0.31940000  0.42349000  0.77676000  1
  O  O240  1  0.31940000  0.35327000  0.57651000  1
  O  O241  1  0.18060000  0.35327000  0.77676000  1
  O  O242  1  0.18060000  0.22324000  0.57651000  1
  O  O243  1  0.31940000  0.22324000  0.64673000  1
