# generated using pymatgen
data_YH3(C3O2)3
_symmetry_space_group_name_H-M   'P 1'
_cell_length_a   13.02450000
_cell_length_b   13.02450000
_cell_length_c   16.79026175
_cell_angle_alpha   111.50254734
_cell_angle_beta   111.50254734
_cell_angle_gamma   93.15140000
_symmetry_Int_Tables_number   1
_chemical_formula_structural   YH3(C3O2)3
_chemical_formula_sum   'Y8 H24 C72 O48'
_cell_volume   2405.89245803
_cell_formula_units_Z   8
loop_
 _symmetry_equiv_pos_site_id
 _symmetry_equiv_pos_as_xyz
  1  'x, y, z'
loop_
 _atom_site_type_symbol
 _atom_site_label
 _atom_site_symmetry_multiplicity
 _atom_site_fract_x
 _atom_site_fract_y
 _atom_site_fract_z
 _atom_site_occupancy
  Y  Y0  1  0.36659000  0.37447000  0.22830000  1
  Y  Y1  1  0.25804000  0.75804000  0.51608000  1
  Y  Y2  1  0.62447000  0.11659000  0.72830000  1
  Y  Y3  1  0.49617000  0.49617000  0.99234000  1
  Y  Y4  1  0.86171000  0.85383000  0.22830000  1
  Y  Y5  1  0.74617000  0.24617000  0.49234000  1
  Y  Y6  1  0.10383000  0.61171000  0.72830000  1
  Y  Y7  1  0.00804000  0.00804000  0.01608000  1
  H  H8  1  0.68820000  0.93140000  0.86840000  1
  H  H9  1  0.18020000  0.93700000  0.86840000  1
  H  H10  1  0.18140000  0.43820000  0.36840000  1
  H  H11  1  0.68890000  0.42930000  0.35540000  1
  H  H12  1  0.99390000  0.63830000  0.47900000  1
  H  H13  1  0.40800000  0.23000000  0.00100000  1
  H  H14  1  0.09070000  0.23510000  0.97900000  1
  H  H15  1  0.35330000  0.01770000  0.73660000  1
  H  H16  1  0.48510000  0.84070000  0.47900000  1
  H  H17  1  0.78190000  0.58630000  0.21800000  1
  H  H18  1  0.43610000  0.63170000  0.21800000  1
  H  H19  1  0.88170000  0.18610000  0.71800000  1
  H  H20  1  0.17610000  0.41650000  0.85540000  1
  H  H21  1  0.18700000  0.93020000  0.36840000  1
  H  H22  1  0.66650000  0.92610000  0.35540000  1
  H  H23  1  0.67930000  0.43890000  0.85540000  1
  H  H24  1  0.48000000  0.15800000  0.50100000  1
  H  H25  1  0.88830000  0.74390000  0.97900000  1
  H  H26  1  0.59300000  0.77100000  0.00100000  1
  H  H27  1  0.83630000  0.53190000  0.71800000  1
  H  H28  1  0.02100000  0.34300000  0.50100000  1
  H  H29  1  0.26770000  0.10330000  0.23660000  1
  H  H30  1  0.96890000  0.13330000  0.23660000  1
  H  H31  1  0.38330000  0.71890000  0.73660000  1
  C  C32  1  0.63390000  0.88210000  0.86860000  1
  C  C33  1  0.13210000  0.38390000  0.36860000  1
  C  C34  1  0.53180000  0.83200000  0.79040000  1
  C  C35  1  0.10930000  0.25550000  0.20700000  1
  C  C36  1  0.26470000  0.11610000  0.03280000  1
  C  C37  1  0.84270000  0.52850000  0.42980000  1
  C  C38  1  0.23470000  0.98650000  0.86860000  1
  C  C39  1  0.74140000  0.47920000  0.35400000  1
  C  C40  1  0.29030000  0.08650000  0.94640000  1
  C  C41  1  0.20150000  0.84770000  0.70700000  1
  C  C42  1  0.50550000  0.85930000  0.70700000  1
  C  C43  1  0.25860000  0.95840000  0.79040000  1
  C  C44  1  0.92480000  0.60260000  0.42720000  1
  C  C45  1  0.37090000  0.16250000  0.94780000  1
  C  C46  1  0.71370000  0.50150000  0.27360000  1
  C  C47  1  0.33870000  0.03510000  0.78980000  1
  C  C48  1  0.59830000  0.45470000  0.19460000  1
  C  C49  1  0.89500000  0.10380000  0.84320000  1
  C  C50  1  0.39670000  0.13790000  0.86880000  1
  C  C51  1  0.90050000  0.62070000  0.34660000  1
  C  C52  1  0.79700000  0.57220000  0.27120000  1
  C  C53  1  0.35380000  0.64500000  0.34320000  1
  C  C54  1  0.07460000  0.25240000  0.92720000  1
  C  C55  1  0.47880000  0.21600000  0.86720000  1
  C  C56  1  0.97590000  0.19610000  0.84660000  1
  C  C57  1  0.98940000  0.69820000  0.34320000  1
  C  C58  1  0.44610000  0.72590000  0.34660000  1
  C  C59  1  0.26060000  0.39480000  0.01380000  1
  C  C60  1  0.50240000  0.82460000  0.42720000  1
  C  C61  1  0.15130000  0.33710000  0.92980000  1
  C  C62  1  0.47420000  0.69900000  0.27120000  1
  C  C63  1  0.94900000  0.22420000  0.77120000  1
  C  C64  1  0.58710000  0.90130000  0.42980000  1
  C  C65  1  0.36610000  0.01470000  0.53280000  1
  C  C66  1  0.64480000  0.01060000  0.51380000  1
  C  C67  1  0.55990000  0.77210000  0.27360000  1
  C  C68  1  0.12480000  0.36260000  0.85400000  1
  C  C69  1  0.61260000  0.87480000  0.35400000  1
  C  C70  1  0.02210000  0.30990000  0.77360000  1
  C  C71  1  0.59630000  0.73990000  0.19460000  1
  C  C72  1  0.33650000  0.04030000  0.44640000  1
  C  C73  1  0.75320000  0.61900000  0.01380000  1
  C  C74  1  0.23650000  0.98470000  0.36860000  1
  C  C75  1  0.72920000  0.49140000  0.85400000  1
  C  C76  1  0.98990000  0.34630000  0.69460000  1
  C  C77  1  0.70470000  0.34830000  0.69460000  1
  C  C78  1  0.77850000  0.59270000  0.92980000  1
  C  C79  1  0.41250000  0.12090000  0.44780000  1
  C  C80  1  0.75150000  0.46370000  0.77360000  1
  C  C81  1  0.20840000  0.00860000  0.29040000  1
  C  C82  1  0.09770000  0.95150000  0.20700000  1
  C  C83  1  0.85260000  0.67480000  0.92720000  1
  C  C84  1  0.90120000  0.13840000  0.36720000  1
  C  C85  1  0.82220000  0.54700000  0.77120000  1
  C  C86  1  0.38790000  0.14670000  0.36880000  1
  C  C87  1  0.38840000  0.65120000  0.86720000  1
  C  C88  1  0.28510000  0.08870000  0.28980000  1
  C  C89  1  0.87070000  0.65050000  0.84660000  1
  C  C90  1  0.57690000  0.78530000  0.94780000  1
  C  C91  1  0.98090000  0.22210000  0.36880000  1
  C  C92  1  0.46600000  0.22880000  0.36720000  1
  C  C93  1  0.47210000  0.73090000  0.86880000  1
  C  C94  1  0.03530000  0.32690000  0.44780000  1
  C  C95  1  0.76810000  0.91670000  0.03280000  1
  C  C96  1  0.94820000  0.73940000  0.84320000  1
  C  C97  1  0.00470000  0.20110000  0.28980000  1
  C  C98  1  0.65610000  0.85990000  0.94640000  1
  C  C99  1  0.10990000  0.40610000  0.44640000  1
  C  C100  1  0.45110000  0.75470000  0.78980000  1
  C  C101  1  0.16670000  0.51810000  0.53280000  1
  C  C102  1  0.86900000  0.50320000  0.51380000  1
  C  C103  1  0.08200000  0.28180000  0.29040000  1
  O  O104  1  0.17920000  0.05660000  0.02480000  1
  O  O105  1  0.04550000  0.17910000  0.13120000  1
  O  O106  1  0.15270000  0.77310000  0.71940000  1
  O  O107  1  0.21820000  0.59560000  0.52480000  1
  O  O108  1  0.32980000  0.19860000  0.10800000  1
  O  O109  1  0.19630000  0.31670000  0.21940000  1
  O  O110  1  0.92830000  0.06830000  0.90560000  1
  O  O111  1  0.42910000  0.79550000  0.63120000  1
  O  O112  1  0.20210000  0.83570000  0.63120000  1
  O  O113  1  0.52350000  0.41310000  0.20840000  1
  O  O114  1  0.56670000  0.94630000  0.71940000  1
  O  O115  1  0.31830000  0.67830000  0.40560000  1
  O  O116  1  0.31770000  0.55010000  0.27460000  1
  O  O117  1  0.80010000  0.06770000  0.77460000  1
  O  O118  1  0.27010000  0.39630000  0.09160000  1
  O  O119  1  0.08730000  0.72730000  0.40560000  1
  O  O120  1  0.58650000  0.45990000  0.12020000  1
  O  O121  1  0.51140000  0.18100000  0.80100000  1
  O  O122  1  0.52150000  0.31510000  0.93460000  1
  O  O123  1  0.30660000  0.92920000  0.52480000  1
  O  O124  1  0.64630000  0.02010000  0.59160000  1
  O  O125  1  0.33820000  0.44440000  0.00220000  1
  O  O126  1  0.95690000  0.72450000  0.27460000  1
  O  O127  1  0.44860000  0.07980000  0.60800000  1
  O  O128  1  0.53370000  0.66030000  0.12020000  1
  O  O129  1  0.66400000  0.55780000  0.00220000  1
  O  O130  1  0.66310000  0.27350000  0.70840000  1
  O  O131  1  0.69440000  0.08820000  0.50220000  1
  O  O132  1  0.68490000  0.79530000  0.20840000  1
  O  O133  1  0.82150000  0.69530000  0.09160000  1
  O  O134  1  0.91030000  0.28370000  0.62020000  1
  O  O135  1  0.02310000  0.90270000  0.21940000  1
  O  O136  1  0.41310000  0.61950000  0.93460000  1
  O  O137  1  0.70990000  0.33650000  0.62020000  1
  O  O138  1  0.04530000  0.43490000  0.70840000  1
  O  O139  1  0.86950000  0.16310000  0.43460000  1
  O  O140  1  0.87000000  0.03960000  0.30100000  1
  O  O141  1  0.77820000  0.90940000  0.10800000  1
  O  O142  1  0.28960000  0.62000000  0.80100000  1
  O  O143  1  0.08570000  0.95210000  0.13120000  1
  O  O144  1  0.56510000  0.27150000  0.43460000  1
  O  O145  1  0.80780000  0.41400000  0.50220000  1
  O  O146  1  0.15940000  0.52820000  0.60800000  1
  O  O147  1  0.97730000  0.83730000  0.90560000  1
  O  O148  1  0.97450000  0.70690000  0.77460000  1
  O  O149  1  0.84560000  0.96820000  0.02480000  1
  O  O150  1  0.43100000  0.26140000  0.30100000  1
  O  O151  1  0.94530000  0.57150000  0.59160000  1
