# generated using pymatgen
data_InH3C9O7
_symmetry_space_group_name_H-M   'P 1'
_cell_length_a   7.31810000
_cell_length_b   10.57890000
_cell_length_c   17.02000000
_cell_angle_alpha   90.00000000
_cell_angle_beta   90.00000000
_cell_angle_gamma   102.65100000
_symmetry_Int_Tables_number   1
_chemical_formula_structural   InH3C9O7
_chemical_formula_sum   'In4 H12 C36 O28'
_cell_volume   1285.65544835
_cell_formula_units_Z   4
loop_
 _symmetry_equiv_pos_site_id
 _symmetry_equiv_pos_as_xyz
  1  'x, y, z'
loop_
 _atom_site_type_symbol
 _atom_site_label
 _atom_site_symmetry_multiplicity
 _atom_site_fract_x
 _atom_site_fract_y
 _atom_site_fract_z
 _atom_site_occupancy
  In  In0  1  0.79907000  0.73791000  0.54657000  1
  In  In1  1  0.69333000  0.18043000  0.10186000  1
  In  In2  1  0.30667000  0.81957000  0.60186000  1
  In  In3  1  0.20093000  0.26209000  0.04657000  1
  H  H4  1  0.95410000  0.79370000  0.01730000  1
  H  H5  1  0.93010000  0.00730000  0.31560000  1
  H  H6  1  0.80670000  0.61960000  0.81170000  1
  H  H7  1  0.71870000  0.42940000  0.34500000  1
  H  H8  1  0.54060000  0.25630000  0.54850000  1
  H  H9  1  0.53840000  0.94720000  0.84970000  1
  H  H10  1  0.46160000  0.05280000  0.34970000  1
  H  H11  1  0.45940000  0.74370000  0.04850000  1
  H  H12  1  0.28130000  0.57060000  0.84500000  1
  H  H13  1  0.19330000  0.38040000  0.31170000  1
  H  H14  1  0.06990000  0.99270000  0.81560000  1
  H  H15  1  0.04590000  0.20630000  0.51730000  1
  C  C16  1  0.98100000  0.08390000  0.34200000  1
  C  C17  1  0.97570000  0.08530000  0.42280000  1
  C  C18  1  0.95300000  0.79660000  0.96270000  1
  C  C19  1  0.94400000  0.81100000  0.71070000  1
  C  C20  1  0.94100000  0.80750000  0.79920000  1
  C  C21  1  0.90200000  0.96490000  0.47050000  1
  C  C22  1  0.88250000  0.68850000  0.92080000  1
  C  C23  1  0.86670000  0.69290000  0.83930000  1
  C  C24  1  0.81600000  0.56120000  0.96220000  1
  C  C25  1  0.70100000  0.49390000  0.49380000  1
  C  C26  1  0.65700000  0.35710000  0.37310000  1
  C  C27  1  0.63900000  0.36470000  0.45350000  1
  C  C28  1  0.61000000  0.22780000  0.24810000  1
  C  C29  1  0.59800000  0.98420000  0.99880000  1
  C  C30  1  0.58300000  0.24100000  0.33333333  1
  C  C31  1  0.55380000  0.25260000  0.49430000  1
  C  C32  1  0.51220000  0.86500000  0.95540000  1
  C  C33  1  0.50400000  0.13080000  0.37590000  1
  C  C34  1  0.49600000  0.86920000  0.87590000  1
  C  C35  1  0.48780000  0.13500000  0.45540000  1
  C  C36  1  0.44620000  0.74740000  0.99430000  1
  C  C37  1  0.41700000  0.75900000  0.83340000  1
  C  C38  1  0.40200000  0.01580000  0.49880000  1
  C  C39  1  0.39000000  0.77220000  0.74810000  1
  C  C40  1  0.36100000  0.63530000  0.95350000  1
  C  C41  1  0.34300000  0.64290000  0.87310000  1
  C  C42  1  0.29900000  0.50610000  0.99380000  1
  C  C43  1  0.18400000  0.43880000  0.46220000  1
  C  C44  1  0.13330000  0.30710000  0.33930000  1
  C  C45  1  0.11750000  0.31150000  0.42080000  1
  C  C46  1  0.09800000  0.03510000  0.97050000  1
  C  C47  1  0.05900000  0.19250000  0.29920000  1
  C  C48  1  0.05600000  0.18900000  0.21070000  1
  C  C49  1  0.04700000  0.20340000  0.46270000  1
  C  C50  1  0.02430000  0.91470000  0.92280000  1
  C  C51  1  0.01900000  0.91610000  0.84200000  1
  O  O52  1  0.91970000  0.29060000  0.04980000  1
  O  O53  1  0.91600000  0.11270000  0.17960000  1
  O  O54  1  0.88890000  0.96520000  0.54280000  1
  O  O55  1  0.88330000  0.54980000  0.02870000  1
  O  O56  1  0.85550000  0.85730000  0.43270000  1
  O  O57  1  0.80680000  0.74090000  0.67150000  1
  O  O58  1  0.74590000  0.59040000  0.45040000  1
  O  O59  1  0.71750000  0.32100000  0.21080000  1
  O  O60  1  0.70280000  0.49890000  0.56670000  1
  O  O61  1  0.70000000  0.46790000  0.93060000  1
  O  O62  1  0.66910000  0.08180000  0.96330000  1
  O  O63  1  0.58600000  0.98040000  0.07480000  1
  O  O64  1  0.53800000  0.12650000  0.21250000  1
  O  O65  1  0.50440000  0.73280000  0.54900000  1
  O  O66  1  0.49560000  0.26720000  0.04900000  1
  O  O67  1  0.46200000  0.87350000  0.71250000  1
  O  O68  1  0.41400000  0.01960000  0.57480000  1
  O  O69  1  0.33090000  0.91820000  0.46330000  1
  O  O70  1  0.30000000  0.53210000  0.43060000  1
  O  O71  1  0.29720000  0.50110000  0.06670000  1
  O  O72  1  0.28250000  0.67900000  0.71080000  1
  O  O73  1  0.25410000  0.40960000  0.95040000  1
  O  O74  1  0.19320000  0.25910000  0.17150000  1
  O  O75  1  0.14450000  0.14270000  0.93270000  1
  O  O76  1  0.11670000  0.45020000  0.52870000  1
  O  O77  1  0.11110000  0.03480000  0.04280000  1
  O  O78  1  0.08400000  0.88730000  0.67960000  1
  O  O79  1  0.08030000  0.70940000  0.54980000  1
