# generated using pymatgen
data_AgH8(CN)2
_symmetry_space_group_name_H-M   'P 1'
_cell_length_a   5.97570000
_cell_length_b   13.63288444
_cell_length_c   13.63288444
_cell_angle_alpha   92.16133662
_cell_angle_beta   97.92860964
_cell_angle_gamma   97.92860964
_symmetry_Int_Tables_number   1
_chemical_formula_structural   AgH8(CN)2
_chemical_formula_sum   'Ag8 H64 C16 N16'
_cell_volume   1087.66098411
_cell_formula_units_Z   8
loop_
 _symmetry_equiv_pos_site_id
 _symmetry_equiv_pos_as_xyz
  1  'x, y, z'
loop_
 _atom_site_type_symbol
 _atom_site_label
 _atom_site_symmetry_multiplicity
 _atom_site_fract_x
 _atom_site_fract_y
 _atom_site_fract_z
 _atom_site_occupancy
  Ag  Ag0  1  0.00000000  0.00000000  0.00000000  1
  Ag  Ag1  1  0.50000000  0.00000000  0.00000000  1
  Ag  Ag2  1  0.00000000  0.50000000  0.50000000  1
  Ag  Ag3  1  0.50000000  0.50000000  0.50000000  1
  Ag  Ag4  1  0.50000000  1.00000000  0.50000000  1
  Ag  Ag5  1  0.00000000  1.00000000  0.50000000  1
  Ag  Ag6  1  0.50000000  0.50000000  1.00000000  1
  Ag  Ag7  1  0.00000000  0.50000000  1.00000000  1
  C  C8  1  0.76800000  0.01890000  0.80310000  1
  C  C9  1  0.26800000  0.80310000  0.01890000  1
  C  C10  1  0.28260000  0.30930000  0.51030000  1
  C  C11  1  0.78260000  0.51030000  0.30930000  1
  C  C12  1  0.23860000  0.19780000  0.49580000  1
  C  C13  1  0.73860000  0.49580000  0.19780000  1
  C  C14  1  0.71860000  0.98060000  0.69600000  1
  C  C15  1  0.21860000  0.69600000  0.98060000  1
  C  C16  1  0.28140000  0.01940000  0.30400000  1
  C  C17  1  0.78140000  0.30400000  0.01940000  1
  C  C18  1  0.76140000  0.80220000  0.50420000  1
  C  C19  1  0.26140000  0.50420000  0.80220000  1
  C  C20  1  0.71740000  0.69070000  0.48970000  1
  C  C21  1  0.21740000  0.48970000  0.69070000  1
  C  C22  1  0.23200000  0.98110000  0.19690000  1
  C  C23  1  0.73200000  0.19690000  0.98110000  1
  H  H24  1  0.35600000  0.32800000  0.57760000  1
  H  H25  1  0.85600000  0.57760000  0.32800000  1
  H  H26  1  0.84040000  0.08750000  0.80910000  1
  H  H27  1  0.34040000  0.80910000  0.08750000  1
  H  H28  1  0.62930000  0.01380000  0.83300000  1
  H  H29  1  0.12930000  0.83300000  0.01380000  1
  H  H30  1  0.13850000  0.33520000  0.50080000  1
  H  H31  1  0.63850000  0.50080000  0.33520000  1
  H  H32  1  0.05480000  0.95850000  0.82190000  1
  H  H33  1  0.55480000  0.82190000  0.95850000  1
  H  H34  1  0.18260000  0.15080000  0.62920000  1
  H  H35  1  0.68260000  0.62920000  0.15080000  1
  H  H36  1  0.65870000  0.11340000  0.65840000  1
  H  H37  1  0.15870000  0.65840000  0.11340000  1
  H  H38  1  0.55500000  0.32420000  0.44180000  1
  H  H39  1  0.05500000  0.44180000  0.32420000  1
  H  H40  1  0.97670000  0.18130000  0.57430000  1
  H  H41  1  0.47670000  0.57430000  0.18130000  1
  H  H42  1  0.85920000  0.88930000  0.84270000  1
  H  H43  1  0.35920000  0.84270000  0.88930000  1
  H  H44  1  0.45220000  0.05170000  0.68010000  1
  H  H45  1  0.95220000  0.68010000  0.05170000  1
  H  H46  1  0.35240000  0.34830000  0.37850000  1
  H  H47  1  0.85240000  0.37850000  0.34830000  1
  H  H48  1  0.38340000  0.17240000  0.50200000  1
  H  H49  1  0.88340000  0.50200000  0.17240000  1
  H  H50  1  0.85780000  0.98120000  0.66680000  1
  H  H51  1  0.35780000  0.66680000  0.98120000  1
  H  H52  1  0.15950000  0.17930000  0.42930000  1
  H  H53  1  0.65950000  0.42930000  0.17930000  1
  H  H54  1  0.63500000  0.91400000  0.68900000  1
  H  H55  1  0.13500000  0.68900000  0.91400000  1
  H  H56  1  0.36500000  0.08600000  0.31100000  1
  H  H57  1  0.86500000  0.31100000  0.08600000  1
  H  H58  1  0.84050000  0.82070000  0.57070000  1
  H  H59  1  0.34050000  0.57070000  0.82070000  1
  H  H60  1  0.14220000  0.01880000  0.33320000  1
  H  H61  1  0.64220000  0.33320000  0.01880000  1
  H  H62  1  0.61660000  0.82760000  0.49800000  1
  H  H63  1  0.11660000  0.49800000  0.82760000  1
  H  H64  1  0.64760000  0.65170000  0.62150000  1
  H  H65  1  0.14760000  0.62150000  0.65170000  1
  H  H66  1  0.54780000  0.94830000  0.31990000  1
  H  H67  1  0.04780000  0.31990000  0.94830000  1
  H  H68  1  0.14080000  0.11070000  0.15730000  1
  H  H69  1  0.64080000  0.15730000  0.11070000  1
  H  H70  1  0.02330000  0.81870000  0.42570000  1
  H  H71  1  0.52330000  0.42570000  0.81870000  1
  H  H72  1  0.44500000  0.67580000  0.55820000  1
  H  H73  1  0.94500000  0.55820000  0.67580000  1
  H  H74  1  0.34130000  0.88660000  0.34160000  1
  H  H75  1  0.84130000  0.34160000  0.88660000  1
  H  H76  1  0.81740000  0.84920000  0.37080000  1
  H  H77  1  0.31740000  0.37080000  0.84920000  1
  H  H78  1  0.94520000  0.04150000  0.17810000  1
  H  H79  1  0.44520000  0.17810000  0.04150000  1
  H  H80  1  0.86150000  0.66480000  0.49920000  1
  H  H81  1  0.36150000  0.49920000  0.66480000  1
  H  H82  1  0.37070000  0.98620000  0.16700000  1
  H  H83  1  0.87070000  0.16700000  0.98620000  1
  H  H84  1  0.15960000  0.91250000  0.19090000  1
  H  H85  1  0.65960000  0.19090000  0.91250000  1
  H  H86  1  0.64400000  0.67200000  0.42240000  1
  H  H87  1  0.14400000  0.42240000  0.67200000  1
  N  N88  1  0.92610000  0.95310000  0.84990000  1
  N  N89  1  0.42610000  0.84990000  0.95310000  1
  N  N90  1  0.42740000  0.35260000  0.44080000  1
  N  N91  1  0.92740000  0.44080000  0.35260000  1
  N  N92  1  0.09900000  0.15090000  0.56910000  1
  N  N93  1  0.59900000  0.56910000  0.15090000  1
  N  N94  1  0.57960000  0.05160000  0.65200000  1
  N  N95  1  0.07960000  0.65200000  0.05160000  1
  N  N96  1  0.42040000  0.94840000  0.34800000  1
  N  N97  1  0.92040000  0.34800000  0.94840000  1
  N  N98  1  0.90100000  0.84910000  0.43090000  1
  N  N99  1  0.40100000  0.43090000  0.84910000  1
  N  N100  1  0.57260000  0.64740000  0.55920000  1
  N  N101  1  0.07260000  0.55920000  0.64740000  1
  N  N102  1  0.07390000  0.04690000  0.15010000  1
  N  N103  1  0.57390000  0.15010000  0.04690000  1
