# generated using pymatgen
data_Cd3H28C32N5O14
_symmetry_space_group_name_H-M   'P 1'
_cell_length_a   6.89100000
_cell_length_b   11.96181670
_cell_length_c   14.41320000
_cell_angle_alpha   105.89650919
_cell_angle_beta   90.00000000
_cell_angle_gamma   106.74074163
_symmetry_Int_Tables_number   1
_chemical_formula_structural   Cd3H28C32N5O14
_chemical_formula_sum   'Cd3 H28 C32 N5 O14'
_cell_volume   1090.18089299
_cell_formula_units_Z   1
loop_
 _symmetry_equiv_pos_site_id
 _symmetry_equiv_pos_as_xyz
  1  'x, y, z'
loop_
 _atom_site_type_symbol
 _atom_site_label
 _atom_site_symmetry_multiplicity
 _atom_site_fract_x
 _atom_site_fract_y
 _atom_site_fract_z
 _atom_site_occupancy
  C  C0  1  0.88820000  0.89840000  0.01780000  1
  C  C1  1  0.28690000  0.89640000  0.18850000  1
  C  C2  1  0.73860000  0.88520000  0.95950000  1
  C  C3  1  0.27740000  0.83500000  0.34330000  1
  C  C4  1  0.30370000  0.81080000  0.24530000  1
  C  C5  1  0.26990000  0.77680000  0.49860000  1
  C  C6  1  0.29360000  0.75060000  0.39290000  1
  C  C7  1  0.25250000  0.70560000  0.83380000  1
  C  C8  1  0.34320000  0.70120000  0.19500000  1
  C  C9  1  0.32480000  0.63980000  0.34080000  1
  C  C10  1  0.21040000  0.62140000  0.89880000  1
  C  C11  1  0.35180000  0.61660000  0.24340000  1
  C  C12  1  0.73870000  0.60180000  0.16110000  1
  C  C13  1  0.39640000  0.58180000  0.91940000  1
  C  C14  1  0.85220000  0.55220000  0.07820000  1
  C  C15  1  0.88110000  0.50400000  0.80970000  1
  C  C16  1  0.37710000  0.49600000  0.19030000  1
  C  C17  1  0.30000000  0.44780000  0.92180000  1
  C  C18  1  0.81460000  0.41820000  0.08060000  1
  C  C19  1  0.13690000  0.39820000  0.83890000  1
  C  C20  1  0.73520000  0.38340000  0.75660000  1
  C  C21  1  0.58900000  0.37860000  0.10120000  1
  C  C22  1  0.68500000  0.36020000  0.65920000  1
  C  C23  1  0.64200000  0.29880000  0.80500000  1
  C  C24  1  0.54690000  0.29440000  0.16620000  1
  C  C25  1  0.54300000  0.24940000  0.60710000  1
  C  C26  1  0.49310000  0.22320000  0.50140000  1
  C  C27  1  0.49290000  0.18920000  0.75470000  1
  C  C28  1  0.44240000  0.16500000  0.65670000  1
  C  C29  1  0.85340000  0.11480000  0.04050000  1
  C  C30  1  0.39050000  0.10360000  0.81150000  1
  C  C31  1  0.98980000  0.10160000  0.98220000  1
  Cd  Cd32  1  0.37190000  1.00000000  1.00000000  1
  Cd  Cd33  1  0.25730000  0.82600000  0.69339000  1
  Cd  Cd34  1  0.43130000  0.17400000  0.30661000  1
  H  H35  1  0.85420000  0.92120000  0.08420000  1
  H  H36  1  0.24940000  0.90640000  0.37640000  1
  H  H37  1  0.76160000  0.83740000  0.89680000  1
  H  H38  1  0.61920000  0.83460000  0.98030000  1
  H  H39  1  0.92300000  0.82300000  0.00560000  1
  H  H40  1  0.36340000  0.68580000  0.12950000  1
  H  H41  1  0.70350000  0.67200000  0.15380000  1
  H  H42  1  0.16200000  0.66000000  0.95970000  1
  H  H43  1  0.47010000  0.63240000  0.98100000  1
  H  H44  1  0.81670000  0.62380000  0.22290000  1
  H  H45  1  0.99600000  0.59660000  0.08840000  1
  H  H46  1  0.48820000  0.58580000  0.86860000  1
  H  H47  1  0.32710000  0.58200000  0.37240000  1
  H  H48  1  0.79760000  0.55520000  0.01730000  1
  H  H49  1  0.24240000  0.44480000  0.98270000  1
  H  H50  1  0.74510000  0.41800000  0.62760000  1
  H  H51  1  0.90240000  0.41420000  0.13140000  1
  H  H52  1  0.39940000  0.40340000  0.91160000  1
  H  H53  1  0.19290000  0.37620000  0.77710000  1
  H  H54  1  0.83770000  0.36760000  0.01900000  1
  H  H55  1  0.50200000  0.34000000  0.04030000  1
  H  H56  1  0.03150000  0.32800000  0.84620000  1
  H  H57  1  0.67760000  0.31420000  0.87050000  1
  H  H58  1  0.10000000  0.17700000  0.99440000  1
  H  H59  1  0.78460000  0.16540000  0.01970000  1
  H  H60  1  0.92420000  0.16260000  0.10320000  1
  H  H61  1  0.34300000  0.09360000  0.62360000  1
  H  H62  1  0.93300000  0.07880000  0.91580000  1
  N  N63  1  0.06800000  1.00000000  1.00000000  1
  N  N64  1  0.68000000  0.98600000  0.94250000  1
  N  N65  1  0.05930000  0.50380000  0.84870000  1
  N  N66  1  0.55550000  0.49620000  0.15130000  1
  N  N67  1  0.69400000  0.01400000  0.05750000  1
  O  O68  1  0.22492000  0.98724000  0.23210000  1
  O  O69  1  0.32280000  0.87320000  0.10250000  1
  O  O70  1  0.19730000  0.86060000  0.54180000  1
  O  O71  1  0.27564000  0.81688000  0.87020000  1
  O  O72  1  0.32850000  0.71340000  0.54360000  1
  O  O73  1  0.25960000  0.66040000  0.74430000  1
  O  O74  1  0.83950000  0.60020000  0.81780000  1
  O  O75  1  0.23930000  0.39980000  0.18220000  1
  O  O76  1  0.59920000  0.33960000  0.25570000  1
  O  O77  1  0.61510000  0.28660000  0.45640000  1
  O  O78  1  0.45876000  0.18312000  0.12980000  1
  O  O79  1  0.33670000  0.13940000  0.45820000  1
  O  O80  1  0.44960000  0.12680000  0.89750000  1
  O  O81  1  0.23768000  0.01276000  0.76790000  1
