# generated using pymatgen
data_MnH8C13(NO2)2
_symmetry_space_group_name_H-M   'P 1'
_cell_length_a   11.13120000
_cell_length_b   11.68100000
_cell_length_c   12.66767783
_cell_angle_alpha   109.35676371
_cell_angle_beta   116.06269662
_cell_angle_gamma   90.00000000
_symmetry_Int_Tables_number   1
_chemical_formula_structural   MnH8C13(NO2)2
_chemical_formula_sum   'Mn4 H32 C52 N8 O16'
_cell_volume   1375.21117808
_cell_formula_units_Z   4
loop_
 _symmetry_equiv_pos_site_id
 _symmetry_equiv_pos_as_xyz
  1  'x, y, z'
loop_
 _atom_site_type_symbol
 _atom_site_label
 _atom_site_symmetry_multiplicity
 _atom_site_fract_x
 _atom_site_fract_y
 _atom_site_fract_z
 _atom_site_occupancy
  C  C0  1  0.02675000  0.05520000  0.04250000  1
  C  C1  1  0.01575000  0.55520000  0.04250000  1
  C  C2  1  0.26150000  0.60420000  0.08900000  1
  C  C3  1  0.82750000  0.10420000  0.08900000  1
  C  C4  1  0.14953000  0.63580000  0.10646000  1
  C  C5  1  0.95693000  0.13580000  0.10646000  1
  C  C6  1  0.38120000  0.68860000  0.15680000  1
  C  C7  1  0.77560000  0.18860000  0.15680000  1
  C  C8  1  0.16548000  0.75050000  0.19056000  1
  C  C9  1  0.02508000  0.25050000  0.19056000  1
  C  C10  1  0.28795000  0.82800000  0.25490000  1
  C  C11  1  0.96695000  0.32800000  0.25490000  1
  C  C12  1  0.48051000  0.25196000  0.26124000  1
  C  C13  1  0.78073000  0.75196000  0.26124000  1
  C  C14  1  0.37389000  0.42758000  0.33928000  1
  C  C15  1  0.96539000  0.92758000  0.33928000  1
  C  C16  1  0.41679000  0.31661000  0.34378000  1
  C  C17  1  0.92699000  0.81661000  0.34378000  1
  C  C18  1  0.31917000  0.48884000  0.41688000  1
  C  C19  1  0.09771000  0.98884000  0.41688000  1
  C  C20  1  0.39865000  0.27041000  0.42496000  1
  C  C21  1  0.02631000  0.77041000  0.42496000  1
  C  C22  1  0.43793000  0.14971000  0.43516000  1
  C  C23  1  0.99723000  0.64971000  0.43516000  1
  C  C24  1  0.34236000  0.33856000  0.49950000  1
  C  C25  1  0.15714000  0.83856000  0.49950000  1
  C  C26  1  0.65764000  0.66144000  0.50050000  1
  C  C27  1  0.84286000  0.16144000  0.50050000  1
  C  C28  1  0.56207000  0.85029000  0.56484000  1
  C  C29  1  0.00277000  0.35029000  0.56484000  1
  C  C30  1  0.60135000  0.72959000  0.57504000  1
  C  C31  1  0.97369000  0.22959000  0.57504000  1
  C  C32  1  0.68083000  0.51116000  0.58312000  1
  C  C33  1  0.90229000  0.01116000  0.58312000  1
  C  C34  1  0.58321000  0.68339000  0.65622000  1
  C  C35  1  0.07301000  0.18339000  0.65622000  1
  C  C36  1  0.62611000  0.57242000  0.66072000  1
  C  C37  1  0.03461000  0.07242000  0.66072000  1
  C  C38  1  0.51949000  0.74804000  0.73876000  1
  C  C39  1  0.21927000  0.24804000  0.73876000  1
  C  C40  1  0.71205000  0.17200000  0.74510000  1
  C  C41  1  0.03305000  0.67200000  0.74510000  1
  C  C42  1  0.83452000  0.24950000  0.80944000  1
  C  C43  1  0.97492000  0.74950000  0.80944000  1
  C  C44  1  0.61880000  0.31140000  0.84320000  1
  C  C45  1  0.22440000  0.81140000  0.84320000  1
  C  C46  1  0.85047000  0.36420000  0.89354000  1
  C  C47  1  0.04307000  0.86420000  0.89354000  1
  C  C48  1  0.73850000  0.39580000  0.91100000  1
  C  C49  1  0.17250000  0.89580000  0.91100000  1
  C  C50  1  0.97325000  0.94480000  0.95750000  1
  C  C51  1  0.98425000  0.44480000  0.95750000  1
  H  H52  1  0.25630000  0.52700000  0.03240000  1
  H  H53  1  0.77610000  0.02700000  0.03240000  1
  H  H54  1  0.11810000  0.06900000  0.05220000  1
  H  H55  1  0.93410000  0.56900000  0.05220000  1
  H  H56  1  0.45530000  0.66590000  0.14420000  1
  H  H57  1  0.68890000  0.16590000  0.14420000  1
  H  H58  1  0.11150000  0.27650000  0.20440000  1
  H  H59  1  0.09290000  0.77650000  0.20440000  1
  H  H60  1  0.38200000  0.46020000  0.28460000  1
  H  H61  1  0.90260000  0.96020000  0.28460000  1
  H  H62  1  0.29590000  0.90480000  0.31360000  1
  H  H63  1  0.01770000  0.40480000  0.31360000  1
  H  H64  1  0.29090000  0.56290000  0.41280000  1
  H  H65  1  0.12190000  0.06290000  0.41280000  1
  H  H66  1  0.66970000  0.69310000  0.44680000  1
  H  H67  1  0.77710000  0.19310000  0.44680000  1
  H  H68  1  0.33030000  0.30690000  0.55320000  1
  H  H69  1  0.22290000  0.80690000  0.55320000  1
  H  H70  1  0.70910000  0.43710000  0.58720000  1
  H  H71  1  0.87810000  0.93710000  0.58720000  1
  H  H72  1  0.70410000  0.09520000  0.68640000  1
  H  H73  1  0.98230000  0.59520000  0.68640000  1
  H  H74  1  0.61800000  0.53980000  0.71540000  1
  H  H75  1  0.09740000  0.03980000  0.71540000  1
  H  H76  1  0.88850000  0.72350000  0.79560000  1
  H  H77  1  0.90710000  0.22350000  0.79560000  1
  H  H78  1  0.54470000  0.33410000  0.85580000  1
  H  H79  1  0.31110000  0.83410000  0.85580000  1
  H  H80  1  0.88190000  0.93100000  0.94780000  1
  H  H81  1  0.06590000  0.43100000  0.94780000  1
  H  H82  1  0.74370000  0.47300000  0.96760000  1
  H  H83  1  0.22390000  0.97300000  0.96760000  1
  Mn  Mn84  1  0.59596000  0.93719000  0.35958000  1
  Mn  Mn85  1  0.76362000  0.43719000  0.35958000  1
  Mn  Mn86  1  0.40404000  0.06281000  0.64042000  1
  Mn  Mn87  1  0.23638000  0.56281000  0.64042000  1
  N  N88  1  0.39557000  0.80040000  0.23888000  1
  N  N89  1  0.84331000  0.30040000  0.23888000  1
  N  N90  1  0.30478000  0.44659000  0.49810000  1
  N  N91  1  0.19332000  0.94659000  0.49810000  1
  N  N92  1  0.69522000  0.55341000  0.50190000  1
  N  N93  1  0.80668000  0.05341000  0.50190000  1
  N  N94  1  0.60443000  0.19960000  0.76112000  1
  N  N95  1  0.15669000  0.69960000  0.76112000  1
  O  O96  1  0.40519000  0.16745000  0.15868000  1
  O  O97  1  0.75349000  0.66745000  0.15868000  1
  O  O98  1  0.60150000  0.29076000  0.29904000  1
  O  O99  1  0.69754000  0.79076000  0.29904000  1
  O  O100  1  0.51545000  0.10498000  0.39142000  1
  O  O101  1  0.87597000  0.60498000  0.39142000  1
  O  O102  1  0.38717000  0.10231000  0.48438000  1
  O  O103  1  0.09721000  0.60231000  0.48438000  1
  O  O104  1  0.61283000  0.89769000  0.51562000  1
  O  O105  1  0.90279000  0.39769000  0.51562000  1
  O  O106  1  0.48455000  0.89502000  0.60858000  1
  O  O107  1  0.12403000  0.39502000  0.60858000  1
  O  O108  1  0.39850000  0.70924000  0.70096000  1
  O  O109  1  0.30246000  0.20924000  0.70096000  1
  O  O110  1  0.59481000  0.83255000  0.84132000  1
  O  O111  1  0.24651000  0.33255000  0.84132000  1
