# generated using pymatgen
data_ZnH3(C3O2)3
_symmetry_space_group_name_H-M   'P 1'
_cell_length_a   9.43700000
_cell_length_b   13.31900000
_cell_length_c   15.37800000
_cell_angle_alpha   90.00000000
_cell_angle_beta   90.00000000
_cell_angle_gamma   106.38300000
_symmetry_Int_Tables_number   1
_chemical_formula_structural   ZnH3(C3O2)3
_chemical_formula_sum   'Zn4 H12 C36 O24'
_cell_volume   1854.40293356
_cell_formula_units_Z   4
loop_
 _symmetry_equiv_pos_site_id
 _symmetry_equiv_pos_as_xyz
  1  'x, y, z'
loop_
 _atom_site_type_symbol
 _atom_site_label
 _atom_site_symmetry_multiplicity
 _atom_site_fract_x
 _atom_site_fract_y
 _atom_site_fract_z
 _atom_site_occupancy
  Zn  Zn0  1  0.87383000  0.01132000  0.90368000  1
  Zn  Zn1  1  0.62617000  0.48868000  0.40368000  1
  Zn  Zn2  1  0.37383000  0.51132000  0.59632000  1
  Zn  Zn3  1  0.12617000  0.98868000  0.09632000  1
  H  H4  1  0.95250000  0.58380000  0.57720000  1
  H  H5  1  0.85490000  0.22400000  0.22910000  1
  H  H6  1  0.76930000  0.74150000  0.19840000  1
  H  H7  1  0.73070000  0.75850000  0.69840000  1
  H  H8  1  0.64510000  0.27600000  0.72910000  1
  H  H9  1  0.54750000  0.91620000  0.07720000  1
  H  H10  1  0.45250000  0.08380000  0.92280000  1
  H  H11  1  0.35490000  0.72400000  0.27090000  1
  H  H12  1  0.26930000  0.24150000  0.30160000  1
  H  H13  1  0.23070000  0.25850000  0.80160000  1
  H  H14  1  0.14510000  0.77600000  0.77090000  1
  H  H15  1  0.04750000  0.41620000  0.42280000  1
  C  C16  1  0.94820000  0.63240000  0.61990000  1
  C  C17  1  0.93760000  0.78180000  0.74410000  1
  C  C18  1  0.93640000  0.86430000  0.81090000  1
  C  C19  1  0.93590000  0.25160000  0.26490000  1
  C  C20  1  0.93040000  0.32620000  0.32750000  1
  C  C21  1  0.82000000  0.66270000  0.63050000  1
  C  C22  1  0.81610000  0.73750000  0.69190000  1
  C  C23  1  0.81280000  0.88820000  0.07610000  1
  C  C24  1  0.79220000  0.36350000  0.33440000  1
  C  C25  1  0.70780000  0.13650000  0.83440000  1
  C  C26  1  0.68720000  0.61180000  0.57610000  1
  C  C27  1  0.68390000  0.76250000  0.19190000  1
  C  C28  1  0.68000000  0.83730000  0.13050000  1
  C  C29  1  0.56960000  0.17380000  0.82750000  1
  C  C30  1  0.56410000  0.24840000  0.76490000  1
  C  C31  1  0.56360000  0.63570000  0.31090000  1
  C  C32  1  0.56240000  0.71820000  0.24410000  1
  C  C33  1  0.55180000  0.86760000  0.11990000  1
  C  C34  1  0.44820000  0.13240000  0.88010000  1
  C  C35  1  0.43760000  0.28180000  0.75590000  1
  C  C36  1  0.43640000  0.36430000  0.68910000  1
  C  C37  1  0.43590000  0.75160000  0.23510000  1
  C  C38  1  0.43040000  0.82620000  0.17250000  1
  C  C39  1  0.32000000  0.16270000  0.86950000  1
  C  C40  1  0.31610000  0.23750000  0.80810000  1
  C  C41  1  0.31280000  0.38820000  0.42390000  1
  C  C42  1  0.29220000  0.86350000  0.16560000  1
  C  C43  1  0.20780000  0.63650000  0.66560000  1
  C  C44  1  0.18720000  0.11180000  0.92390000  1
  C  C45  1  0.18390000  0.26250000  0.30810000  1
  C  C46  1  0.18000000  0.33730000  0.36950000  1
  C  C47  1  0.06960000  0.67380000  0.67250000  1
  C  C48  1  0.06410000  0.74840000  0.73510000  1
  C  C49  1  0.06360000  0.13570000  0.18910000  1
  C  C50  1  0.06240000  0.21820000  0.25590000  1
  C  C51  1  0.05180000  0.36760000  0.38010000  1
  O  O52  1  0.96460000  0.11180000  0.13360000  1
  O  O53  1  0.93630000  0.88220000  0.10350000  1
  O  O54  1  0.83180000  0.90640000  0.80780000  1
  O  O55  1  0.80480000  0.16350000  0.77840000  1
  O  O56  1  0.79140000  0.93560000  0.00960000  1
  O  O57  1  0.78550000  0.42000000  0.39940000  1
  O  O58  1  0.71450000  0.08000000  0.89940000  1
  O  O59  1  0.70860000  0.56440000  0.50960000  1
  O  O60  1  0.69520000  0.33650000  0.27840000  1
  O  O61  1  0.66820000  0.59360000  0.30780000  1
  O  O62  1  0.56370000  0.61780000  0.60350000  1
  O  O63  1  0.53540000  0.38820000  0.63360000  1
  O  O64  1  0.46460000  0.61180000  0.36640000  1
  O  O65  1  0.43630000  0.38220000  0.39650000  1
  O  O66  1  0.33180000  0.40640000  0.69220000  1
  O  O67  1  0.30480000  0.66350000  0.72160000  1
  O  O68  1  0.29140000  0.43560000  0.49040000  1
  O  O69  1  0.28550000  0.92000000  0.10060000  1
  O  O70  1  0.21450000  0.58000000  0.60060000  1
  O  O71  1  0.20860000  0.06440000  0.99040000  1
  O  O72  1  0.19520000  0.83650000  0.22160000  1
  O  O73  1  0.16820000  0.09360000  0.19220000  1
  O  O74  1  0.06370000  0.11780000  0.89650000  1
  O  O75  1  0.03540000  0.88820000  0.86640000  1
