# generated using pymatgen
data_CoH14C18(NO2)2
_symmetry_space_group_name_H-M   'P 1'
_cell_length_a   13.71700000
_cell_length_b   14.78780000
_cell_length_c   21.02820000
_cell_angle_alpha   90.00000000
_cell_angle_beta   90.00000000
_cell_angle_gamma   90.00000000
_symmetry_Int_Tables_number   1
_chemical_formula_structural   CoH14C18(NO2)2
_chemical_formula_sum   'Co8 H112 C144 N16 O32'
_cell_volume   4265.44951252
_cell_formula_units_Z   8
loop_
 _symmetry_equiv_pos_site_id
 _symmetry_equiv_pos_as_xyz
  1  'x, y, z'
loop_
 _atom_site_type_symbol
 _atom_site_label
 _atom_site_symmetry_multiplicity
 _atom_site_fract_x
 _atom_site_fract_y
 _atom_site_fract_z
 _atom_site_occupancy
  Co  Co0  1  0.03092000  0.59976000  0.43806000  1
  Co  Co1  1  0.03092000  0.90024000  0.93806000  1
  Co  Co2  1  0.46908000  0.09976000  0.43806000  1
  Co  Co3  1  0.46908000  0.40024000  0.93806000  1
  Co  Co4  1  0.53092000  0.59976000  0.06194000  1
  Co  Co5  1  0.53092000  0.90024000  0.56194000  1
  Co  Co6  1  0.96908000  0.09976000  0.06194000  1
  Co  Co7  1  0.96908000  0.40024000  0.56194000  1
  H  H8  1  0.00790000  0.58880000  0.70900000  1
  H  H9  1  0.00790000  0.91120000  0.20900000  1
  H  H10  1  0.01710000  0.63770000  0.82260000  1
  H  H11  1  0.01710000  0.86230000  0.32260000  1
  H  H12  1  0.02210000  0.54440000  0.11850000  1
  H  H13  1  0.02210000  0.95560000  0.61850000  1
  H  H14  1  0.02950000  0.73070000  0.62490000  1
  H  H15  1  0.02950000  0.76930000  0.12490000  1
  H  H16  1  0.03030000  0.72290000  0.23510000  1
  H  H17  1  0.03030000  0.77710000  0.73510000  1
  H  H18  1  0.03890000  0.63250000  0.00340000  1
  H  H19  1  0.03890000  0.86750000  0.50340000  1
  H  H20  1  0.11600000  0.14170000  0.51090000  1
  H  H21  1  0.11600000  0.35830000  0.01090000  1
  H  H22  1  0.13680000  0.17490000  0.97770000  1
  H  H23  1  0.13680000  0.32510000  0.47770000  1
  H  H24  1  0.14120000  0.01790000  0.34140000  1
  H  H25  1  0.14120000  0.48210000  0.84140000  1
  H  H26  1  0.15110000  0.03230000  0.13380000  1
  H  H27  1  0.15110000  0.46770000  0.63380000  1
  H  H28  1  0.18280000  0.52930000  0.12920000  1
  H  H29  1  0.18280000  0.97070000  0.62920000  1
  H  H30  1  0.19300000  0.52840000  0.35120000  1
  H  H31  1  0.19300000  0.97160000  0.85120000  1
  H  H32  1  0.19720000  0.67500000  0.96770000  1
  H  H33  1  0.19720000  0.82500000  0.46770000  1
  H  H34  1  0.21760000  0.64780000  0.51580000  1
  H  H35  1  0.21760000  0.85220000  0.01580000  1
  H  H36  1  0.28240000  0.14780000  0.51580000  1
  H  H37  1  0.28240000  0.35220000  0.01580000  1
  H  H38  1  0.30280000  0.17500000  0.96770000  1
  H  H39  1  0.30280000  0.32500000  0.46770000  1
  H  H40  1  0.30700000  0.02840000  0.35120000  1
  H  H41  1  0.30700000  0.47160000  0.85120000  1
  H  H42  1  0.31720000  0.02930000  0.12920000  1
  H  H43  1  0.31720000  0.47070000  0.62920000  1
  H  H44  1  0.34890000  0.53230000  0.13380000  1
  H  H45  1  0.34890000  0.96770000  0.63380000  1
  H  H46  1  0.35880000  0.51790000  0.34140000  1
  H  H47  1  0.35880000  0.98210000  0.84140000  1
  H  H48  1  0.36320000  0.67490000  0.97770000  1
  H  H49  1  0.36320000  0.82510000  0.47770000  1
  H  H50  1  0.38400000  0.64170000  0.51090000  1
  H  H51  1  0.38400000  0.85830000  0.01090000  1
  H  H52  1  0.46110000  0.13250000  0.00340000  1
  H  H53  1  0.46110000  0.36750000  0.50340000  1
  H  H54  1  0.46970000  0.22290000  0.23510000  1
  H  H55  1  0.46970000  0.27710000  0.73510000  1
  H  H56  1  0.47050000  0.23070000  0.62490000  1
  H  H57  1  0.47050000  0.26930000  0.12490000  1
  H  H58  1  0.47790000  0.04440000  0.11850000  1
  H  H59  1  0.47790000  0.45560000  0.61850000  1
  H  H60  1  0.48290000  0.13770000  0.82260000  1
  H  H61  1  0.48290000  0.36230000  0.32260000  1
  H  H62  1  0.49210000  0.08880000  0.70900000  1
  H  H63  1  0.49210000  0.41120000  0.20900000  1
  H  H64  1  0.50790000  0.58880000  0.79100000  1
  H  H65  1  0.50790000  0.91120000  0.29100000  1
  H  H66  1  0.51710000  0.63770000  0.67740000  1
  H  H67  1  0.51710000  0.86230000  0.17740000  1
  H  H68  1  0.52210000  0.54440000  0.38150000  1
  H  H69  1  0.52210000  0.95560000  0.88150000  1
  H  H70  1  0.52950000  0.73070000  0.87510000  1
  H  H71  1  0.52950000  0.76930000  0.37510000  1
  H  H72  1  0.53030000  0.72290000  0.26490000  1
  H  H73  1  0.53030000  0.77710000  0.76490000  1
  H  H74  1  0.53890000  0.63250000  0.49660000  1
  H  H75  1  0.53890000  0.86750000  0.99660000  1
  H  H76  1  0.61600000  0.14170000  0.98910000  1
  H  H77  1  0.61600000  0.35830000  0.48910000  1
  H  H78  1  0.63680000  0.17490000  0.52230000  1
  H  H79  1  0.63680000  0.32510000  0.02230000  1
  H  H80  1  0.64120000  0.01790000  0.15860000  1
  H  H81  1  0.64120000  0.48210000  0.65860000  1
  H  H82  1  0.65110000  0.03230000  0.36620000  1
  H  H83  1  0.65110000  0.46770000  0.86620000  1
  H  H84  1  0.68280000  0.52930000  0.37080000  1
  H  H85  1  0.68280000  0.97070000  0.87080000  1
  H  H86  1  0.69300000  0.52840000  0.14880000  1
  H  H87  1  0.69300000  0.97160000  0.64880000  1
  H  H88  1  0.69720000  0.67500000  0.53230000  1
  H  H89  1  0.69720000  0.82500000  0.03230000  1
  H  H90  1  0.71760000  0.64780000  0.98420000  1
  H  H91  1  0.71760000  0.85220000  0.48420000  1
  H  H92  1  0.78240000  0.14780000  0.98420000  1
  H  H93  1  0.78240000  0.35220000  0.48420000  1
  H  H94  1  0.80280000  0.17500000  0.53230000  1
  H  H95  1  0.80280000  0.32500000  0.03230000  1
  H  H96  1  0.80700000  0.02840000  0.14880000  1
  H  H97  1  0.80700000  0.47160000  0.64880000  1
  H  H98  1  0.81720000  0.02930000  0.37080000  1
  H  H99  1  0.81720000  0.47070000  0.87080000  1
  H  H100  1  0.84890000  0.53230000  0.36620000  1
  H  H101  1  0.84890000  0.96770000  0.86620000  1
  H  H102  1  0.85880000  0.51790000  0.15860000  1
  H  H103  1  0.85880000  0.98210000  0.65860000  1
  H  H104  1  0.86320000  0.67490000  0.52230000  1
  H  H105  1  0.86320000  0.82510000  0.02230000  1
  H  H106  1  0.88400000  0.64170000  0.98910000  1
  H  H107  1  0.88400000  0.85830000  0.48910000  1
  H  H108  1  0.96110000  0.13250000  0.49660000  1
  H  H109  1  0.96110000  0.36750000  0.99660000  1
  H  H110  1  0.96970000  0.22290000  0.26490000  1
  H  H111  1  0.96970000  0.27710000  0.76490000  1
  H  H112  1  0.97050000  0.23070000  0.87510000  1
  H  H113  1  0.97050000  0.26930000  0.37510000  1
  H  H114  1  0.97790000  0.04440000  0.38150000  1
  H  H115  1  0.97790000  0.45560000  0.88150000  1
  H  H116  1  0.98290000  0.13770000  0.67740000  1
  H  H117  1  0.98290000  0.36230000  0.17740000  1
  H  H118  1  0.99210000  0.08880000  0.79100000  1
  H  H119  1  0.99210000  0.41120000  0.29100000  1
  C  C120  1  0.00190000  0.07310000  0.41810000  1
  C  C121  1  0.00190000  0.42690000  0.91810000  1
  C  C122  1  0.01180000  0.60200000  0.58410000  1
  C  C123  1  0.01180000  0.89800000  0.08410000  1
  C  C124  1  0.01620000  0.64970000  0.69740000  1
  C  C125  1  0.01620000  0.85030000  0.19740000  1
  C  C126  1  0.02050000  0.66980000  0.63630000  1
  C  C127  1  0.02050000  0.83020000  0.13630000  1
  C  C128  1  0.02170000  0.69830000  0.80960000  1
  C  C129  1  0.02170000  0.80170000  0.30960000  1
  C  C130  1  0.02360000  0.71630000  0.74730000  1
  C  C131  1  0.02360000  0.78370000  0.24730000  1
  C  C132  1  0.02640000  0.73060000  0.35880000  1
  C  C133  1  0.02640000  0.76940000  0.85880000  1
  C  C134  1  0.06340000  0.60530000  0.04050000  1
  C  C135  1  0.06340000  0.89470000  0.54050000  1
  C  C136  1  0.10760000  0.07890000  0.42520000  1
  C  C137  1  0.10760000  0.42110000  0.92520000  1
  C  C138  1  0.15330000  0.11790000  0.47730000  1
  C  C139  1  0.15330000  0.38210000  0.97730000  1
  C  C140  1  0.16830000  0.04530000  0.37770000  1
  C  C141  1  0.16830000  0.45470000  0.87770000  1
  C  C142  1  0.16910000  0.60220000  0.04750000  1
  C  C143  1  0.16910000  0.89780000  0.54750000  1
  C  C144  1  0.17380000  0.14430000  0.00860000  1
  C  C145  1  0.17380000  0.35570000  0.50860000  1
  C  C146  1  0.18210000  0.06140000  0.09960000  1
  C  C147  1  0.18210000  0.43860000  0.59960000  1
  C  C148  1  0.21820000  0.55940000  0.09730000  1
  C  C149  1  0.21820000  0.94060000  0.59730000  1
  C  C150  1  0.22640000  0.64530000  0.00230000  1
  C  C151  1  0.22640000  0.85470000  0.50230000  1
  C  C152  1  0.23220000  0.55210000  0.38390000  1
  C  C153  1  0.23220000  0.94790000  0.88390000  1
  C  C154  1  0.24660000  0.62170000  0.47970000  1
  C  C155  1  0.24660000  0.87830000  0.97970000  1
  C  C156  1  0.25340000  0.12170000  0.47970000  1
  C  C157  1  0.25340000  0.37830000  0.97970000  1
  C  C158  1  0.26780000  0.05210000  0.38390000  1
  C  C159  1  0.26780000  0.44790000  0.88390000  1
  C  C160  1  0.27360000  0.14530000  0.00230000  1
  C  C161  1  0.27360000  0.35470000  0.50230000  1
  C  C162  1  0.28180000  0.05940000  0.09730000  1
  C  C163  1  0.28180000  0.44060000  0.59730000  1
  C  C164  1  0.31790000  0.56140000  0.09960000  1
  C  C165  1  0.31790000  0.93860000  0.59960000  1
  C  C166  1  0.32620000  0.64430000  0.00860000  1
  C  C167  1  0.32620000  0.85570000  0.50860000  1
  C  C168  1  0.33090000  0.10220000  0.04750000  1
  C  C169  1  0.33090000  0.39780000  0.54750000  1
  C  C170  1  0.33170000  0.54530000  0.37770000  1
  C  C171  1  0.33170000  0.95470000  0.87770000  1
  C  C172  1  0.34670000  0.61790000  0.47730000  1
  C  C173  1  0.34670000  0.88210000  0.97730000  1
  C  C174  1  0.39240000  0.57890000  0.42520000  1
  C  C175  1  0.39240000  0.92110000  0.92520000  1
  C  C176  1  0.43660000  0.10530000  0.04050000  1
  C  C177  1  0.43660000  0.39470000  0.54050000  1
  C  C178  1  0.47360000  0.23060000  0.35880000  1
  C  C179  1  0.47360000  0.26940000  0.85880000  1
  C  C180  1  0.47640000  0.21630000  0.74730000  1
  C  C181  1  0.47640000  0.28370000  0.24730000  1
  C  C182  1  0.47830000  0.19830000  0.80960000  1
  C  C183  1  0.47830000  0.30170000  0.30960000  1
  C  C184  1  0.47950000  0.16980000  0.63630000  1
  C  C185  1  0.47950000  0.33020000  0.13630000  1
  C  C186  1  0.48380000  0.14970000  0.69740000  1
  C  C187  1  0.48380000  0.35030000  0.19740000  1
  C  C188  1  0.48820000  0.10200000  0.58410000  1
  C  C189  1  0.48820000  0.39800000  0.08410000  1
  C  C190  1  0.49810000  0.57310000  0.41810000  1
  C  C191  1  0.49810000  0.92690000  0.91810000  1
  C  C192  1  0.50190000  0.07310000  0.08190000  1
  C  C193  1  0.50190000  0.42690000  0.58190000  1
  C  C194  1  0.51180000  0.60200000  0.91590000  1
  C  C195  1  0.51180000  0.89800000  0.41590000  1
  C  C196  1  0.51620000  0.64970000  0.80260000  1
  C  C197  1  0.51620000  0.85030000  0.30260000  1
  C  C198  1  0.52050000  0.66980000  0.86370000  1
  C  C199  1  0.52050000  0.83020000  0.36370000  1
  C  C200  1  0.52170000  0.69830000  0.69040000  1
  C  C201  1  0.52170000  0.80170000  0.19040000  1
  C  C202  1  0.52360000  0.71630000  0.75270000  1
  C  C203  1  0.52360000  0.78370000  0.25270000  1
  C  C204  1  0.52640000  0.73060000  0.14120000  1
  C  C205  1  0.52640000  0.76940000  0.64120000  1
  C  C206  1  0.56340000  0.60530000  0.45950000  1
  C  C207  1  0.56340000  0.89470000  0.95950000  1
  C  C208  1  0.60760000  0.07890000  0.07480000  1
  C  C209  1  0.60760000  0.42110000  0.57480000  1
  C  C210  1  0.65330000  0.11790000  0.02270000  1
  C  C211  1  0.65330000  0.38210000  0.52270000  1
  C  C212  1  0.66830000  0.04530000  0.12230000  1
  C  C213  1  0.66830000  0.45470000  0.62230000  1
  C  C214  1  0.66910000  0.60220000  0.45250000  1
  C  C215  1  0.66910000  0.89780000  0.95250000  1
  C  C216  1  0.67380000  0.14430000  0.49140000  1
  C  C217  1  0.67380000  0.35570000  0.99140000  1
  C  C218  1  0.68210000  0.06140000  0.40040000  1
  C  C219  1  0.68210000  0.43860000  0.90040000  1
  C  C220  1  0.71820000  0.55940000  0.40270000  1
  C  C221  1  0.71820000  0.94060000  0.90270000  1
  C  C222  1  0.72640000  0.64530000  0.49770000  1
  C  C223  1  0.72640000  0.85470000  0.99770000  1
  C  C224  1  0.73220000  0.55210000  0.11610000  1
  C  C225  1  0.73220000  0.94790000  0.61610000  1
  C  C226  1  0.74660000  0.62170000  0.02030000  1
  C  C227  1  0.74660000  0.87830000  0.52030000  1
  C  C228  1  0.75340000  0.12170000  0.02030000  1
  C  C229  1  0.75340000  0.37830000  0.52030000  1
  C  C230  1  0.76780000  0.05210000  0.11610000  1
  C  C231  1  0.76780000  0.44790000  0.61610000  1
  C  C232  1  0.77360000  0.14530000  0.49770000  1
  C  C233  1  0.77360000  0.35470000  0.99770000  1
  C  C234  1  0.78180000  0.05940000  0.40270000  1
  C  C235  1  0.78180000  0.44060000  0.90270000  1
  C  C236  1  0.81790000  0.56140000  0.40040000  1
  C  C237  1  0.81790000  0.93860000  0.90040000  1
  C  C238  1  0.82620000  0.64430000  0.49140000  1
  C  C239  1  0.82620000  0.85570000  0.99140000  1
  C  C240  1  0.83090000  0.10220000  0.45250000  1
  C  C241  1  0.83090000  0.39780000  0.95250000  1
  C  C242  1  0.83170000  0.54530000  0.12230000  1
  C  C243  1  0.83170000  0.95470000  0.62230000  1
  C  C244  1  0.84670000  0.61790000  0.02270000  1
  C  C245  1  0.84670000  0.88210000  0.52270000  1
  C  C246  1  0.89240000  0.57890000  0.07480000  1
  C  C247  1  0.89240000  0.92110000  0.57480000  1
  C  C248  1  0.93660000  0.10530000  0.45950000  1
  C  C249  1  0.93660000  0.39470000  0.95950000  1
  C  C250  1  0.97360000  0.23060000  0.14120000  1
  C  C251  1  0.97360000  0.26940000  0.64120000  1
  C  C252  1  0.97640000  0.21630000  0.75270000  1
  C  C253  1  0.97640000  0.28370000  0.25270000  1
  C  C254  1  0.97830000  0.19830000  0.69040000  1
  C  C255  1  0.97830000  0.30170000  0.19040000  1
  C  C256  1  0.97950000  0.16980000  0.86370000  1
  C  C257  1  0.97950000  0.33020000  0.36370000  1
  C  C258  1  0.98380000  0.14970000  0.80260000  1
  C  C259  1  0.98380000  0.35030000  0.30260000  1
  C  C260  1  0.98820000  0.10200000  0.91590000  1
  C  C261  1  0.98820000  0.39800000  0.41590000  1
  C  C262  1  0.99810000  0.57310000  0.08190000  1
  C  C263  1  0.99810000  0.92690000  0.58190000  1
  N  N264  1  0.12570000  0.10250000  0.05577000  1
  N  N265  1  0.12570000  0.39750000  0.55577000  1
  N  N266  1  0.18790000  0.59040000  0.43388000  1
  N  N267  1  0.18790000  0.90960000  0.93388000  1
  N  N268  1  0.31210000  0.09040000  0.43388000  1
  N  N269  1  0.31210000  0.40960000  0.93388000  1
  N  N270  1  0.37430000  0.60250000  0.05577000  1
  N  N271  1  0.37430000  0.89750000  0.55577000  1
  N  N272  1  0.62570000  0.10250000  0.44423000  1
  N  N273  1  0.62570000  0.39750000  0.94423000  1
  N  N274  1  0.68790000  0.59040000  0.06612000  1
  N  N275  1  0.68790000  0.90960000  0.56612000  1
  N  N276  1  0.81210000  0.09040000  0.06612000  1
  N  N277  1  0.81210000  0.40960000  0.56612000  1
  N  N278  1  0.87430000  0.60250000  0.44423000  1
  N  N279  1  0.87430000  0.89750000  0.94423000  1
  O  O280  1  0.02590000  0.64770000  0.34240000  1
  O  O281  1  0.02590000  0.85230000  0.84240000  1
  O  O282  1  0.02650000  0.02790000  0.90312000  1
  O  O283  1  0.02650000  0.47210000  0.40312000  1
  O  O284  1  0.02950000  0.74890000  0.91648000  1
  O  O285  1  0.02950000  0.75110000  0.41648000  1
  O  O286  1  0.04440000  0.62710000  0.53115000  1
  O  O287  1  0.04440000  0.87290000  0.03115000  1
  O  O288  1  0.45560000  0.12710000  0.53115000  1
  O  O289  1  0.45560000  0.37290000  0.03115000  1
  O  O290  1  0.47050000  0.24890000  0.91648000  1
  O  O291  1  0.47050000  0.25110000  0.41648000  1
  O  O292  1  0.47350000  0.52790000  0.90312000  1
  O  O293  1  0.47350000  0.97210000  0.40312000  1
  O  O294  1  0.47410000  0.14770000  0.34240000  1
  O  O295  1  0.47410000  0.35230000  0.84240000  1
  O  O296  1  0.52590000  0.64770000  0.15760000  1
  O  O297  1  0.52590000  0.85230000  0.65760000  1
  O  O298  1  0.52650000  0.02790000  0.59688000  1
  O  O299  1  0.52650000  0.47210000  0.09688000  1
  O  O300  1  0.52950000  0.74890000  0.58352000  1
  O  O301  1  0.52950000  0.75110000  0.08352000  1
  O  O302  1  0.54440000  0.62710000  0.96885000  1
  O  O303  1  0.54440000  0.87290000  0.46885000  1
  O  O304  1  0.95560000  0.12710000  0.96885000  1
  O  O305  1  0.95560000  0.37290000  0.46885000  1
  O  O306  1  0.97050000  0.24890000  0.58352000  1
  O  O307  1  0.97050000  0.25110000  0.08352000  1
  O  O308  1  0.97350000  0.52790000  0.59688000  1
  O  O309  1  0.97350000  0.97210000  0.09688000  1
  O  O310  1  0.97410000  0.14770000  0.15760000  1
  O  O311  1  0.97410000  0.35230000  0.65760000  1
