# generated using pymatgen
data_FeH28C22(SN5)2
_symmetry_space_group_name_H-M   'P 1'
_cell_length_a   10.94630000
_cell_length_b   15.04630000
_cell_length_c   15.04635942
_cell_angle_alpha   114.31732509
_cell_angle_beta   104.03462018
_cell_angle_gamma   104.03400000
_symmetry_Int_Tables_number   1
_chemical_formula_structural   FeH28C22(SN5)2
_chemical_formula_sum   'Fe3 H84 C66 S6 N30'
_cell_volume   2019.93354763
_cell_formula_units_Z   3
loop_
 _symmetry_equiv_pos_site_id
 _symmetry_equiv_pos_as_xyz
  1  'x, y, z'
loop_
 _atom_site_type_symbol
 _atom_site_label
 _atom_site_symmetry_multiplicity
 _atom_site_fract_x
 _atom_site_fract_y
 _atom_site_fract_z
 _atom_site_occupancy
  Fe  Fe0  1  0.50000000  0.50000000  0.50000000  1
  Fe  Fe1  1  0.00000000  0.50000000  1.00000000  1
  Fe  Fe2  1  0.00000000  0.00000000  0.50000000  1
  H  H3  1  0.87450000  0.23450000  0.86610000  1
  H  H4  1  0.36850000  0.98170000  0.34940000  1
  H  H5  1  0.26380000  0.95220000  0.23700000  1
  H  H6  1  0.56340000  0.76990000  0.53240000  1
  H  H7  1  0.45580000  0.68660000  0.41410000  1
  H  H8  1  0.56680000  0.20960000  0.51660000  1
  H  H9  1  0.77050000  0.53640000  0.65890000  1
  H  H10  1  0.38450000  0.59070000  0.26580000  1
  H  H11  1  0.36000000  0.36840000  0.23450000  1
  H  H12  1  0.27520000  0.51580000  0.14660000  1
  H  H13  1  0.74090000  0.16970000  0.58760000  1
  H  H14  1  0.42170000  0.97590000  0.25770000  1
  H  H15  1  0.88130000  0.26580000  0.67510000  1
  H  H16  1  0.96900000  0.53240000  0.76250000  1
  H  H17  1  0.52420000  0.29470000  0.31110000  1
  H  H18  1  0.76590000  0.87750000  0.53640000  1
  H  H19  1  0.21310000  0.68890000  0.98360000  1
  H  H20  1  0.95830000  0.41410000  0.72750000  1
  H  H21  1  0.11160000  0.34110000  0.87750000  1
  H  H22  1  0.55690000  0.20070000  0.32170000  1
  H  H23  1  0.87140000  0.14660000  0.63080000  1
  H  H24  1  0.42880000  0.58210000  0.16970000  1
  H  H25  1  0.31160000  0.28480000  0.04780000  1
  H  H26  1  0.75940000  0.63080000  0.48420000  1
  H  H27  1  0.02680000  0.76300000  0.71520000  1
  H  H28  1  0.61850000  0.98060000  0.27160000  1
  H  H29  1  0.23520000  0.67830000  0.87900000  1
  H  H30  1  0.05020000  0.48340000  0.69300000  1
  H  H31  1  0.99160000  0.86610000  0.63160000  1
  H  H32  1  0.65310000  0.27160000  0.29100000  1
  H  H33  1  0.38680000  0.36770000  0.01830000  1
  H  H34  1  0.36210000  0.70900000  0.98060000  1
  H  H35  1  0.79380000  0.67510000  0.40930000  1
  H  H36  1  0.01910000  0.65060000  0.63230000  1
  H  H37  1  0.44580000  0.28180000  0.02410000  1
  H  H38  1  0.84670000  0.58760000  0.41790000  1
  H  H39  1  0.64280000  0.69300000  0.20960000  1
  H  H40  1  0.20650000  0.23750000  0.76990000  1
  H  H41  1  0.64380000  0.87900000  0.20070000  1
  H  H42  1  0.16400000  0.74230000  0.71820000  1
  H  H43  1  0.76920000  0.72750000  0.31340000  1
  H  H44  1  0.77050000  0.98360000  0.29470000  1
  H  H45  1  0.22950000  0.01640000  0.70530000  1
  H  H46  1  0.23080000  0.27250000  0.68660000  1
  H  H47  1  0.83600000  0.25770000  0.28180000  1
  H  H48  1  0.35620000  0.12100000  0.79930000  1
  H  H49  1  0.79350000  0.76250000  0.23010000  1
  H  H50  1  0.35720000  0.30700000  0.79040000  1
  H  H51  1  0.15330000  0.41240000  0.58210000  1
  H  H52  1  0.55420000  0.71820000  0.97590000  1
  H  H53  1  0.98090000  0.34940000  0.36770000  1
  H  H54  1  0.20620000  0.32490000  0.59070000  1
  H  H55  1  0.63790000  0.29100000  0.01940000  1
  H  H56  1  0.61320000  0.63230000  0.98170000  1
  H  H57  1  0.34690000  0.72840000  0.70900000  1
  H  H58  1  0.00840000  0.13390000  0.36840000  1
  H  H59  1  0.94980000  0.51660000  0.30700000  1
  H  H60  1  0.76480000  0.32170000  0.12100000  1
  H  H61  1  0.38150000  0.01940000  0.72840000  1
  H  H62  1  0.97320000  0.23700000  0.28480000  1
  H  H63  1  0.24060000  0.36920000  0.51580000  1
  H  H64  1  0.68840000  0.71520000  0.95220000  1
  H  H65  1  0.57120000  0.41790000  0.83030000  1
  H  H66  1  0.12860000  0.85340000  0.36920000  1
  H  H67  1  0.44310000  0.79930000  0.67830000  1
  H  H68  1  0.88840000  0.65890000  0.12250000  1
  H  H69  1  0.04170000  0.58590000  0.27250000  1
  H  H70  1  0.78690000  0.31110000  0.01640000  1
  H  H71  1  0.23410000  0.12250000  0.46360000  1
  H  H72  1  0.47580000  0.70530000  0.68890000  1
  H  H73  1  0.03100000  0.46760000  0.23750000  1
  H  H74  1  0.11870000  0.73420000  0.32490000  1
  H  H75  1  0.57830000  0.02410000  0.74230000  1
  H  H76  1  0.25910000  0.83030000  0.41240000  1
  H  H77  1  0.72480000  0.48420000  0.85340000  1
  H  H78  1  0.64000000  0.63160000  0.76550000  1
  H  H79  1  0.61550000  0.40930000  0.73420000  1
  H  H80  1  0.22950000  0.46360000  0.34110000  1
  H  H81  1  0.43320000  0.79040000  0.48340000  1
  H  H82  1  0.54420000  0.31340000  0.58590000  1
  H  H83  1  0.43660000  0.23010000  0.46760000  1
  H  H84  1  0.73620000  0.04780000  0.76300000  1
  H  H85  1  0.63150000  0.01830000  0.65060000  1
  H  H86  1  0.12550000  0.76550000  0.13390000  1
  C  C87  1  0.92637000  0.65136000  0.91305000  1
  C  C88  1  0.50157000  0.76175000  0.46786000  1
  C  C89  1  0.34521000  0.94488000  0.27285000  1
  C  C90  1  0.72499000  0.73831000  0.65136000  1
  C  C91  1  0.31736000  0.83089000  0.23399000  1
  C  C92  1  0.31589000  0.67233000  0.19974000  1
  C  C93  1  0.40010000  0.78172000  0.26018000  1
  C  C94  1  0.58082000  0.81974000  0.42802000  1
  C  C95  1  0.35439000  0.58252000  0.19505000  1
  C  C96  1  0.54050000  0.83225000  0.34075000  1
  C  C97  1  0.84066000  0.19505000  0.61253000  1
  C  C98  1  0.68461000  0.34679000  0.44774000  1
  C  C99  1  0.84720000  0.42802000  0.60828000  1
  C  C100  1  0.96629000  0.46786000  0.70611000  1
  C  C101  1  0.59726000  0.27203000  0.33305000  1
  C  C102  1  0.01332000  0.08695000  0.73831000  1
  C  C103  1  0.80025000  0.34075000  0.50850000  1
  C  C104  1  0.66218000  0.89905000  0.34679000  1
  C  C105  1  0.64356000  0.52741000  0.32767000  1
  C  C106  1  0.48647000  0.40310000  0.16911000  1
  C  C107  1  0.26421000  0.66695000  0.93898000  1
  C  C108  1  0.23687000  0.55226000  0.89905000  1
  C  C109  1  0.40033000  0.32797000  0.05512000  1
  C  C110  1  0.77187000  0.61253000  0.41748000  1
  C  C111  1  0.88385000  0.19974000  0.52741000  1
  C  C112  1  0.86008000  0.26018000  0.47846000  1
  C  C113  1  0.61838000  0.47846000  0.21828000  1
  C  C114  1  0.07236000  0.72715000  0.67203000  1
  C  C115  1  0.67477000  0.93898000  0.27203000  1
  C  C116  1  0.23892000  0.39172000  0.81974000  1
  C  C117  1  0.29175000  0.49150000  0.83225000  1
  C  C118  1  0.08337000  0.76601000  0.59690000  1
  C  C119  1  0.26018000  0.29389000  0.76175000  1
  C  C120  1  0.73982000  0.70611000  0.23825000  1
  C  C121  1  0.91663000  0.23399000  0.40310000  1
  C  C122  1  0.70825000  0.50850000  0.16775000  1
  C  C123  1  0.76108000  0.60828000  0.18026000  1
  C  C124  1  0.32523000  0.06102000  0.72797000  1
  C  C125  1  0.92764000  0.27285000  0.32797000  1
  C  C126  1  0.38162000  0.52154000  0.78172000  1
  C  C127  1  0.13992000  0.73982000  0.52154000  1
  C  C128  1  0.11615000  0.80026000  0.47259000  1
  C  C129  1  0.22813000  0.38747000  0.58252000  1
  C  C130  1  0.59967000  0.67203000  0.94488000  1
  C  C131  1  0.76313000  0.44774000  0.10095000  1
  C  C132  1  0.73579000  0.33305000  0.06102000  1
  C  C133  1  0.51353000  0.59690000  0.83089000  1
  C  C134  1  0.35644000  0.47259000  0.67233000  1
  C  C135  1  0.33782000  0.10095000  0.65321000  1
  C  C136  1  0.19975000  0.65925000  0.49150000  1
  C  C137  1  0.98668000  0.91305000  0.26169000  1
  C  C138  1  0.40274000  0.72797000  0.66695000  1
  C  C139  1  0.03371000  0.53214000  0.29389000  1
  C  C140  1  0.15280000  0.57198000  0.39172000  1
  C  C141  1  0.31539000  0.65321000  0.55226000  1
  C  C142  1  0.15934000  0.80495000  0.38747000  1
  C  C143  1  0.45950000  0.16775000  0.65925000  1
  C  C144  1  0.64561000  0.41748000  0.80495000  1
  C  C145  1  0.41918000  0.18026000  0.57198000  1
  C  C146  1  0.59990000  0.21828000  0.73982000  1
  C  C147  1  0.68411000  0.32767000  0.80026000  1
  C  C148  1  0.68264000  0.16911000  0.76601000  1
  C  C149  1  0.27501000  0.26169000  0.34864000  1
  C  C150  1  0.65479000  0.05512000  0.72715000  1
  C  C151  1  0.49843000  0.23825000  0.53214000  1
  C  C152  1  0.07363000  0.34864000  0.08695000  1
  S  S153  1  0.90162000  0.71962000  0.85457000  1
  S  S154  1  0.81800000  0.86505000  0.71962000  1
  S  S155  1  0.04705000  0.14543000  0.86505000  1
  S  S156  1  0.95295000  0.85457000  0.13495000  1
  S  S157  1  0.18200000  0.13495000  0.28038000  1
  S  S158  1  0.09838000  0.28038000  0.14543000  1
  N  N159  1  0.05306000  0.39652000  0.04465000  1
  N  N160  1  0.19500000  0.75350000  0.16300000  1
  N  N161  1  0.18959000  0.65505000  0.14076000  1
  N  N162  1  0.65654000  0.64813000  0.60348000  1
  N  N163  1  0.66114000  0.43100000  0.50672000  1
  N  N164  1  0.76195000  0.47868000  0.60433000  1
  N  N165  1  0.53454000  0.48571000  0.34495000  1
  N  N166  1  0.44150000  0.40950000  0.24650000  1
  N  N167  1  0.15442000  0.49328000  0.92428000  1
  N  N168  1  0.71673000  0.87435000  0.47868000  1
  N  N169  1  0.15762000  0.39567000  0.87435000  1
  N  N170  1  0.76986000  0.92428000  0.43100000  1
  N  N171  1  0.99159000  0.04465000  0.64813000  1
  N  N172  1  0.03200000  0.83700000  0.59050000  1
  N  N173  1  0.95117000  0.14076000  0.48571000  1
  N  N174  1  0.04883000  0.85924000  0.51429000  1
  N  N175  1  0.96800000  0.16300000  0.40950000  1
  N  N176  1  0.00841000  0.95535000  0.35187000  1
  N  N177  1  0.23014000  0.07572000  0.56900000  1
  N  N178  1  0.84238000  0.60433000  0.12565000  1
  N  N179  1  0.28327000  0.12565000  0.52132000  1
  N  N180  1  0.84558000  0.50672000  0.07572000  1
  N  N181  1  0.55850000  0.59050000  0.75350000  1
  N  N182  1  0.46546000  0.51429000  0.65505000  1
  N  N183  1  0.23805000  0.52132000  0.39567000  1
  N  N184  1  0.33886000  0.56900000  0.49328000  1
  N  N185  1  0.34346000  0.35187000  0.39652000  1
  N  N186  1  0.81041000  0.34495000  0.85924000  1
  N  N187  1  0.80500000  0.24650000  0.83700000  1
  N  N188  1  0.94694000  0.60348000  0.95535000  1
