# generated using pymatgen
data_CoH2(C5O4)2
_symmetry_space_group_name_H-M   'P 1'
_cell_length_a   16.27200000
_cell_length_b   16.27200000
_cell_length_c   18.87935423
_cell_angle_alpha   115.52767058
_cell_angle_beta   115.52767058
_cell_angle_gamma   90.00000000
_symmetry_Int_Tables_number   1
_chemical_formula_structural   CoH2(C5O4)2
_chemical_formula_sum   'Co8 H16 C80 O64'
_cell_volume   3963.19686451
_cell_formula_units_Z   8
loop_
 _symmetry_equiv_pos_site_id
 _symmetry_equiv_pos_as_xyz
  1  'x, y, z'
loop_
 _atom_site_type_symbol
 _atom_site_label
 _atom_site_symmetry_multiplicity
 _atom_site_fract_x
 _atom_site_fract_y
 _atom_site_fract_z
 _atom_site_occupancy
  C  C0  1  0.80246000  0.79880000  0.58144000  1
  C  C1  1  0.30246000  0.78264000  0.58144000  1
  C  C2  1  0.22102000  0.71736000  0.41856000  1
  C  C3  1  0.72102000  0.70120000  0.41856000  1
  C  C4  1  0.80200000  0.75000000  0.50000000  1
  C  C5  1  0.30200000  0.75000000  0.50000000  1
  C  C6  1  0.89585000  0.85684000  0.66288000  1
  C  C7  1  0.39585000  0.80604000  0.66288000  1
  C  C8  1  0.23297000  0.69396000  0.33712000  1
  C  C9  1  0.73297000  0.64316000  0.33712000  1
  C  C10  1  0.36505000  0.29706000  0.58138000  1
  C  C11  1  0.86505000  0.28432000  0.58138000  1
  C  C12  1  0.78367000  0.21568000  0.41862000  1
  C  C13  1  0.28367000  0.20294000  0.41862000  1
  C  C14  1  0.36490000  0.25000000  0.50000000  1
  C  C15  1  0.86490000  0.25000000  0.50000000  1
  C  C16  1  0.45847000  0.34227000  0.66542000  1
  C  C17  1  0.95847000  0.32315000  0.66542000  1
  C  C18  1  0.79305000  0.17685000  0.33458000  1
  C  C19  1  0.29305000  0.15773000  0.33458000  1
  C  C20  1  0.64316000  0.60415000  0.83712000  1
  C  C21  1  0.14316000  0.23297000  0.83712000  1
  C  C22  1  0.80604000  0.26703000  0.16288000  1
  C  C23  1  0.30604000  0.89585000  0.16288000  1
  C  C24  1  0.15773000  0.04153000  0.83458000  1
  C  C25  1  0.65773000  0.79305000  0.83458000  1
  C  C26  1  0.32315000  0.70695000  0.16542000  1
  C  C27  1  0.82315000  0.45847000  0.16542000  1
  C  C28  1  0.70120000  0.69754000  0.91856000  1
  C  C29  1  0.20120000  0.22102000  0.91856000  1
  C  C30  1  0.78264000  0.27898000  0.08144000  1
  C  C31  1  0.28264000  0.80246000  0.08144000  1
  C  C32  1  0.20294000  0.13495000  0.91862000  1
  C  C33  1  0.70294000  0.78367000  0.91862000  1
  C  C34  1  0.28432000  0.71633000  0.08138000  1
  C  C35  1  0.78432000  0.36505000  0.08138000  1
  C  C36  1  0.25000000  0.13510000  1.00000000  1
  C  C37  1  0.75000000  0.69800000  0.00000000  1
  C  C38  1  0.25000000  0.30200000  0.00000000  1
  C  C39  1  0.75000000  0.86490000  0.00000000  1
  C  C40  1  0.25000000  0.63510000  0.00000000  1
  C  C41  1  0.75000000  0.19800000  0.00000000  1
  C  C42  1  0.25000000  0.80200000  0.00000000  1
  C  C43  1  0.75000000  0.36490000  0.00000000  1
  C  C44  1  0.29706000  0.21633000  0.08138000  1
  C  C45  1  0.79706000  0.86505000  0.08138000  1
  C  C46  1  0.21568000  0.63495000  0.91862000  1
  C  C47  1  0.71568000  0.28367000  0.91862000  1
  C  C48  1  0.79880000  0.77898000  0.08144000  1
  C  C49  1  0.29880000  0.30246000  0.08144000  1
  C  C50  1  0.71736000  0.19754000  0.91856000  1
  C  C51  1  0.21736000  0.72102000  0.91856000  1
  C  C52  1  0.34227000  0.20695000  0.16542000  1
  C  C53  1  0.84227000  0.95847000  0.16542000  1
  C  C54  1  0.17685000  0.54153000  0.83458000  1
  C  C55  1  0.67685000  0.29305000  0.83458000  1
  C  C56  1  0.85684000  0.76703000  0.16288000  1
  C  C57  1  0.35684000  0.39585000  0.16288000  1
  C  C58  1  0.69396000  0.10415000  0.83712000  1
  C  C59  1  0.19396000  0.73297000  0.83712000  1
  C  C60  1  0.04153000  0.67685000  0.33458000  1
  C  C61  1  0.54153000  0.65773000  0.33458000  1
  C  C62  1  0.70695000  0.84227000  0.66542000  1
  C  C63  1  0.20695000  0.82315000  0.66542000  1
  C  C64  1  0.13510000  0.75000000  0.50000000  1
  C  C65  1  0.63510000  0.75000000  0.50000000  1
  C  C66  1  0.13495000  0.71568000  0.41862000  1
  C  C67  1  0.63495000  0.70294000  0.41862000  1
  C  C68  1  0.71633000  0.79706000  0.58138000  1
  C  C69  1  0.21633000  0.78432000  0.58138000  1
  C  C70  1  0.60415000  0.19396000  0.33712000  1
  C  C71  1  0.10415000  0.14316000  0.33712000  1
  C  C72  1  0.26703000  0.35684000  0.66288000  1
  C  C73  1  0.76703000  0.30604000  0.66288000  1
  C  C74  1  0.69800000  0.25000000  0.50000000  1
  C  C75  1  0.19800000  0.25000000  0.50000000  1
  C  C76  1  0.69754000  0.21736000  0.41856000  1
  C  C77  1  0.19754000  0.20120000  0.41856000  1
  C  C78  1  0.27898000  0.29880000  0.58144000  1
  C  C79  1  0.77898000  0.28264000  0.58144000  1
  Co  Co80  1  0.84569000  0.65431000  0.25000000  1
  Co  Co81  1  0.34569000  0.59569000  0.25000000  1
  Co  Co82  1  0.59569000  0.90431000  0.75000000  1
  Co  Co83  1  0.09569000  0.84569000  0.75000000  1
  Co  Co84  1  0.65431000  0.40431000  0.75000000  1
  Co  Co85  1  0.15431000  0.34569000  0.75000000  1
  Co  Co86  1  0.90431000  0.15431000  0.25000000  1
  Co  Co87  1  0.40431000  0.09569000  0.25000000  1
  H  H88  1  0.85920000  0.75000000  0.50000000  1
  H  H89  1  0.35920000  0.75000000  0.50000000  1
  H  H90  1  0.42200000  0.25000000  0.50000000  1
  H  H91  1  0.92200000  0.25000000  0.50000000  1
  H  H92  1  0.25000000  0.07800000  1.00000000  1
  H  H93  1  0.75000000  0.64080000  0.00000000  1
  H  H94  1  0.25000000  0.35920000  0.00000000  1
  H  H95  1  0.75000000  0.92200000  0.00000000  1
  H  H96  1  0.25000000  0.57800000  0.00000000  1
  H  H97  1  0.75000000  0.14080000  0.00000000  1
  H  H98  1  0.25000000  0.85920000  0.00000000  1
  H  H99  1  0.75000000  0.42200000  0.00000000  1
  H  H100  1  0.07800000  0.75000000  0.50000000  1
  H  H101  1  0.57800000  0.75000000  0.50000000  1
  H  H102  1  0.64080000  0.25000000  0.50000000  1
  H  H103  1  0.14080000  0.25000000  0.50000000  1
  O  O104  1  0.90592000  0.94150000  0.70352000  1
  O  O105  1  0.40592000  0.76202000  0.70352000  1
  O  O106  1  0.20240000  0.73798000  0.29648000  1
  O  O107  1  0.70240000  0.55850000  0.29648000  1
  O  O108  1  0.22589000  0.13667000  0.26150000  1
  O  O109  1  0.72589000  0.12483000  0.26150000  1
  O  O110  1  0.96439000  0.37517000  0.73850000  1
  O  O111  1  0.46439000  0.36333000  0.73850000  1
  O  O112  1  0.78091000  0.68975000  0.32232000  1
  O  O113  1  0.28091000  0.63257000  0.32232000  1
  O  O114  1  0.45859000  0.86743000  0.67768000  1
  O  O115  1  0.95859000  0.81025000  0.67768000  1
  O  O116  1  0.55850000  0.59408000  0.79648000  1
  O  O117  1  0.05850000  0.20240000  0.79648000  1
  O  O118  1  0.76202000  0.29760000  0.20352000  1
  O  O119  1  0.26202000  0.90592000  0.20352000  1
  O  O120  1  0.52726000  0.35202000  0.65184000  1
  O  O121  1  0.02726000  0.29982000  0.65184000  1
  O  O122  1  0.87542000  0.20018000  0.34816000  1
  O  O123  1  0.37542000  0.14798000  0.34816000  1
  O  O124  1  0.81025000  0.71909000  0.17768000  1
  O  O125  1  0.31025000  0.45859000  0.17768000  1
  O  O126  1  0.63257000  0.04141000  0.82232000  1
  O  O127  1  0.13257000  0.78091000  0.82232000  1
  O  O128  1  0.14798000  0.97274000  0.84816000  1
  O  O129  1  0.64798000  0.87542000  0.84816000  1
  O  O130  1  0.29982000  0.62458000  0.15184000  1
  O  O131  1  0.79982000  0.52726000  0.15184000  1
  O  O132  1  0.36333000  0.27411000  0.23850000  1
  O  O133  1  0.86333000  0.96439000  0.23850000  1
  O  O134  1  0.12483000  0.53561000  0.76150000  1
  O  O135  1  0.62483000  0.22589000  0.76150000  1
  O  O136  1  0.13667000  0.03561000  0.76150000  1
  O  O137  1  0.63667000  0.72589000  0.76150000  1
  O  O138  1  0.37517000  0.77411000  0.23850000  1
  O  O139  1  0.87517000  0.46439000  0.23850000  1
  O  O140  1  0.35202000  0.12458000  0.15184000  1
  O  O141  1  0.85202000  0.02726000  0.15184000  1
  O  O142  1  0.20018000  0.47274000  0.84816000  1
  O  O143  1  0.70018000  0.37542000  0.84816000  1
  O  O144  1  0.68975000  0.54141000  0.82232000  1
  O  O145  1  0.18975000  0.28091000  0.82232000  1
  O  O146  1  0.86743000  0.21909000  0.17768000  1
  O  O147  1  0.36743000  0.95859000  0.17768000  1
  O  O148  1  0.97274000  0.70018000  0.34816000  1
  O  O149  1  0.47274000  0.64798000  0.34816000  1
  O  O150  1  0.62458000  0.85202000  0.65184000  1
  O  O151  1  0.12458000  0.79982000  0.65184000  1
  O  O152  1  0.94150000  0.79760000  0.20352000  1
  O  O153  1  0.44150000  0.40592000  0.20352000  1
  O  O154  1  0.73798000  0.09408000  0.79648000  1
  O  O155  1  0.23798000  0.70240000  0.79648000  1
  O  O156  1  0.71909000  0.36743000  0.67768000  1
  O  O157  1  0.21909000  0.31025000  0.67768000  1
  O  O158  1  0.04141000  0.18975000  0.32232000  1
  O  O159  1  0.54141000  0.13257000  0.32232000  1
  O  O160  1  0.27411000  0.87517000  0.73850000  1
  O  O161  1  0.77411000  0.86333000  0.73850000  1
  O  O162  1  0.53561000  0.63667000  0.26150000  1
  O  O163  1  0.03561000  0.62483000  0.26150000  1
  O  O164  1  0.59408000  0.23798000  0.29648000  1
  O  O165  1  0.09408000  0.05850000  0.29648000  1
  O  O166  1  0.29760000  0.44150000  0.70352000  1
  O  O167  1  0.79760000  0.26202000  0.70352000  1
