# generated using pymatgen
data_CdH10(C11O4)2
_symmetry_space_group_name_H-M   'P 1'
_cell_length_a   9.56660000
_cell_length_b   13.56670000
_cell_length_c   19.51090530
_cell_angle_alpha   93.15353325
_cell_angle_beta   90.00000000
_cell_angle_gamma   90.00000000
_symmetry_Int_Tables_number   1
_chemical_formula_structural   CdH10(C11O4)2
_chemical_formula_sum   'Cd4 H40 C88 O32'
_cell_volume   2528.43102379
_cell_formula_units_Z   4
loop_
 _symmetry_equiv_pos_site_id
 _symmetry_equiv_pos_as_xyz
  1  'x, y, z'
loop_
 _atom_site_type_symbol
 _atom_site_label
 _atom_site_symmetry_multiplicity
 _atom_site_fract_x
 _atom_site_fract_y
 _atom_site_fract_z
 _atom_site_occupancy
  Cd  Cd0  1  0.74926000  0.98267000  0.75588000  1
  Cd  Cd1  1  0.75074000  0.48267000  0.25588000  1
  Cd  Cd2  1  0.24926000  0.51733000  0.74412000  1
  Cd  Cd3  1  0.25074000  0.01733000  0.24412000  1
  H  H4  1  0.09190000  0.97160000  0.94180000  1
  H  H5  1  0.40810000  0.47160000  0.44180000  1
  H  H6  1  0.19450000  0.60000000  0.53410000  1
  H  H7  1  0.30550000  0.10000000  0.03410000  1
  H  H8  1  0.08340000  0.51710000  0.44350000  1
  H  H9  1  0.41660000  0.01710000  0.94350000  1
  H  H10  1  0.72360000  0.60050000  0.47580000  1
  H  H11  1  0.77640000  0.10050000  0.97580000  1
  H  H12  1  0.08370000  0.28880000  0.10780000  1
  H  H13  1  0.41630000  0.78880000  0.60780000  1
  H  H14  1  0.17250000  0.76940000  0.55070000  1
  H  H15  1  0.32750000  0.26940000  0.05070000  1
  H  H16  1  0.54270000  0.38390000  0.07800000  1
  H  H17  1  0.95730000  0.88390000  0.57800000  1
  H  H18  1  0.70480000  0.76630000  0.45910000  1
  H  H19  1  0.79520000  0.26630000  0.95910000  1
  H  H20  1  0.56760000  0.27420000  0.88240000  1
  H  H21  1  0.93240000  0.77420000  0.38240000  1
  H  H22  1  0.53950000  0.88000000  0.41400000  1
  H  H23  1  0.96050000  0.38000000  0.91400000  1
  H  H24  1  0.03950000  0.62000000  0.08600000  1
  H  H25  1  0.46050000  0.12000000  0.58600000  1
  H  H26  1  0.06760000  0.22580000  0.61760000  1
  H  H27  1  0.43240000  0.72580000  0.11760000  1
  H  H28  1  0.20480000  0.73370000  0.04090000  1
  H  H29  1  0.29520000  0.23370000  0.54090000  1
  H  H30  1  0.04270000  0.11610000  0.42200000  1
  H  H31  1  0.45730000  0.61610000  0.92200000  1
  H  H32  1  0.67250000  0.73060000  0.94930000  1
  H  H33  1  0.82750000  0.23060000  0.44930000  1
  H  H34  1  0.58370000  0.21120000  0.39220000  1
  H  H35  1  0.91630000  0.71120000  0.89220000  1
  H  H36  1  0.22360000  0.89950000  0.02420000  1
  H  H37  1  0.27640000  0.39950000  0.52420000  1
  H  H38  1  0.58340000  0.98290000  0.05650000  1
  H  H39  1  0.91660000  0.48290000  0.55650000  1
  H  H40  1  0.69450000  0.90000000  0.96590000  1
  H  H41  1  0.80550000  0.40000000  0.46590000  1
  H  H42  1  0.59190000  0.52840000  0.55820000  1
  H  H43  1  0.90810000  0.02840000  0.05820000  1
  C  C44  1  0.59340000  0.39240000  0.35200000  1
  C  C45  1  0.90660000  0.89240000  0.85200000  1
  C  C46  1  0.58290000  0.59560000  0.55180000  1
  C  C47  1  0.91710000  0.09560000  0.05180000  1
  C  C48  1  0.01030000  0.15260000  0.09180000  1
  C  C49  1  0.48970000  0.65260000  0.59180000  1
  C  C50  1  0.14120000  0.63490000  0.50380000  1
  C  C51  1  0.35880000  0.13490000  0.00380000  1
  C  C52  1  0.07530000  0.58540000  0.44950000  1
  C  C53  1  0.42470000  0.08540000  0.94950000  1
  C  C54  1  0.66160000  0.63880000  0.50250000  1
  C  C55  1  0.83840000  0.13880000  0.00250000  1
  C  C56  1  0.02140000  0.25090000  0.08100000  1
  C  C57  1  0.47860000  0.75090000  0.58100000  1
  C  C58  1  0.12840000  0.73670000  0.51350000  1
  C  C59  1  0.37160000  0.23670000  0.01350000  1
  C  C60  1  0.50340000  0.13710000  0.90360000  1
  C  C61  1  0.99660000  0.63710000  0.40360000  1
  C  C62  1  0.58140000  0.08220000  0.84550000  1
  C  C63  1  0.91860000  0.58220000  0.34550000  1
  C  C64  1  0.65000000  0.73840000  0.49230000  1
  C  C65  1  0.85000000  0.23840000  0.99230000  1
  C  C66  1  0.55710000  0.79710000  0.53110000  1
  C  C67  1  0.94290000  0.29710000  0.03110000  1
  C  C68  1  0.53220000  0.95970000  0.64600000  1
  C  C69  1  0.96780000  0.45970000  0.14600000  1
  C  C70  1  0.05040000  0.79040000  0.46820000  1
  C  C71  1  0.44960000  0.29040000  0.96820000  1
  C  C72  1  0.51520000  0.23940000  0.91310000  1
  C  C73  1  0.98480000  0.73940000  0.41310000  1
  C  C74  1  0.52560000  0.43080000  0.04600000  1
  C  C75  1  0.97440000  0.93080000  0.54600000  1
  C  C76  1  0.53150000  0.90230000  0.51700000  1
  C  C77  1  0.96850000  0.40230000  0.01700000  1
  C  C78  1  0.51240000  0.97530000  0.56920000  1
  C  C79  1  0.98760000  0.47530000  0.06920000  1
  C  C80  1  0.02790000  0.89860000  0.48240000  1
  C  C81  1  0.47210000  0.39860000  0.98240000  1
  C  C82  1  0.62120000  0.55210000  0.13420000  1
  C  C83  1  0.87880000  0.05210000  0.63420000  1
  C  C84  1  0.55560000  0.53070000  0.06500000  1
  C  C85  1  0.94440000  0.03070000  0.56500000  1
  C  C86  1  0.52230000  0.92810000  0.44880000  1
  C  C87  1  0.97770000  0.42810000  0.94880000  1
  C  C88  1  0.02230000  0.57190000  0.05120000  1
  C  C89  1  0.47770000  0.07190000  0.55120000  1
  C  C90  1  0.05560000  0.96930000  0.43500000  1
  C  C91  1  0.44440000  0.46930000  0.93500000  1
  C  C92  1  0.12120000  0.94790000  0.36580000  1
  C  C93  1  0.37880000  0.44790000  0.86580000  1
  C  C94  1  0.52790000  0.60140000  0.01760000  1
  C  C95  1  0.97210000  0.10140000  0.51760000  1
  C  C96  1  0.01240000  0.52470000  0.93080000  1
  C  C97  1  0.48760000  0.02470000  0.43080000  1
  C  C98  1  0.03150000  0.59770000  0.98300000  1
  C  C99  1  0.46850000  0.09770000  0.48300000  1
  C  C100  1  0.02560000  0.06920000  0.45400000  1
  C  C101  1  0.47440000  0.56920000  0.95400000  1
  C  C102  1  0.01520000  0.26060000  0.58690000  1
  C  C103  1  0.48480000  0.76060000  0.08690000  1
  C  C104  1  0.55040000  0.70960000  0.03180000  1
  C  C105  1  0.94960000  0.20960000  0.53180000  1
  C  C106  1  0.03220000  0.54030000  0.85400000  1
  C  C107  1  0.46780000  0.04030000  0.35400000  1
  C  C108  1  0.05710000  0.70290000  0.96890000  1
  C  C109  1  0.44290000  0.20290000  0.46890000  1
  C  C110  1  0.15000000  0.76160000  0.00770000  1
  C  C111  1  0.35000000  0.26160000  0.50770000  1
  C  C112  1  0.08140000  0.41780000  0.65450000  1
  C  C113  1  0.41860000  0.91780000  0.15450000  1
  C  C114  1  0.00340000  0.36290000  0.59640000  1
  C  C115  1  0.49660000  0.86290000  0.09640000  1
  C  C116  1  0.62840000  0.76330000  0.98650000  1
  C  C117  1  0.87160000  0.26330000  0.48650000  1
  C  C118  1  0.52140000  0.24910000  0.41900000  1
  C  C119  1  0.97860000  0.74910000  0.91900000  1
  C  C120  1  0.16160000  0.86120000  0.99750000  1
  C  C121  1  0.33840000  0.36120000  0.49750000  1
  C  C122  1  0.57530000  0.91460000  0.05050000  1
  C  C123  1  0.92470000  0.41460000  0.55050000  1
  C  C124  1  0.64120000  0.86510000  0.99620000  1
  C  C125  1  0.85880000  0.36510000  0.49620000  1
  C  C126  1  0.51030000  0.34740000  0.40820000  1
  C  C127  1  0.98970000  0.84740000  0.90820000  1
  C  C128  1  0.08290000  0.90440000  0.94820000  1
  C  C129  1  0.41710000  0.40440000  0.44820000  1
  C  C130  1  0.09340000  0.10760000  0.14800000  1
  C  C131  1  0.40660000  0.60760000  0.64800000  1
  O  O132  1  0.66060000  0.33820000  0.31140000  1
  O  O133  1  0.83940000  0.83820000  0.81140000  1
  O  O134  1  0.58950000  0.48530000  0.34860000  1
  O  O135  1  0.91050000  0.98530000  0.84860000  1
  O  O136  1  0.56760000  0.99030000  0.83940000  1
  O  O137  1  0.93240000  0.49030000  0.33940000  1
  O  O138  1  0.63460000  0.91020000  0.66410000  1
  O  O139  1  0.86540000  0.41020000  0.16410000  1
  O  O140  1  0.05650000  0.50010000  0.18560000  1
  O  O141  1  0.44350000  0.00010000  0.68560000  1
  O  O142  1  0.57380000  0.50210000  0.18290000  1
  O  O143  1  0.92620000  0.00210000  0.68290000  1
  O  O144  1  0.65860000  0.12900000  0.80770000  1
  O  O145  1  0.84140000  0.62900000  0.30770000  1
  O  O146  1  0.71960000  0.61240000  0.14070000  1
  O  O147  1  0.78040000  0.11240000  0.64070000  1
  O  O148  1  0.21960000  0.88760000  0.35930000  1
  O  O149  1  0.28040000  0.38760000  0.85930000  1
  O  O150  1  0.15860000  0.37100000  0.69230000  1
  O  O151  1  0.34140000  0.87100000  0.19230000  1
  O  O152  1  0.07380000  0.99790000  0.31710000  1
  O  O153  1  0.42620000  0.49790000  0.81710000  1
  O  O154  1  0.55650000  0.99990000  0.31440000  1
  O  O155  1  0.94350000  0.49990000  0.81440000  1
  O  O156  1  0.13460000  0.58980000  0.83590000  1
  O  O157  1  0.36540000  0.08980000  0.33590000  1
  O  O158  1  0.06760000  0.50970000  0.66060000  1
  O  O159  1  0.43240000  0.00970000  0.16060000  1
  O  O160  1  0.08950000  0.01470000  0.15140000  1
  O  O161  1  0.41050000  0.51470000  0.65140000  1
  O  O162  1  0.16060000  0.16180000  0.18860000  1
  O  O163  1  0.33940000  0.66180000  0.68860000  1
