# generated using pymatgen
data_Mn4H21C15(N2O)6
_symmetry_space_group_name_H-M   'P 1'
_cell_length_a   8.02910000
_cell_length_b   13.47500000
_cell_length_c   13.47500000
_cell_angle_alpha   120.00000000
_cell_angle_beta   90.00000000
_cell_angle_gamma   90.00000000
_symmetry_Int_Tables_number   1
_chemical_formula_structural   Mn4H21C15(N2O)6
_chemical_formula_sum   'Mn8 H42 C30 N24 O12'
_cell_volume   1262.56878059
_cell_formula_units_Z   2
loop_
 _symmetry_equiv_pos_site_id
 _symmetry_equiv_pos_as_xyz
  1  'x, y, z'
loop_
 _atom_site_type_symbol
 _atom_site_label
 _atom_site_symmetry_multiplicity
 _atom_site_fract_x
 _atom_site_fract_y
 _atom_site_fract_z
 _atom_site_occupancy
  Mn  Mn0  1  0.04584000  0.96526000  0.66261000  1
  Mn  Mn1  1  0.04584000  0.69735000  0.03474000  1
  Mn  Mn2  1  0.42100000  0.66666667  0.33333333  1
  Mn  Mn3  1  0.54584000  0.66261000  0.69735000  1
  Mn  Mn4  1  0.04584000  0.33739000  0.30265000  1
  Mn  Mn5  1  0.92100000  0.33333333  0.66666667  1
  Mn  Mn6  1  0.54584000  0.30265000  0.96526000  1
  Mn  Mn7  1  0.54584000  0.03474000  0.33739000  1
  H  H8  1  0.79960000  0.98300000  0.53930000  1
  H  H9  1  0.55410000  0.95600000  0.60350000  1
  H  H10  1  0.65010000  0.91490000  0.67810000  1
  H  H11  1  0.93710000  0.91160000  0.19770000  1
  H  H12  1  0.79470000  0.86540000  0.51590000  1
  H  H13  1  0.21020000  0.86390000  0.28500000  1
  H  H14  1  0.94430000  0.84480000  0.25610000  1
  H  H15  1  0.93710000  0.80230000  0.71390000  1
  H  H16  1  0.65010000  0.76320000  0.08510000  1
  H  H17  1  0.94430000  0.74390000  0.58870000  1
  H  H18  1  0.21020000  0.71500000  0.57890000  1
  H  H19  1  0.43710000  0.71390000  0.91160000  1
  H  H20  1  0.15010000  0.67810000  0.76320000  1
  H  H21  1  0.79470000  0.65050000  0.13460000  1
  H  H22  1  0.55410000  0.64750000  0.04400000  1
  H  H23  1  0.05410000  0.60350000  0.64750000  1
  H  H24  1  0.44430000  0.58870000  0.84480000  1
  H  H25  1  0.71020000  0.57890000  0.86390000  1
  H  H26  1  0.79960000  0.55630000  0.01700000  1
  H  H27  1  0.29960000  0.53930000  0.55630000  1
  H  H28  1  0.29470000  0.51590000  0.65050000  1
  H  H29  1  0.79470000  0.48410000  0.34950000  1
  H  H30  1  0.79960000  0.46070000  0.44370000  1
  H  H31  1  0.29960000  0.44370000  0.98300000  1
  H  H32  1  0.21020000  0.42110000  0.13610000  1
  H  H33  1  0.94430000  0.41130000  0.15520000  1
  H  H34  1  0.55410000  0.39650000  0.35250000  1
  H  H35  1  0.05410000  0.35250000  0.95600000  1
  H  H36  1  0.29470000  0.34950000  0.86540000  1
  H  H37  1  0.65010000  0.32190000  0.23680000  1
  H  H38  1  0.93710000  0.28610000  0.08840000  1
  H  H39  1  0.71020000  0.28500000  0.42110000  1
  H  H40  1  0.44430000  0.25610000  0.41130000  1
  H  H41  1  0.15010000  0.23680000  0.91490000  1
  H  H42  1  0.43710000  0.19770000  0.28610000  1
  H  H43  1  0.44430000  0.15520000  0.74390000  1
  H  H44  1  0.71020000  0.13610000  0.71500000  1
  H  H45  1  0.29470000  0.13460000  0.48410000  1
  H  H46  1  0.43710000  0.08840000  0.80230000  1
  H  H47  1  0.15010000  0.08510000  0.32190000  1
  H  H48  1  0.05410000  0.04400000  0.39650000  1
  H  H49  1  0.29960000  0.01700000  0.46070000  1
  C  C50  1  0.65470000  0.96660000  0.64761000  1
  C  C51  1  0.16360000  0.90943000  0.25337000  1
  C  C52  1  0.27850000  0.89238000  0.15580000  1
  C  C53  1  0.27850000  0.84420000  0.73658000  1
  C  C54  1  0.27570000  0.79447000  0.44040000  1
  C  C55  1  0.55010000  0.78691000  0.32188000  1
  C  C56  1  0.16360000  0.74663000  0.65606000  1
  C  C57  1  0.77850000  0.73658000  0.89238000  1
  C  C58  1  0.65470000  0.68101000  0.03340000  1
  C  C59  1  0.55010000  0.67812000  0.46503000  1
  C  C60  1  0.66360000  0.65606000  0.90943000  1
  C  C61  1  0.15470000  0.64761000  0.68101000  1
  C  C62  1  0.27570000  0.64593000  0.20553000  1
  C  C63  1  0.27570000  0.55960000  0.35407000  1
  C  C64  1  0.55010000  0.53497000  0.21309000  1
  C  C65  1  0.05010000  0.46503000  0.78691000  1
  C  C66  1  0.77570000  0.44040000  0.64593000  1
  C  C67  1  0.77570000  0.35407000  0.79447000  1
  C  C68  1  0.65470000  0.35239000  0.31899000  1
  C  C69  1  0.16360000  0.34394000  0.09057000  1
  C  C70  1  0.05010000  0.32188000  0.53497000  1
  C  C71  1  0.15470000  0.31899000  0.96660000  1
  C  C72  1  0.27850000  0.26342000  0.10762000  1
  C  C73  1  0.66360000  0.25337000  0.34394000  1
  C  C74  1  0.05010000  0.21309000  0.67812000  1
  C  C75  1  0.77570000  0.20553000  0.55960000  1
  C  C76  1  0.77850000  0.15580000  0.26342000  1
  C  C77  1  0.77850000  0.10762000  0.84420000  1
  C  C78  1  0.66360000  0.09057000  0.74663000  1
  C  C79  1  0.15470000  0.03340000  0.35239000  1
  N  N80  1  0.80180000  0.93902000  0.57219000  1
  N  N81  1  0.19130000  0.86925000  0.50148000  1
  N  N82  1  0.60740000  0.86420000  0.31973000  1
  N  N83  1  0.99850000  0.86145000  0.20777000  1
  N  N84  1  0.99850000  0.79223000  0.65368000  1
  N  N85  1  0.60740000  0.68027000  0.54447000  1
  N  N86  1  0.49850000  0.65368000  0.86145000  1
  N  N87  1  0.80180000  0.63317000  0.06098000  1
  N  N88  1  0.19130000  0.63223000  0.13075000  1
  N  N89  1  0.30180000  0.57219000  0.63317000  1
  N  N90  1  0.10740000  0.54447000  0.86420000  1
  N  N91  1  0.69130000  0.50148000  0.63223000  1
  N  N92  1  0.19130000  0.49852000  0.36777000  1
  N  N93  1  0.60740000  0.45553000  0.13580000  1
  N  N94  1  0.80180000  0.42781000  0.36683000  1
  N  N95  1  0.69130000  0.36777000  0.86925000  1
  N  N96  1  0.30180000  0.36683000  0.93902000  1
  N  N97  1  0.99850000  0.34632000  0.13855000  1
  N  N98  1  0.10740000  0.31973000  0.45553000  1
  N  N99  1  0.49850000  0.20777000  0.34632000  1
  N  N100  1  0.49850000  0.13855000  0.79223000  1
  N  N101  1  0.10740000  0.13580000  0.68027000  1
  N  N102  1  0.69130000  0.13075000  0.49852000  1
  N  N103  1  0.30180000  0.06098000  0.42781000  1
  O  O104  1  0.40650000  0.95246000  0.17902000  1
  O  O105  1  0.24260000  0.94502000  0.76089000  1
  O  O106  1  0.40650000  0.82098000  0.77344000  1
  O  O107  1  0.24260000  0.81587000  0.05498000  1
  O  O108  1  0.90650000  0.77344000  0.95246000  1
  O  O109  1  0.74260000  0.76089000  0.81587000  1
  O  O110  1  0.24260000  0.23911000  0.18413000  1
  O  O111  1  0.40650000  0.22656000  0.04754000  1
  O  O112  1  0.74260000  0.18413000  0.94502000  1
  O  O113  1  0.90650000  0.17902000  0.22656000  1
  O  O114  1  0.74260000  0.05498000  0.23911000  1
  O  O115  1  0.90650000  0.04754000  0.82098000  1
