# generated using pymatgen
data_MnH6C12S2(NO2)2
_symmetry_space_group_name_H-M   'P 1'
_cell_length_a   9.70460000
_cell_length_b   13.91293971
_cell_length_c   13.91293971
_cell_angle_alpha   70.39125072
_cell_angle_beta   86.73212753
_cell_angle_gamma   86.73212753
_symmetry_Int_Tables_number   1
_chemical_formula_structural   MnH6C12S2(NO2)2
_chemical_formula_sum   'Mn4 H24 C48 S8 N8 O16'
_cell_volume   1765.26538214
_cell_formula_units_Z   4
loop_
 _symmetry_equiv_pos_site_id
 _symmetry_equiv_pos_as_xyz
  1  'x, y, z'
loop_
 _atom_site_type_symbol
 _atom_site_label
 _atom_site_symmetry_multiplicity
 _atom_site_fract_x
 _atom_site_fract_y
 _atom_site_fract_z
 _atom_site_occupancy
  C  C0  1  0.54680000  0.11699000  0.76843000  1
  C  C1  1  0.04680000  0.76843000  0.11699000  1
  C  C2  1  0.79160000  0.14716000  0.70092000  1
  C  C3  1  0.29160000  0.70092000  0.14716000  1
  C  C4  1  0.65180000  0.15290000  0.68194000  1
  C  C5  1  0.15180000  0.68194000  0.15290000  1
  C  C6  1  0.25340000  0.93658000  0.89074000  1
  C  C7  1  0.75340000  0.89074000  0.93658000  1
  C  C8  1  0.61280000  0.19578000  0.58178000  1
  C  C9  1  0.11280000  0.58178000  0.19578000  1
  C  C10  1  0.84810000  0.22681000  0.53191000  1
  C  C11  1  0.34810000  0.53191000  0.22681000  1
  C  C12  1  0.71180000  0.23264000  0.50484000  1
  C  C13  1  0.21180000  0.50484000  0.23264000  1
  C  C14  1  0.20780000  0.86148000  0.84396000  1
  C  C15  1  0.70780000  0.84396000  0.86148000  1
  C  C16  1  0.12070000  0.89379000  0.76299000  1
  C  C17  1  0.62070000  0.76299000  0.89379000  1
  C  C18  1  0.75590000  0.87578000  0.76082000  1
  C  C19  1  0.25590000  0.76082000  0.87578000  1
  C  C20  1  0.71850000  0.82809000  0.69525000  1
  C  C21  1  0.21850000  0.69525000  0.82809000  1
  C  C22  1  0.36340000  0.25347000  0.26611000  1
  C  C23  1  0.86340000  0.26611000  0.25347000  1
  C  C24  1  0.63660000  0.74653000  0.73389000  1
  C  C25  1  0.13660000  0.73389000  0.74653000  1
  C  C26  1  0.28150000  0.17191000  0.30475000  1
  C  C27  1  0.78150000  0.30475000  0.17191000  1
  C  C28  1  0.24410000  0.12422000  0.23918000  1
  C  C29  1  0.74410000  0.23918000  0.12422000  1
  C  C30  1  0.87930000  0.10621000  0.23701000  1
  C  C31  1  0.37930000  0.23701000  0.10621000  1
  C  C32  1  0.79220000  0.13852000  0.15604000  1
  C  C33  1  0.29220000  0.15604000  0.13852000  1
  C  C34  1  0.28820000  0.76736000  0.49516000  1
  C  C35  1  0.78820000  0.49516000  0.76736000  1
  C  C36  1  0.15190000  0.77319000  0.46809000  1
  C  C37  1  0.65190000  0.46809000  0.77319000  1
  C  C38  1  0.38720000  0.80422000  0.41822000  1
  C  C39  1  0.88720000  0.41822000  0.80422000  1
  C  C40  1  0.74660000  0.06342000  0.10926000  1
  C  C41  1  0.24660000  0.10926000  0.06342000  1
  C  C42  1  0.34820000  0.84710000  0.31806000  1
  C  C43  1  0.84820000  0.31806000  0.84710000  1
  C  C44  1  0.20840000  0.85284000  0.29908000  1
  C  C45  1  0.70840000  0.29908000  0.85284000  1
  C  C46  1  0.45320000  0.88301000  0.23157000  1
  C  C47  1  0.95320000  0.23157000  0.88301000  1
  H  H48  1  0.81940000  0.11540000  0.76920000  1
  H  H49  1  0.31940000  0.76920000  0.11540000  1
  H  H50  1  0.51820000  0.19970000  0.56610000  1
  H  H51  1  0.01820000  0.56610000  0.19970000  1
  H  H52  1  0.08350000  0.96190000  0.74230000  1
  H  H53  1  0.58350000  0.74230000  0.96190000  1
  H  H54  1  0.68740000  0.26110000  0.43550000  1
  H  H55  1  0.18740000  0.43550000  0.26110000  1
  H  H56  1  0.81560000  0.93140000  0.73680000  1
  H  H57  1  0.31560000  0.73680000  0.93140000  1
  H  H58  1  0.25150000  0.14890000  0.37470000  1
  H  H59  1  0.75150000  0.37470000  0.14890000  1
  H  H60  1  0.74850000  0.85110000  0.62530000  1
  H  H61  1  0.24850000  0.62530000  0.85110000  1
  H  H62  1  0.18440000  0.06860000  0.26320000  1
  H  H63  1  0.68440000  0.26320000  0.06860000  1
  H  H64  1  0.31260000  0.73890000  0.56450000  1
  H  H65  1  0.81260000  0.56450000  0.73890000  1
  H  H66  1  0.91650000  0.03810000  0.25770000  1
  H  H67  1  0.41650000  0.25770000  0.03810000  1
  H  H68  1  0.48180000  0.80030000  0.43390000  1
  H  H69  1  0.98180000  0.43390000  0.80030000  1
  H  H70  1  0.18060000  0.88460000  0.23080000  1
  H  H71  1  0.68060000  0.23080000  0.88460000  1
  Mn  Mn72  1  0.00000000  0.00000000  0.00000000  1
  Mn  Mn73  1  0.50000000  0.00000000  0.00000000  1
  Mn  Mn74  1  0.25000000  0.16922000  0.83078000  1
  Mn  Mn75  1  0.75000000  0.83078000  0.16922000  1
  N  N76  1  0.88860000  0.18418000  0.62788000  1
  N  N77  1  0.38860000  0.62788000  0.18418000  1
  N  N78  1  0.08650000  0.83102000  0.71198000  1
  N  N79  1  0.58650000  0.71198000  0.83102000  1
  N  N80  1  0.91350000  0.16898000  0.28802000  1
  N  N81  1  0.41350000  0.28802000  0.16898000  1
  N  N82  1  0.11140000  0.81582000  0.37212000  1
  N  N83  1  0.61140000  0.37212000  0.81582000  1
  O  O84  1  0.59220000  0.07834000  0.85606000  1
  O  O85  1  0.09220000  0.85606000  0.07834000  1
  O  O86  1  0.17117000  0.01476000  0.88096000  1
  O  O87  1  0.67117000  0.88096000  0.01476000  1
  O  O88  1  0.42200000  0.13158000  0.74670000  1
  O  O89  1  0.92200000  0.74670000  0.13158000  1
  O  O90  1  0.86684000  0.93219000  0.91937000  1
  O  O91  1  0.36684000  0.91937000  0.93219000  1
  O  O92  1  0.13316000  0.06781000  0.08063000  1
  O  O93  1  0.63316000  0.08063000  0.06781000  1
  O  O94  1  0.57800000  0.86842000  0.25330000  1
  O  O95  1  0.07800000  0.25330000  0.86842000  1
  O  O96  1  0.82883000  0.98524000  0.11904000  1
  O  O97  1  0.32883000  0.11904000  0.98524000  1
  O  O98  1  0.40780000  0.92166000  0.14394000  1
  O  O99  1  0.90780000  0.14394000  0.92166000  1
  S  S100  1  0.98971000  0.27323000  0.44451000  1
  S  S101  1  0.48971000  0.44451000  0.27323000  1
  S  S102  1  0.39989000  0.31318000  0.35690000  1
  S  S103  1  0.89989000  0.35690000  0.31318000  1
  S  S104  1  0.60011000  0.68682000  0.64310000  1
  S  S105  1  0.10011000  0.64310000  0.68682000  1
  S  S106  1  0.01029000  0.72677000  0.55549000  1
  S  S107  1  0.51029000  0.55549000  0.72677000  1
