# generated using pymatgen
data_GdH3C7NO4
_symmetry_space_group_name_H-M   'P 1'
_cell_length_a   16.30600000
_cell_length_b   17.31641239
_cell_length_c   17.48095663
_cell_angle_alpha   76.97368414
_cell_angle_beta   62.19957254
_cell_angle_gamma   61.91213708
_symmetry_Int_Tables_number   1
_chemical_formula_structural   GdH3C7NO4
_chemical_formula_sum   'Gd8 H24 C56 N8 O32'
_cell_volume   3851.89612260
_cell_formula_units_Z   8
loop_
 _symmetry_equiv_pos_site_id
 _symmetry_equiv_pos_as_xyz
  1  'x, y, z'
loop_
 _atom_site_type_symbol
 _atom_site_label
 _atom_site_symmetry_multiplicity
 _atom_site_fract_x
 _atom_site_fract_y
 _atom_site_fract_z
 _atom_site_occupancy
  C  C0  1  0.84070000  0.37960000  0.54100000  1
  C  C1  1  0.23870000  0.87960000  0.04100000  1
  C  C2  1  0.72300000  0.41140000  0.47200000  1
  C  C3  1  0.39360000  0.91140000  0.97200000  1
  C  C4  1  0.81120000  0.36150000  0.48230000  1
  C  C5  1  0.34500000  0.86150000  0.98230000  1
  C  C6  1  0.70350000  0.38570000  0.41670000  1
  C  C7  1  0.49410000  0.88570000  0.91670000  1
  C  C8  1  0.77220000  0.31000000  0.37180000  1
  C  C9  1  0.54600000  0.81000000  0.87180000  1
  C  C10  1  0.11400000  0.35400000  0.31800000  1
  C  C11  1  0.21400000  0.85400000  0.81800000  1
  C  C12  1  0.11100000  0.04600000  0.61000000  1
  C  C13  1  0.23300000  0.54600000  0.11000000  1
  C  C14  1  0.86030000  0.26030000  0.38210000  1
  C  C15  1  0.49730000  0.76030000  0.88210000  1
  C  C16  1  0.11820000  0.39750000  0.23530000  1
  C  C17  1  0.24900000  0.89750000  0.73530000  1
  C  C18  1  0.17750000  0.49310000  0.12990000  1
  C  C19  1  0.19950000  0.99310000  0.62990000  1
  C  C20  1  0.08760000  0.38080000  0.18300000  1
  C  C21  1  0.34860000  0.88080000  0.68300000  1
  C  C22  1  0.14690000  0.47640000  0.07760000  1
  C  C23  1  0.29910000  0.97640000  0.57760000  1
  C  C24  1  0.10190000  0.42040000  0.10420000  1
  C  C25  1  0.37350000  0.92040000  0.60420000  1
  C  C26  1  0.94390000  0.17840000  0.33760000  1
  C  C27  1  0.54010000  0.67840000  0.83760000  1
  C  C28  1  0.05610000  0.82160000  0.66240000  1
  C  C29  1  0.45990000  0.32160000  0.16240000  1
  C  C30  1  0.89810000  0.57960000  0.89580000  1
  C  C31  1  0.62650000  0.07960000  0.39580000  1
  C  C32  1  0.85310000  0.52360000  0.92240000  1
  C  C33  1  0.70090000  0.02360000  0.42240000  1
  C  C34  1  0.91240000  0.61920000  0.81700000  1
  C  C35  1  0.65140000  0.11920000  0.31700000  1
  C  C36  1  0.82250000  0.50690000  0.87010000  1
  C  C37  1  0.80050000  0.00690000  0.37010000  1
  C  C38  1  0.88180000  0.60250000  0.76470000  1
  C  C39  1  0.75100000  0.10250000  0.26470000  1
  C  C40  1  0.13970000  0.73970000  0.61790000  1
  C  C41  1  0.50270000  0.23970000  0.11790000  1
  C  C42  1  0.88900000  0.95400000  0.39000000  1
  C  C43  1  0.76700000  0.45400000  0.89000000  1
  C  C44  1  0.88600000  0.64600000  0.68200000  1
  C  C45  1  0.78600000  0.14600000  0.18200000  1
  C  C46  1  0.22780000  0.69000000  0.62820000  1
  C  C47  1  0.45400000  0.19000000  0.12820000  1
  C  C48  1  0.29650000  0.61430000  0.58330000  1
  C  C49  1  0.50590000  0.11430000  0.08330000  1
  C  C50  1  0.18880000  0.63850000  0.51770000  1
  C  C51  1  0.65500000  0.13850000  0.01770000  1
  C  C52  1  0.27700000  0.58860000  0.52800000  1
  C  C53  1  0.60640000  0.08860000  0.02800000  1
  C  C54  1  0.15930000  0.62040000  0.45900000  1
  C  C55  1  0.76130000  0.12040000  0.95900000  1
  Gd  Gd56  1  0.99030000  0.97726000  0.80310000  1
  Gd  Gd57  1  0.22934000  0.47726000  0.30310000  1
  Gd  Gd58  1  0.04378000  0.19614000  0.45500000  1
  Gd  Gd59  1  0.30508000  0.69614000  0.95500000  1
  Gd  Gd60  1  0.95622000  0.80386000  0.54500000  1
  Gd  Gd61  1  0.69492000  0.30386000  0.04500000  1
  Gd  Gd62  1  0.00970000  0.02274000  0.19690000  1
  Gd  Gd63  1  0.77066000  0.52274000  0.69690000  1
  H  H64  1  0.67510000  0.46420000  0.50340000  1
  H  H65  1  0.35730000  0.96420000  0.00340000  1
  H  H66  1  0.64190000  0.42050000  0.40950000  1
  H  H67  1  0.52810000  0.92050000  0.90950000  1
  H  H68  1  0.75860000  0.29210000  0.33310000  1
  H  H69  1  0.61620000  0.79210000  0.83310000  1
  H  H70  1  0.05610000  0.34160000  0.20160000  1
  H  H71  1  0.40070000  0.84160000  0.70160000  1
  H  H72  1  0.15690000  0.50410000  0.02250000  1
  H  H73  1  0.31650000  0.00410000  0.52250000  1
  H  H74  1  0.91950000  0.59120000  0.93240000  1
  H  H75  1  0.55690000  0.09120000  0.43240000  1
  H  H76  1  0.08050000  0.40880000  0.06760000  1
  H  H77  1  0.44310000  0.90880000  0.56760000  1
  H  H78  1  0.84310000  0.49590000  0.97750000  1
  H  H79  1  0.68350000  0.99590000  0.47750000  1
  H  H80  1  0.94390000  0.65840000  0.79840000  1
  H  H81  1  0.59930000  0.15840000  0.29840000  1
  H  H82  1  0.24140000  0.70790000  0.66690000  1
  H  H83  1  0.38380000  0.20790000  0.16690000  1
  H  H84  1  0.35810000  0.57950000  0.59050000  1
  H  H85  1  0.47190000  0.07950000  0.09050000  1
  H  H86  1  0.32490000  0.53580000  0.49660000  1
  H  H87  1  0.64270000  0.03580000  0.99660000  1
  N  N88  1  0.87980000  0.28610000  0.43730000  1
  N  N89  1  0.39680000  0.78610000  0.93730000  1
  N  N90  1  0.16320000  0.45340000  0.20880000  1
  N  N91  1  0.17460000  0.95340000  0.70880000  1
  N  N92  1  0.83680000  0.54660000  0.79120000  1
  N  N93  1  0.82540000  0.04660000  0.29120000  1
  N  N94  1  0.12020000  0.71390000  0.56270000  1
  N  N95  1  0.60320000  0.21390000  0.06270000  1
  O  O96  1  0.81770000  0.05420000  0.91240000  1
  O  O97  1  0.21570000  0.55420000  0.41240000  1
  O  O98  1  0.92560000  0.32400000  0.54060000  1
  O  O99  1  0.20980000  0.82400000  0.04060000  1
  O  O100  1  0.12020000  0.87400000  0.85980000  1
  O  O101  1  0.14600000  0.37400000  0.35980000  1
  O  O102  1  0.02060000  0.04380000  0.66300000  1
  O  O103  1  0.27260000  0.54380000  0.16300000  1
  O  O104  1  0.07940000  0.29670000  0.34430000  1
  O  O105  1  0.27960000  0.79670000  0.84430000  1
  O  O106  1  0.12520000  0.08960000  0.53800000  1
  O  O107  1  0.24720000  0.58960000  0.03800000  1
  O  O108  1  0.06740000  0.85120000  0.71360000  1
  O  O109  1  0.36780000  0.35120000  0.21360000  1
  O  O110  1  0.97650000  0.85870000  0.64810000  1
  O  O111  1  0.51670000  0.35870000  0.14810000  1
  O  O112  1  0.02350000  0.14130000  0.35190000  1
  O  O113  1  0.48330000  0.64130000  0.85190000  1
  O  O114  1  0.93260000  0.14880000  0.28640000  1
  O  O115  1  0.63220000  0.64880000  0.78640000  1
  O  O116  1  0.87480000  0.91040000  0.46200000  1
  O  O117  1  0.75280000  0.41040000  0.96200000  1
  O  O118  1  0.92060000  0.70330000  0.65570000  1
  O  O119  1  0.72040000  0.20330000  0.15570000  1
  O  O120  1  0.97940000  0.95620000  0.33700000  1
  O  O121  1  0.72740000  0.45620000  0.83700000  1
  O  O122  1  0.87980000  0.12600000  0.14020000  1
  O  O123  1  0.85400000  0.62600000  0.64020000  1
  O  O124  1  0.07440000  0.67600000  0.45940000  1
  O  O125  1  0.79020000  0.17600000  0.95940000  1
  O  O126  1  0.18230000  0.94580000  0.08760000  1
  O  O127  1  0.78430000  0.44580000  0.58760000  1
