# generated using pymatgen
data_Sr4H8C40S8O17
_symmetry_space_group_name_H-M   'P 1'
_cell_length_a   28.99498427
_cell_length_b   28.99498427
_cell_length_c   28.99498427
_cell_angle_alpha   60.00000000
_cell_angle_beta   60.00000000
_cell_angle_gamma   60.00000000
_symmetry_Int_Tables_number   1
_chemical_formula_structural   Sr4H8C40S8O17
_chemical_formula_sum   'Sr24 H48 C240 S48 O102'
_cell_volume   17236.68062484
_cell_formula_units_Z   6
loop_
 _symmetry_equiv_pos_site_id
 _symmetry_equiv_pos_as_xyz
  1  'x, y, z'
loop_
 _atom_site_type_symbol
 _atom_site_label
 _atom_site_symmetry_multiplicity
 _atom_site_fract_x
 _atom_site_fract_y
 _atom_site_fract_z
 _atom_site_occupancy
  C  C0  1  0.99715000  0.89257000  0.66131000  1
  C  C1  1  0.55103000  0.33869000  0.10743000  1
  C  C2  1  0.05103000  0.83869000  0.50285000  1
  C  C3  1  0.39257000  0.49715000  0.16131000  1
  C  C4  1  0.83869000  0.05103000  0.60743000  1
  C  C5  1  0.49715000  0.39257000  0.94897000  1
  C  C6  1  0.89257000  0.99715000  0.44897000  1
  C  C7  1  0.33869000  0.55103000  0.00285000  1
  C  C8  1  0.95492000  0.87940000  0.71806000  1
  C  C9  1  0.55238000  0.28194000  0.12060000  1
  C  C10  1  0.05238000  0.78194000  0.54508000  1
  C  C11  1  0.37940000  0.45492000  0.21806000  1
  C  C12  1  0.78194000  0.05238000  0.62060000  1
  C  C13  1  0.45492000  0.37940000  0.94762000  1
  C  C14  1  0.87940000  0.95492000  0.44762000  1
  C  C15  1  0.28194000  0.55238000  0.04508000  1
  C  C16  1  0.05221000  0.76295000  0.60005000  1
  C  C17  1  0.41521000  0.39995000  0.23705000  1
  C  C18  1  0.89995000  0.91521000  0.73705000  1
  C  C19  1  0.55221000  0.26295000  0.08479000  1
  C  C20  1  0.91521000  0.89995000  0.44779000  1
  C  C21  1  0.26295000  0.55221000  0.10005000  1
  C  C22  1  0.76295000  0.05221000  0.58479000  1
  C  C23  1  0.39995000  0.41521000  0.94779000  1
  C  C24  1  0.05200000  0.70560000  0.62820000  1
  C  C25  1  0.38580000  0.37180000  0.29440000  1
  C  C26  1  0.87180000  0.88580000  0.79440000  1
  C  C27  1  0.55200000  0.20560000  0.11420000  1
  C  C28  1  0.88580000  0.87180000  0.44800000  1
  C  C29  1  0.20560000  0.55200000  0.12820000  1
  C  C30  1  0.70560000  0.05200000  0.61420000  1
  C  C31  1  0.37180000  0.38580000  0.94800000  1
  C  C32  1  0.90559000  0.83041000  0.81601000  1
  C  C33  1  0.55201000  0.18399000  0.16959000  1
  C  C34  1  0.05201000  0.68399000  0.59441000  1
  C  C35  1  0.33041000  0.40559000  0.31601000  1
  C  C36  1  0.68399000  0.05201000  0.66959000  1
  C  C37  1  0.40559000  0.33041000  0.94799000  1
  C  C38  1  0.83041000  0.90559000  0.44799000  1
  C  C39  1  0.18399000  0.55201000  0.09441000  1
  C  C40  1  0.05201000  0.66959000  0.68399000  1
  C  C41  1  0.40559000  0.31601000  0.33041000  1
  C  C42  1  0.81601000  0.90559000  0.83041000  1
  C  C43  1  0.55201000  0.16959000  0.09441000  1
  C  C44  1  0.90559000  0.81601000  0.44799000  1
  C  C45  1  0.16959000  0.55201000  0.18399000  1
  C  C46  1  0.66959000  0.05201000  0.59441000  1
  C  C47  1  0.31601000  0.40559000  0.94799000  1
  C  C48  1  0.88580000  0.79440000  0.87180000  1
  C  C49  1  0.55200000  0.12820000  0.20560000  1
  C  C50  1  0.05200000  0.62820000  0.61420000  1
  C  C51  1  0.29440000  0.38580000  0.37180000  1
  C  C52  1  0.62820000  0.05200000  0.70560000  1
  C  C53  1  0.38580000  0.29440000  0.94800000  1
  C  C54  1  0.79440000  0.88580000  0.44800000  1
  C  C55  1  0.12820000  0.55200000  0.11420000  1
  C  C56  1  0.05238000  0.62060000  0.78194000  1
  C  C57  1  0.45492000  0.21806000  0.37940000  1
  C  C58  1  0.71806000  0.95492000  0.87940000  1
  C  C59  1  0.55238000  0.12060000  0.04508000  1
  C  C60  1  0.95492000  0.71806000  0.44762000  1
  C  C61  1  0.12060000  0.55238000  0.28194000  1
  C  C62  1  0.62060000  0.05238000  0.54508000  1
  C  C63  1  0.21806000  0.45492000  0.94762000  1
  C  C64  1  0.05200000  0.61420000  0.70560000  1
  C  C65  1  0.37180000  0.29440000  0.38580000  1
  C  C66  1  0.79440000  0.87180000  0.88580000  1
  C  C67  1  0.55200000  0.11420000  0.12820000  1
  C  C68  1  0.87180000  0.79440000  0.44800000  1
  C  C69  1  0.11420000  0.55200000  0.20560000  1
  C  C70  1  0.61420000  0.05200000  0.62820000  1
  C  C71  1  0.29440000  0.37180000  0.94800000  1
  C  C72  1  0.05103000  0.60743000  0.83869000  1
  C  C73  1  0.49715000  0.16131000  0.39257000  1
  C  C74  1  0.66131000  0.99715000  0.89257000  1
  C  C75  1  0.55103000  0.10743000  0.00285000  1
  C  C76  1  0.99715000  0.66131000  0.44897000  1
  C  C77  1  0.10743000  0.55103000  0.33869000  1
  C  C78  1  0.60743000  0.05103000  0.50285000  1
  C  C79  1  0.16131000  0.49715000  0.94897000  1
  C  C80  1  0.91521000  0.73705000  0.89995000  1
  C  C81  1  0.55221000  0.10005000  0.26295000  1
  C  C82  1  0.05221000  0.60005000  0.58479000  1
  C  C83  1  0.23705000  0.41521000  0.39995000  1
  C  C84  1  0.60005000  0.05221000  0.76295000  1
  C  C85  1  0.41521000  0.23705000  0.94779000  1
  C  C86  1  0.73705000  0.91521000  0.44779000  1
  C  C87  1  0.10005000  0.55221000  0.08479000  1
  C  C88  1  0.83041000  0.81601000  0.90559000  1
  C  C89  1  0.55201000  0.09441000  0.18399000  1
  C  C90  1  0.05201000  0.59441000  0.66959000  1
  C  C91  1  0.31601000  0.33041000  0.40559000  1
  C  C92  1  0.59441000  0.05201000  0.68399000  1
  C  C93  1  0.33041000  0.31601000  0.94799000  1
  C  C94  1  0.81601000  0.83041000  0.44799000  1
  C  C95  1  0.09441000  0.55201000  0.16959000  1
  C  C96  1  0.05221000  0.58479000  0.76295000  1
  C  C97  1  0.39995000  0.23705000  0.41521000  1
  C  C98  1  0.73705000  0.89995000  0.91521000  1
  C  C99  1  0.55221000  0.08479000  0.10005000  1
  C  C100  1  0.89995000  0.73705000  0.44779000  1
  C  C101  1  0.08479000  0.55221000  0.26295000  1
  C  C102  1  0.58479000  0.05221000  0.60005000  1
  C  C103  1  0.23705000  0.39995000  0.94779000  1
  C  C104  1  0.87940000  0.71806000  0.95492000  1
  C  C105  1  0.55238000  0.04508000  0.28194000  1
  C  C106  1  0.05238000  0.54508000  0.62060000  1
  C  C107  1  0.21806000  0.37940000  0.45492000  1
  C  C108  1  0.54508000  0.05238000  0.78194000  1
  C  C109  1  0.37940000  0.21806000  0.94762000  1
  C  C110  1  0.71806000  0.87940000  0.44762000  1
  C  C111  1  0.04508000  0.55238000  0.12060000  1
  C  C112  1  0.89257000  0.66131000  0.99715000  1
  C  C113  1  0.55103000  0.00285000  0.33869000  1
  C  C114  1  0.05103000  0.50285000  0.60743000  1
  C  C115  1  0.16131000  0.39257000  0.49715000  1
  C  C116  1  0.50285000  0.05103000  0.83869000  1
  C  C117  1  0.39257000  0.16131000  0.94897000  1
  C  C118  1  0.66131000  0.89257000  0.44897000  1
  C  C119  1  0.00285000  0.55103000  0.10743000  1
  C  C120  1  0.99715000  0.44897000  0.89257000  1
  C  C121  1  0.33869000  0.10743000  0.55103000  1
  C  C122  1  0.60743000  0.83869000  0.05103000  1
  C  C123  1  0.49715000  0.94897000  0.16131000  1
  C  C124  1  0.83869000  0.60743000  0.50285000  1
  C  C125  1  0.94897000  0.49715000  0.39257000  1
  C  C126  1  0.44897000  0.99715000  0.66131000  1
  C  C127  1  0.10743000  0.33869000  0.00285000  1
  C  C128  1  0.95492000  0.44762000  0.87940000  1
  C  C129  1  0.28194000  0.12060000  0.55238000  1
  C  C130  1  0.62060000  0.78194000  0.05238000  1
  C  C131  1  0.45492000  0.94762000  0.21806000  1
  C  C132  1  0.78194000  0.62060000  0.54508000  1
  C  C133  1  0.94762000  0.45492000  0.37940000  1
  C  C134  1  0.44762000  0.95492000  0.71806000  1
  C  C135  1  0.12060000  0.28194000  0.04508000  1
  C  C136  1  0.76295000  0.60005000  0.05221000  1
  C  C137  1  0.41521000  0.94779000  0.39995000  1
  C  C138  1  0.91521000  0.44779000  0.73705000  1
  C  C139  1  0.10005000  0.26295000  0.55221000  1
  C  C140  1  0.44779000  0.91521000  0.89995000  1
  C  C141  1  0.26295000  0.10005000  0.08479000  1
  C  C142  1  0.60005000  0.76295000  0.58479000  1
  C  C143  1  0.94779000  0.41521000  0.23705000  1
  C  C144  1  0.90559000  0.44799000  0.83041000  1
  C  C145  1  0.18399000  0.16959000  0.55201000  1
  C  C146  1  0.66959000  0.68399000  0.05201000  1
  C  C147  1  0.40559000  0.94799000  0.31601000  1
  C  C148  1  0.68399000  0.66959000  0.59441000  1
  C  C149  1  0.94799000  0.40559000  0.33041000  1
  C  C150  1  0.44799000  0.90559000  0.81601000  1
  C  C151  1  0.16959000  0.18399000  0.09441000  1
  C  C152  1  0.89995000  0.44779000  0.91521000  1
  C  C153  1  0.26295000  0.08479000  0.55221000  1
  C  C154  1  0.58479000  0.76295000  0.05221000  1
  C  C155  1  0.39995000  0.94779000  0.23705000  1
  C  C156  1  0.76295000  0.58479000  0.60005000  1
  C  C157  1  0.94779000  0.39995000  0.41521000  1
  C  C158  1  0.44779000  0.89995000  0.73705000  1
  C  C159  1  0.08479000  0.26295000  0.10005000  1
  C  C160  1  0.83869000  0.50285000  0.05103000  1
  C  C161  1  0.39257000  0.94897000  0.49715000  1
  C  C162  1  0.89257000  0.44897000  0.66131000  1
  C  C163  1  0.00285000  0.33869000  0.55103000  1
  C  C164  1  0.44897000  0.89257000  0.99715000  1
  C  C165  1  0.33869000  0.00285000  0.10743000  1
  C  C166  1  0.50285000  0.83869000  0.60743000  1
  C  C167  1  0.94897000  0.39257000  0.16131000  1
  C  C168  1  0.70560000  0.62820000  0.05200000  1
  C  C169  1  0.38580000  0.94800000  0.37180000  1
  C  C170  1  0.88580000  0.44800000  0.79440000  1
  C  C171  1  0.12820000  0.20560000  0.55200000  1
  C  C172  1  0.44800000  0.88580000  0.87180000  1
  C  C173  1  0.20560000  0.12820000  0.11420000  1
  C  C174  1  0.62820000  0.70560000  0.61420000  1
  C  C175  1  0.94800000  0.38580000  0.29440000  1
  C  C176  1  0.78194000  0.54508000  0.05238000  1
  C  C177  1  0.37940000  0.94762000  0.45492000  1
  C  C178  1  0.87940000  0.44762000  0.71806000  1
  C  C179  1  0.04508000  0.28194000  0.55238000  1
  C  C180  1  0.44762000  0.87940000  0.95492000  1
  C  C181  1  0.28194000  0.04508000  0.12060000  1
  C  C182  1  0.54508000  0.78194000  0.62060000  1
  C  C183  1  0.94762000  0.37940000  0.21806000  1
  C  C184  1  0.87180000  0.44800000  0.88580000  1
  C  C185  1  0.20560000  0.11420000  0.55200000  1
  C  C186  1  0.61420000  0.70560000  0.05200000  1
  C  C187  1  0.37180000  0.94800000  0.29440000  1
  C  C188  1  0.70560000  0.61420000  0.62820000  1
  C  C189  1  0.94800000  0.37180000  0.38580000  1
  C  C190  1  0.44800000  0.87180000  0.79440000  1
  C  C191  1  0.11420000  0.20560000  0.12820000  1
  C  C192  1  0.68399000  0.59441000  0.05201000  1
  C  C193  1  0.33041000  0.94799000  0.40559000  1
  C  C194  1  0.83041000  0.44799000  0.81601000  1
  C  C195  1  0.09441000  0.18399000  0.55201000  1
  C  C196  1  0.44799000  0.83041000  0.90559000  1
  C  C197  1  0.18399000  0.09441000  0.16959000  1
  C  C198  1  0.59441000  0.68399000  0.66959000  1
  C  C199  1  0.94799000  0.33041000  0.31601000  1
  C  C200  1  0.81601000  0.44799000  0.90559000  1
  C  C201  1  0.16959000  0.09441000  0.55201000  1
  C  C202  1  0.59441000  0.66959000  0.05201000  1
  C  C203  1  0.31601000  0.94799000  0.33041000  1
  C  C204  1  0.66959000  0.59441000  0.68399000  1
  C  C205  1  0.94799000  0.31601000  0.40559000  1
  C  C206  1  0.44799000  0.81601000  0.83041000  1
  C  C207  1  0.09441000  0.16959000  0.18399000  1
  C  C208  1  0.62820000  0.61420000  0.05200000  1
  C  C209  1  0.29440000  0.94800000  0.38580000  1
  C  C210  1  0.79440000  0.44800000  0.87180000  1
  C  C211  1  0.11420000  0.12820000  0.55200000  1
  C  C212  1  0.44800000  0.79440000  0.88580000  1
  C  C213  1  0.12820000  0.11420000  0.20560000  1
  C  C214  1  0.61420000  0.62820000  0.70560000  1
  C  C215  1  0.94800000  0.29440000  0.37180000  1
  C  C216  1  0.60005000  0.58479000  0.05221000  1
  C  C217  1  0.23705000  0.94779000  0.41521000  1
  C  C218  1  0.73705000  0.44779000  0.89995000  1
  C  C219  1  0.08479000  0.10005000  0.55221000  1
  C  C220  1  0.44779000  0.73705000  0.91521000  1
  C  C221  1  0.10005000  0.08479000  0.26295000  1
  C  C222  1  0.58479000  0.60005000  0.76295000  1
  C  C223  1  0.94779000  0.23705000  0.39995000  1
  C  C224  1  0.71806000  0.44762000  0.95492000  1
  C  C225  1  0.12060000  0.04508000  0.55238000  1
  C  C226  1  0.54508000  0.62060000  0.05238000  1
  C  C227  1  0.21806000  0.94762000  0.37940000  1
  C  C228  1  0.62060000  0.54508000  0.78194000  1
  C  C229  1  0.94762000  0.21806000  0.45492000  1
  C  C230  1  0.44762000  0.71806000  0.87940000  1
  C  C231  1  0.04508000  0.12060000  0.28194000  1
  C  C232  1  0.66131000  0.44897000  0.99715000  1
  C  C233  1  0.10743000  0.00285000  0.55103000  1
  C  C234  1  0.50285000  0.60743000  0.05103000  1
  C  C235  1  0.16131000  0.94897000  0.39257000  1
  C  C236  1  0.60743000  0.50285000  0.83869000  1
  C  C237  1  0.94897000  0.16131000  0.49715000  1
  C  C238  1  0.44897000  0.66131000  0.89257000  1
  C  C239  1  0.00285000  0.10743000  0.33869000  1
  H  H240  1  0.05230000  0.78390000  0.61590000  1
  H  H241  1  0.45210000  0.38410000  0.21610000  1
  H  H242  1  0.88410000  0.95210000  0.71610000  1
  H  H243  1  0.55230000  0.28390000  0.04790000  1
  H  H244  1  0.95210000  0.88410000  0.44770000  1
  H  H245  1  0.28390000  0.55230000  0.11590000  1
  H  H246  1  0.78390000  0.05230000  0.54790000  1
  H  H247  1  0.38410000  0.45210000  0.94770000  1
  H  H248  1  0.95210000  0.71610000  0.88410000  1
  H  H249  1  0.55230000  0.11590000  0.28390000  1
  H  H250  1  0.05230000  0.61590000  0.54790000  1
  H  H251  1  0.21610000  0.45210000  0.38410000  1
  H  H252  1  0.61590000  0.05230000  0.78390000  1
  H  H253  1  0.45210000  0.21610000  0.94770000  1
  H  H254  1  0.71610000  0.95210000  0.44770000  1
  H  H255  1  0.11590000  0.55230000  0.04790000  1
  H  H256  1  0.05230000  0.54790000  0.78390000  1
  H  H257  1  0.38410000  0.21610000  0.45210000  1
  H  H258  1  0.71610000  0.88410000  0.95210000  1
  H  H259  1  0.55230000  0.04790000  0.11590000  1
  H  H260  1  0.88410000  0.71610000  0.44770000  1
  H  H261  1  0.04790000  0.55230000  0.28390000  1
  H  H262  1  0.54790000  0.05230000  0.61590000  1
  H  H263  1  0.21610000  0.38410000  0.94770000  1
  H  H264  1  0.78390000  0.61590000  0.05230000  1
  H  H265  1  0.45210000  0.94770000  0.38410000  1
  H  H266  1  0.95210000  0.44770000  0.71610000  1
  H  H267  1  0.11590000  0.28390000  0.55230000  1
  H  H268  1  0.44770000  0.95210000  0.88410000  1
  H  H269  1  0.28390000  0.11590000  0.04790000  1
  H  H270  1  0.61590000  0.78390000  0.54790000  1
  H  H271  1  0.94770000  0.45210000  0.21610000  1
  H  H272  1  0.88410000  0.44770000  0.95210000  1
  H  H273  1  0.28390000  0.04790000  0.55230000  1
  H  H274  1  0.54790000  0.78390000  0.05230000  1
  H  H275  1  0.38410000  0.94770000  0.21610000  1
  H  H276  1  0.78390000  0.54790000  0.61590000  1
  H  H277  1  0.94770000  0.38410000  0.45210000  1
  H  H278  1  0.44770000  0.88410000  0.71610000  1
  H  H279  1  0.04790000  0.28390000  0.11590000  1
  H  H280  1  0.61590000  0.54790000  0.05230000  1
  H  H281  1  0.21610000  0.94770000  0.45210000  1
  H  H282  1  0.71610000  0.44770000  0.88410000  1
  H  H283  1  0.04790000  0.11590000  0.55230000  1
  H  H284  1  0.44770000  0.71610000  0.95210000  1
  H  H285  1  0.11590000  0.04790000  0.28390000  1
  H  H286  1  0.54790000  0.61590000  0.78390000  1
  H  H287  1  0.94770000  0.21610000  0.38410000  1
  O  O288  1  1.00000000  0.00000000  0.50000000  1
  O  O289  1  0.50000000  0.50000000  1.00000000  1
  O  O290  1  0.98346000  0.94080000  0.62612000  1
  O  O291  1  0.55038000  0.37388000  0.05920000  1
  O  O292  1  0.05038000  0.87388000  0.51654000  1
  O  O293  1  0.44080000  0.48346000  0.12612000  1
  O  O294  1  0.87388000  0.05038000  0.55920000  1
  O  O295  1  0.48346000  0.44080000  0.94962000  1
  O  O296  1  0.94080000  0.98346000  0.44962000  1
  O  O297  1  0.37388000  0.55038000  0.01654000  1
  O  O298  1  0.04444000  0.85536000  0.65050000  1
  O  O299  1  0.55030000  0.34950000  0.14464000  1
  O  O300  1  0.05030000  0.84950000  0.45556000  1
  O  O301  1  0.35536000  0.54444000  0.15050000  1
  O  O302  1  0.84950000  0.05030000  0.64464000  1
  O  O303  1  0.54444000  0.35536000  0.94970000  1
  O  O304  1  0.85536000  0.04444000  0.44970000  1
  O  O305  1  0.34950000  0.55030000  0.95556000  1
  O  O306  1  0.05030000  0.64464000  0.84950000  1
  O  O307  1  0.54444000  0.15050000  0.35536000  1
  O  O308  1  0.65050000  0.04444000  0.85536000  1
  O  O309  1  0.55030000  0.14464000  0.95556000  1
  O  O310  1  0.04444000  0.65050000  0.44970000  1
  O  O311  1  0.14464000  0.55030000  0.34950000  1
  O  O312  1  0.64464000  0.05030000  0.45556000  1
  O  O313  1  0.15050000  0.54444000  0.94970000  1
  O  O314  1  0.05038000  0.55920000  0.87388000  1
  O  O315  1  0.48346000  0.12612000  0.44080000  1
  O  O316  1  0.62612000  0.98346000  0.94080000  1
  O  O317  1  0.55038000  0.05920000  0.01654000  1
  O  O318  1  0.98346000  0.62612000  0.44962000  1
  O  O319  1  0.05920000  0.55038000  0.37388000  1
  O  O320  1  0.55920000  0.05038000  0.51654000  1
  O  O321  1  0.12612000  0.48346000  0.94962000  1
  O  O322  1  0.94080000  0.62612000  0.98346000  1
  O  O323  1  0.55038000  0.01654000  0.37388000  1
  O  O324  1  0.05038000  0.51654000  0.55920000  1
  O  O325  1  0.12612000  0.44080000  0.48346000  1
  O  O326  1  0.51654000  0.05038000  0.87388000  1
  O  O327  1  0.44080000  0.12612000  0.94962000  1
  O  O328  1  0.62612000  0.94080000  0.44962000  1
  O  O329  1  0.01654000  0.55038000  0.05920000  1
  O  O330  1  0.85536000  0.65050000  0.04444000  1
  O  O331  1  0.55030000  0.95556000  0.34950000  1
  O  O332  1  0.05030000  0.45556000  0.64464000  1
  O  O333  1  0.15050000  0.35536000  0.54444000  1
  O  O334  1  0.45556000  0.05030000  0.84950000  1
  O  O335  1  0.35536000  0.15050000  0.94970000  1
  O  O336  1  0.65050000  0.85536000  0.44970000  1
  O  O337  1  0.95556000  0.55030000  0.14464000  1
  O  O338  1  0.00000000  0.50000000  1.00000000  1
  O  O339  1  0.50000000  0.00000000  0.50000000  1
  O  O340  1  0.50000000  0.00000000  1.00000000  1
  O  O341  1  0.00000000  0.50000000  0.50000000  1
  O  O342  1  0.04444000  0.44970000  0.85536000  1
  O  O343  1  0.34950000  0.14464000  0.55030000  1
  O  O344  1  0.64464000  0.84950000  0.05030000  1
  O  O345  1  0.54444000  0.94970000  0.15050000  1
  O  O346  1  0.84950000  0.64464000  0.45556000  1
  O  O347  1  0.94970000  0.54444000  0.35536000  1
  O  O348  1  0.44970000  0.04444000  0.65050000  1
  O  O349  1  0.14464000  0.34950000  0.95556000  1
  O  O350  1  0.98346000  0.44962000  0.94080000  1
  O  O351  1  0.37388000  0.05920000  0.55038000  1
  O  O352  1  0.55920000  0.87388000  0.05038000  1
  O  O353  1  0.48346000  0.94962000  0.12612000  1
  O  O354  1  0.87388000  0.55920000  0.51654000  1
  O  O355  1  0.94962000  0.48346000  0.44080000  1
  O  O356  1  0.44962000  0.98346000  0.62612000  1
  O  O357  1  0.05920000  0.37388000  0.01654000  1
  O  O358  1  0.87388000  0.51654000  0.05038000  1
  O  O359  1  0.44080000  0.94962000  0.48346000  1
  O  O360  1  0.94080000  0.44962000  0.62612000  1
  O  O361  1  0.01654000  0.37388000  0.55038000  1
  O  O362  1  0.44962000  0.94080000  0.98346000  1
  O  O363  1  0.37388000  0.01654000  0.05920000  1
  O  O364  1  0.51654000  0.87388000  0.55920000  1
  O  O365  1  0.94962000  0.44080000  0.12612000  1
  O  O366  1  0.84950000  0.45556000  0.05030000  1
  O  O367  1  0.35536000  0.94970000  0.54444000  1
  O  O368  1  0.85536000  0.44970000  0.65050000  1
  O  O369  1  0.95556000  0.34950000  0.55030000  1
  O  O370  1  0.44970000  0.85536000  0.04444000  1
  O  O371  1  0.34950000  0.95556000  0.14464000  1
  O  O372  1  0.45556000  0.84950000  0.64464000  1
  O  O373  1  0.94970000  0.35536000  0.15050000  1
  O  O374  1  0.65050000  0.44970000  0.04444000  1
  O  O375  1  0.14464000  0.95556000  0.55030000  1
  O  O376  1  0.45556000  0.64464000  0.05030000  1
  O  O377  1  0.15050000  0.94970000  0.35536000  1
  O  O378  1  0.64464000  0.45556000  0.84950000  1
  O  O379  1  0.94970000  0.15050000  0.54444000  1
  O  O380  1  0.44970000  0.65050000  0.85536000  1
  O  O381  1  0.95556000  0.14464000  0.34950000  1
  O  O382  1  0.62612000  0.44962000  0.98346000  1
  O  O383  1  0.05920000  0.01654000  0.55038000  1
  O  O384  1  0.51654000  0.55920000  0.05038000  1
  O  O385  1  0.12612000  0.94962000  0.44080000  1
  O  O386  1  0.55920000  0.51654000  0.87388000  1
  O  O387  1  0.94962000  0.12612000  0.48346000  1
  O  O388  1  0.44962000  0.62612000  0.94080000  1
  O  O389  1  0.01654000  0.05920000  0.37388000  1
  S  S390  1  0.97199000  0.81323000  0.76749000  1
  S  S391  1  0.55271000  0.23251000  0.18677000  1
  S  S392  1  0.05271000  0.73251000  0.52801000  1
  S  S393  1  0.31323000  0.47199000  0.26749000  1
  S  S394  1  0.73251000  0.05271000  0.68677000  1
  S  S395  1  0.47199000  0.31323000  0.94729000  1
  S  S396  1  0.81323000  0.97199000  0.44729000  1
  S  S397  1  0.23251000  0.55271000  0.02801000  1
  S  S398  1  0.05271000  0.68677000  0.73251000  1
  S  S399  1  0.47199000  0.26749000  0.31323000  1
  S  S400  1  0.76749000  0.97199000  0.81323000  1
  S  S401  1  0.55271000  0.18677000  0.02801000  1
  S  S402  1  0.97199000  0.76749000  0.44729000  1
  S  S403  1  0.18677000  0.55271000  0.23251000  1
  S  S404  1  0.68677000  0.05271000  0.52801000  1
  S  S405  1  0.26749000  0.47199000  0.94729000  1
  S  S406  1  0.81323000  0.76749000  0.97199000  1
  S  S407  1  0.55271000  0.02801000  0.23251000  1
  S  S408  1  0.05271000  0.52801000  0.68677000  1
  S  S409  1  0.26749000  0.31323000  0.47199000  1
  S  S410  1  0.52801000  0.05271000  0.73251000  1
  S  S411  1  0.31323000  0.26749000  0.94729000  1
  S  S412  1  0.76749000  0.81323000  0.44729000  1
  S  S413  1  0.02801000  0.55271000  0.18677000  1
  S  S414  1  0.97199000  0.44729000  0.81323000  1
  S  S415  1  0.23251000  0.18677000  0.55271000  1
  S  S416  1  0.68677000  0.73251000  0.05271000  1
  S  S417  1  0.47199000  0.94729000  0.26749000  1
  S  S418  1  0.73251000  0.68677000  0.52801000  1
  S  S419  1  0.94729000  0.47199000  0.31323000  1
  S  S420  1  0.44729000  0.97199000  0.76749000  1
  S  S421  1  0.18677000  0.23251000  0.02801000  1
  S  S422  1  0.73251000  0.52801000  0.05271000  1
  S  S423  1  0.31323000  0.94729000  0.47199000  1
  S  S424  1  0.81323000  0.44729000  0.76749000  1
  S  S425  1  0.02801000  0.23251000  0.55271000  1
  S  S426  1  0.44729000  0.81323000  0.97199000  1
  S  S427  1  0.23251000  0.02801000  0.18677000  1
  S  S428  1  0.52801000  0.73251000  0.68677000  1
  S  S429  1  0.94729000  0.31323000  0.26749000  1
  S  S430  1  0.76749000  0.44729000  0.97199000  1
  S  S431  1  0.18677000  0.02801000  0.55271000  1
  S  S432  1  0.52801000  0.68677000  0.05271000  1
  S  S433  1  0.26749000  0.94729000  0.31323000  1
  S  S434  1  0.68677000  0.52801000  0.73251000  1
  S  S435  1  0.94729000  0.26749000  0.47199000  1
  S  S436  1  0.44729000  0.76749000  0.81323000  1
  S  S437  1  0.02801000  0.18677000  0.23251000  1
  Sr  Sr438  1  0.08016000  0.91984000  0.54392000  1
  Sr  Sr439  1  0.54392000  0.45608000  0.08016000  1
  Sr  Sr440  1  0.95608000  0.04392000  0.58016000  1
  Sr  Sr441  1  0.58016000  0.41984000  0.95608000  1
  Sr  Sr442  1  0.04392000  0.95608000  0.41984000  1
  Sr  Sr443  1  0.41984000  0.58016000  0.04392000  1
  Sr  Sr444  1  0.91984000  0.08016000  0.45608000  1
  Sr  Sr445  1  0.45608000  0.54392000  0.91984000  1
  Sr  Sr446  1  0.04392000  0.58016000  0.95608000  1
  Sr  Sr447  1  0.58016000  0.04392000  0.41984000  1
  Sr  Sr448  1  0.08016000  0.54392000  0.45608000  1
  Sr  Sr449  1  0.54392000  0.08016000  0.91984000  1
  Sr  Sr450  1  0.08016000  0.45608000  0.91984000  1
  Sr  Sr451  1  0.45608000  0.08016000  0.54392000  1
  Sr  Sr452  1  0.58016000  0.95608000  0.04392000  1
  Sr  Sr453  1  0.95608000  0.58016000  0.41984000  1
  Sr  Sr454  1  0.91984000  0.54392000  0.08016000  1
  Sr  Sr455  1  0.54392000  0.91984000  0.45608000  1
  Sr  Sr456  1  0.04392000  0.41984000  0.58016000  1
  Sr  Sr457  1  0.41984000  0.04392000  0.95608000  1
  Sr  Sr458  1  0.95608000  0.41984000  0.04392000  1
  Sr  Sr459  1  0.41984000  0.95608000  0.58016000  1
  Sr  Sr460  1  0.45608000  0.91984000  0.08016000  1
  Sr  Sr461  1  0.91984000  0.45608000  0.54392000  1
