# generated using pymatgen
data_LaH3C7NO4
_symmetry_space_group_name_H-M   'P 1'
_cell_length_a   19.98180000
_cell_length_b   19.98180000
_cell_length_c   19.98180000
_cell_angle_alpha   90.00000000
_cell_angle_beta   90.00000000
_cell_angle_gamma   90.00000000
_symmetry_Int_Tables_number   1
_chemical_formula_structural   LaH3C7NO4
_chemical_formula_sum   'La24 H72 C168 N24 O96'
_cell_volume   7978.17986837
_cell_formula_units_Z   24
loop_
 _symmetry_equiv_pos_site_id
 _symmetry_equiv_pos_as_xyz
  1  'x, y, z'
loop_
 _atom_site_type_symbol
 _atom_site_label
 _atom_site_symmetry_multiplicity
 _atom_site_fract_x
 _atom_site_fract_y
 _atom_site_fract_z
 _atom_site_occupancy
  La  La0  1  0.00707000  0.74739000  0.15339000  1
  La  La1  1  0.00707000  0.75261000  0.65339000  1
  La  La2  1  0.15339000  0.00707000  0.74739000  1
  La  La3  1  0.15339000  0.49293000  0.24739000  1
  La  La4  1  0.24739000  0.15339000  0.49293000  1
  La  La5  1  0.24739000  0.34661000  0.99293000  1
  La  La6  1  0.25261000  0.65339000  0.49293000  1
  La  La7  1  0.25261000  0.84661000  0.99293000  1
  La  La8  1  0.34661000  0.50707000  0.74739000  1
  La  La9  1  0.34661000  0.99293000  0.24739000  1
  La  La10  1  0.49293000  0.24739000  0.15339000  1
  La  La11  1  0.49293000  0.25261000  0.65339000  1
  La  La12  1  0.50707000  0.74739000  0.34661000  1
  La  La13  1  0.50707000  0.75261000  0.84661000  1
  La  La14  1  0.65339000  0.00707000  0.75261000  1
  La  La15  1  0.65339000  0.49293000  0.25261000  1
  La  La16  1  0.74739000  0.15339000  0.00707000  1
  La  La17  1  0.74739000  0.34661000  0.50707000  1
  La  La18  1  0.75261000  0.65339000  0.00707000  1
  La  La19  1  0.75261000  0.84661000  0.50707000  1
  La  La20  1  0.84661000  0.50707000  0.75261000  1
  La  La21  1  0.84661000  0.99293000  0.25261000  1
  La  La22  1  0.99293000  0.24739000  0.34661000  1
  La  La23  1  0.99293000  0.25261000  0.84661000  1
  H  H24  1  0.00030000  0.73570000  0.46790000  1
  H  H25  1  0.00030000  0.76430000  0.96790000  1
  H  H26  1  0.03210000  0.50030000  0.73570000  1
  H  H27  1  0.03210000  0.99970000  0.23570000  1
  H  H28  1  0.04730000  0.65080000  0.40790000  1
  H  H29  1  0.04730000  0.84920000  0.90790000  1
  H  H30  1  0.05210000  0.17430000  0.58740000  1
  H  H31  1  0.05210000  0.32570000  0.08740000  1
  H  H32  1  0.08740000  0.05210000  0.32570000  1
  H  H33  1  0.08740000  0.44790000  0.82570000  1
  H  H34  1  0.09210000  0.54730000  0.65080000  1
  H  H35  1  0.09210000  0.95270000  0.15080000  1
  H  H36  1  0.15080000  0.09210000  0.95270000  1
  H  H37  1  0.15080000  0.40790000  0.45270000  1
  H  H38  1  0.17430000  0.58740000  0.05210000  1
  H  H39  1  0.17430000  0.91260000  0.55210000  1
  H  H40  1  0.23570000  0.03210000  0.99970000  1
  H  H41  1  0.23570000  0.46790000  0.49970000  1
  H  H42  1  0.26430000  0.53210000  0.99970000  1
  H  H43  1  0.26430000  0.96790000  0.49970000  1
  H  H44  1  0.32570000  0.08740000  0.05210000  1
  H  H45  1  0.32570000  0.41260000  0.55210000  1
  H  H46  1  0.34920000  0.59210000  0.95270000  1
  H  H47  1  0.34920000  0.90790000  0.45270000  1
  H  H48  1  0.40790000  0.04730000  0.65080000  1
  H  H49  1  0.40790000  0.45270000  0.15080000  1
  H  H50  1  0.41260000  0.55210000  0.32570000  1
  H  H51  1  0.41260000  0.94790000  0.82570000  1
  H  H52  1  0.44790000  0.67430000  0.58740000  1
  H  H53  1  0.44790000  0.82570000  0.08740000  1
  H  H54  1  0.45270000  0.15080000  0.40790000  1
  H  H55  1  0.45270000  0.34920000  0.90790000  1
  H  H56  1  0.46790000  0.00030000  0.73570000  1
  H  H57  1  0.46790000  0.49970000  0.23570000  1
  H  H58  1  0.49970000  0.23570000  0.46790000  1
  H  H59  1  0.49970000  0.26430000  0.96790000  1
  H  H60  1  0.50030000  0.73570000  0.03210000  1
  H  H61  1  0.50030000  0.76430000  0.53210000  1
  H  H62  1  0.53210000  0.50030000  0.76430000  1
  H  H63  1  0.53210000  0.99970000  0.26430000  1
  H  H64  1  0.54730000  0.65080000  0.09210000  1
  H  H65  1  0.54730000  0.84920000  0.59210000  1
  H  H66  1  0.55210000  0.17430000  0.91260000  1
  H  H67  1  0.55210000  0.32570000  0.41260000  1
  H  H68  1  0.58740000  0.05210000  0.17430000  1
  H  H69  1  0.58740000  0.44790000  0.67430000  1
  H  H70  1  0.59210000  0.54730000  0.84920000  1
  H  H71  1  0.59210000  0.95270000  0.34920000  1
  H  H72  1  0.65080000  0.09210000  0.54730000  1
  H  H73  1  0.65080000  0.40790000  0.04730000  1
  H  H74  1  0.67430000  0.58740000  0.44790000  1
  H  H75  1  0.67430000  0.91260000  0.94790000  1
  H  H76  1  0.73570000  0.03210000  0.50030000  1
  H  H77  1  0.73570000  0.46790000  0.00030000  1
  H  H78  1  0.76430000  0.53210000  0.50030000  1
  H  H79  1  0.76430000  0.96790000  0.00030000  1
  H  H80  1  0.82570000  0.08740000  0.44790000  1
  H  H81  1  0.82570000  0.41260000  0.94790000  1
  H  H82  1  0.84920000  0.59210000  0.54730000  1
  H  H83  1  0.84920000  0.90790000  0.04730000  1
  H  H84  1  0.90790000  0.04730000  0.84920000  1
  H  H85  1  0.90790000  0.45270000  0.34920000  1
  H  H86  1  0.91260000  0.55210000  0.17430000  1
  H  H87  1  0.91260000  0.94790000  0.67430000  1
  H  H88  1  0.94790000  0.67430000  0.91260000  1
  H  H89  1  0.94790000  0.82570000  0.41260000  1
  H  H90  1  0.95270000  0.15080000  0.09210000  1
  H  H91  1  0.95270000  0.34920000  0.59210000  1
  H  H92  1  0.96790000  0.00030000  0.76430000  1
  H  H93  1  0.96790000  0.49970000  0.26430000  1
  H  H94  1  0.99970000  0.23570000  0.03210000  1
  H  H95  1  0.99970000  0.26430000  0.53210000  1
  C  C96  1  0.00070000  0.23710000  0.07860000  1
  C  C97  1  0.00070000  0.26290000  0.57860000  1
  C  C98  1  0.02470000  0.68820000  0.31750000  1
  C  C99  1  0.02470000  0.81180000  0.81750000  1
  C  C100  1  0.02700000  0.20840000  0.68070000  1
  C  C101  1  0.02700000  0.29160000  0.18070000  1
  C  C102  1  0.02700000  0.68650000  0.38600000  1
  C  C103  1  0.02700000  0.81350000  0.88600000  1
  C  C104  1  0.03090000  0.20830000  0.61100000  1
  C  C105  1  0.03090000  0.29170000  0.11100000  1
  C  C106  1  0.05300000  0.63480000  0.27340000  1
  C  C107  1  0.05300000  0.86520000  0.77340000  1
  C  C108  1  0.05590000  0.15450000  0.72270000  1
  C  C109  1  0.05590000  0.34550000  0.22270000  1
  C  C110  1  0.07860000  0.00070000  0.23710000  1
  C  C111  1  0.07860000  0.49930000  0.73710000  1
  C  C112  1  0.11100000  0.03090000  0.29170000  1
  C  C113  1  0.11100000  0.46910000  0.79170000  1
  C  C114  1  0.11400000  0.52700000  0.68650000  1
  C  C115  1  0.11400000  0.97300000  0.18650000  1
  C  C116  1  0.13480000  0.22660000  0.94700000  1
  C  C117  1  0.13480000  0.27340000  0.44700000  1
  C  C118  1  0.15450000  0.72270000  0.05590000  1
  C  C119  1  0.15450000  0.77730000  0.55590000  1
  C  C120  1  0.18070000  0.02700000  0.29160000  1
  C  C121  1  0.18070000  0.47300000  0.79160000  1
  C  C122  1  0.18250000  0.52470000  0.68820000  1
  C  C123  1  0.18250000  0.97530000  0.18820000  1
  C  C124  1  0.18650000  0.11400000  0.97300000  1
  C  C125  1  0.18650000  0.38600000  0.47300000  1
  C  C126  1  0.18820000  0.18250000  0.97530000  1
  C  C127  1  0.18820000  0.31750000  0.47530000  1
  C  C128  1  0.20830000  0.61100000  0.03090000  1
  C  C129  1  0.20830000  0.88900000  0.53090000  1
  C  C130  1  0.20840000  0.68070000  0.02700000  1
  C  C131  1  0.20840000  0.81930000  0.52700000  1
  C  C132  1  0.22270000  0.05590000  0.34550000  1
  C  C133  1  0.22270000  0.44410000  0.84550000  1
  C  C134  1  0.22660000  0.55300000  0.63480000  1
  C  C135  1  0.22660000  0.94700000  0.13480000  1
  C  C136  1  0.23710000  0.07860000  0.00070000  1
  C  C137  1  0.23710000  0.42140000  0.50070000  1
  C  C138  1  0.26290000  0.57860000  0.00070000  1
  C  C139  1  0.26290000  0.92140000  0.50070000  1
  C  C140  1  0.27340000  0.05300000  0.63480000  1
  C  C141  1  0.27340000  0.44700000  0.13480000  1
  C  C142  1  0.27730000  0.55590000  0.34550000  1
  C  C143  1  0.27730000  0.94410000  0.84550000  1
  C  C144  1  0.29160000  0.18070000  0.02700000  1
  C  C145  1  0.29160000  0.31930000  0.52700000  1
  C  C146  1  0.29170000  0.11100000  0.03090000  1
  C  C147  1  0.29170000  0.38900000  0.53090000  1
  C  C148  1  0.31180000  0.68250000  0.97530000  1
  C  C149  1  0.31180000  0.81750000  0.47530000  1
  C  C150  1  0.31350000  0.61400000  0.97300000  1
  C  C151  1  0.31350000  0.88600000  0.47300000  1
  C  C152  1  0.31750000  0.02470000  0.68820000  1
  C  C153  1  0.31750000  0.47530000  0.18820000  1
  C  C154  1  0.31930000  0.52700000  0.29160000  1
  C  C155  1  0.31930000  0.97300000  0.79160000  1
  C  C156  1  0.34550000  0.22270000  0.05590000  1
  C  C157  1  0.34550000  0.27730000  0.55590000  1
  C  C158  1  0.36520000  0.72660000  0.94700000  1
  C  C159  1  0.36520000  0.77340000  0.44700000  1
  C  C160  1  0.38600000  0.02700000  0.68650000  1
  C  C161  1  0.38600000  0.47300000  0.18650000  1
  C  C162  1  0.38900000  0.53090000  0.29170000  1
  C  C163  1  0.38900000  0.96910000  0.79170000  1
  C  C164  1  0.42140000  0.50070000  0.23710000  1
  C  C165  1  0.42140000  0.99930000  0.73710000  1
  C  C166  1  0.44410000  0.65450000  0.72270000  1
  C  C167  1  0.44410000  0.84550000  0.22270000  1
  C  C168  1  0.44700000  0.13480000  0.27340000  1
  C  C169  1  0.44700000  0.36520000  0.77340000  1
  C  C170  1  0.46910000  0.70830000  0.61100000  1
  C  C171  1  0.46910000  0.79170000  0.11100000  1
  C  C172  1  0.47300000  0.18650000  0.38600000  1
  C  C173  1  0.47300000  0.31350000  0.88600000  1
  C  C174  1  0.47300000  0.70840000  0.68070000  1
  C  C175  1  0.47300000  0.79160000  0.18070000  1
  C  C176  1  0.47530000  0.18820000  0.31750000  1
  C  C177  1  0.47530000  0.31180000  0.81750000  1
  C  C178  1  0.49930000  0.73710000  0.07860000  1
  C  C179  1  0.49930000  0.76290000  0.57860000  1
  C  C180  1  0.50070000  0.23710000  0.42140000  1
  C  C181  1  0.50070000  0.26290000  0.92140000  1
  C  C182  1  0.52470000  0.68820000  0.18250000  1
  C  C183  1  0.52470000  0.81180000  0.68250000  1
  C  C184  1  0.52700000  0.20840000  0.81930000  1
  C  C185  1  0.52700000  0.29160000  0.31930000  1
  C  C186  1  0.52700000  0.68650000  0.11400000  1
  C  C187  1  0.52700000  0.81350000  0.61400000  1
  C  C188  1  0.53090000  0.20830000  0.88900000  1
  C  C189  1  0.53090000  0.29170000  0.38900000  1
  C  C190  1  0.55300000  0.63480000  0.22660000  1
  C  C191  1  0.55300000  0.86520000  0.72660000  1
  C  C192  1  0.55590000  0.15450000  0.77730000  1
  C  C193  1  0.55590000  0.34550000  0.27730000  1
  C  C194  1  0.57860000  0.00070000  0.26290000  1
  C  C195  1  0.57860000  0.49930000  0.76290000  1
  C  C196  1  0.61100000  0.03090000  0.20830000  1
  C  C197  1  0.61100000  0.46910000  0.70830000  1
  C  C198  1  0.61400000  0.52700000  0.81350000  1
  C  C199  1  0.61400000  0.97300000  0.31350000  1
  C  C200  1  0.63480000  0.22660000  0.55300000  1
  C  C201  1  0.63480000  0.27340000  0.05300000  1
  C  C202  1  0.65450000  0.72270000  0.44410000  1
  C  C203  1  0.65450000  0.77730000  0.94410000  1
  C  C204  1  0.68070000  0.02700000  0.20840000  1
  C  C205  1  0.68070000  0.47300000  0.70840000  1
  C  C206  1  0.68250000  0.52470000  0.81180000  1
  C  C207  1  0.68250000  0.97530000  0.31180000  1
  C  C208  1  0.68650000  0.11400000  0.52700000  1
  C  C209  1  0.68650000  0.38600000  0.02700000  1
  C  C210  1  0.68820000  0.18250000  0.52470000  1
  C  C211  1  0.68820000  0.31750000  0.02470000  1
  C  C212  1  0.70830000  0.61100000  0.46910000  1
  C  C213  1  0.70830000  0.88900000  0.96910000  1
  C  C214  1  0.70840000  0.68070000  0.47300000  1
  C  C215  1  0.70840000  0.81930000  0.97300000  1
  C  C216  1  0.72270000  0.05590000  0.15450000  1
  C  C217  1  0.72270000  0.44410000  0.65450000  1
  C  C218  1  0.72660000  0.55300000  0.86520000  1
  C  C219  1  0.72660000  0.94700000  0.36520000  1
  C  C220  1  0.73710000  0.07860000  0.49930000  1
  C  C221  1  0.73710000  0.42140000  0.99930000  1
  C  C222  1  0.76290000  0.57860000  0.49930000  1
  C  C223  1  0.76290000  0.92140000  0.99930000  1
  C  C224  1  0.77340000  0.05300000  0.86520000  1
  C  C225  1  0.77340000  0.44700000  0.36520000  1
  C  C226  1  0.77730000  0.55590000  0.15450000  1
  C  C227  1  0.77730000  0.94410000  0.65450000  1
  C  C228  1  0.79160000  0.18070000  0.47300000  1
  C  C229  1  0.79160000  0.31930000  0.97300000  1
  C  C230  1  0.79170000  0.11100000  0.46910000  1
  C  C231  1  0.79170000  0.38900000  0.96910000  1
  C  C232  1  0.81180000  0.68250000  0.52470000  1
  C  C233  1  0.81180000  0.81750000  0.02470000  1
  C  C234  1  0.81350000  0.61400000  0.52700000  1
  C  C235  1  0.81350000  0.88600000  0.02700000  1
  C  C236  1  0.81750000  0.02470000  0.81180000  1
  C  C237  1  0.81750000  0.47530000  0.31180000  1
  C  C238  1  0.81930000  0.52700000  0.20840000  1
  C  C239  1  0.81930000  0.97300000  0.70840000  1
  C  C240  1  0.84550000  0.22270000  0.44410000  1
  C  C241  1  0.84550000  0.27730000  0.94410000  1
  C  C242  1  0.86520000  0.72660000  0.55300000  1
  C  C243  1  0.86520000  0.77340000  0.05300000  1
  C  C244  1  0.88600000  0.02700000  0.81350000  1
  C  C245  1  0.88600000  0.47300000  0.31350000  1
  C  C246  1  0.88900000  0.53090000  0.20830000  1
  C  C247  1  0.88900000  0.96910000  0.70830000  1
  C  C248  1  0.92140000  0.50070000  0.26290000  1
  C  C249  1  0.92140000  0.99930000  0.76290000  1
  C  C250  1  0.94410000  0.65450000  0.77730000  1
  C  C251  1  0.94410000  0.84550000  0.27730000  1
  C  C252  1  0.94700000  0.13480000  0.22660000  1
  C  C253  1  0.94700000  0.36520000  0.72660000  1
  C  C254  1  0.96910000  0.70830000  0.88900000  1
  C  C255  1  0.96910000  0.79170000  0.38900000  1
  C  C256  1  0.97300000  0.18650000  0.11400000  1
  C  C257  1  0.97300000  0.31350000  0.61400000  1
  C  C258  1  0.97300000  0.70840000  0.81930000  1
  C  C259  1  0.97300000  0.79160000  0.31930000  1
  C  C260  1  0.97530000  0.18820000  0.18250000  1
  C  C261  1  0.97530000  0.31180000  0.68250000  1
  C  C262  1  0.99930000  0.73710000  0.42140000  1
  C  C263  1  0.99930000  0.76290000  0.92140000  1
  N  N264  1  0.00060000  0.24240000  0.21740000  1
  N  N265  1  0.00060000  0.25760000  0.71740000  1
  N  N266  1  0.21740000  0.00060000  0.24240000  1
  N  N267  1  0.21740000  0.49940000  0.74240000  1
  N  N268  1  0.24240000  0.21740000  0.00060000  1
  N  N269  1  0.24240000  0.28260000  0.50060000  1
  N  N270  1  0.25760000  0.71740000  0.00060000  1
  N  N271  1  0.25760000  0.78260000  0.50060000  1
  N  N272  1  0.28260000  0.50060000  0.24240000  1
  N  N273  1  0.28260000  0.99940000  0.74240000  1
  N  N274  1  0.49940000  0.74240000  0.21740000  1
  N  N275  1  0.49940000  0.75760000  0.71740000  1
  N  N276  1  0.50060000  0.24240000  0.28260000  1
  N  N277  1  0.50060000  0.25760000  0.78260000  1
  N  N278  1  0.71740000  0.00060000  0.25760000  1
  N  N279  1  0.71740000  0.49940000  0.75760000  1
  N  N280  1  0.74240000  0.21740000  0.49940000  1
  N  N281  1  0.74240000  0.28260000  0.99940000  1
  N  N282  1  0.75760000  0.71740000  0.49940000  1
  N  N283  1  0.75760000  0.78260000  0.99940000  1
  N  N284  1  0.78260000  0.50060000  0.25760000  1
  N  N285  1  0.78260000  0.99940000  0.75760000  1
  N  N286  1  0.99940000  0.74240000  0.28260000  1
  N  N287  1  0.99940000  0.75760000  0.78260000  1
  O  O288  1  0.04140000  0.15630000  0.78530000  1
  O  O289  1  0.04140000  0.34370000  0.28530000  1
  O  O290  1  0.04670000  0.64430000  0.20980000  1
  O  O291  1  0.04670000  0.85570000  0.70980000  1
  O  O292  1  0.08090000  0.58580000  0.29810000  1
  O  O293  1  0.08090000  0.91420000  0.79810000  1
  O  O294  1  0.08580000  0.20190000  0.91910000  1
  O  O295  1  0.08580000  0.29810000  0.41910000  1
  O  O296  1  0.09390000  0.11090000  0.69830000  1
  O  O297  1  0.09390000  0.38910000  0.19830000  1
  O  O298  1  0.11090000  0.69830000  0.09390000  1
  O  O299  1  0.11090000  0.80170000  0.59390000  1
  O  O300  1  0.14430000  0.20980000  0.45330000  1
  O  O301  1  0.14430000  0.29020000  0.95330000  1
  O  O302  1  0.15630000  0.71470000  0.54140000  1
  O  O303  1  0.15630000  0.78530000  0.04140000  1
  O  O304  1  0.19830000  0.09390000  0.38910000  1
  O  O305  1  0.19830000  0.40610000  0.88910000  1
  O  O306  1  0.20190000  0.58090000  0.58580000  1
  O  O307  1  0.20190000  0.91910000  0.08580000  1
  O  O308  1  0.20980000  0.04670000  0.64430000  1
  O  O309  1  0.20980000  0.45330000  0.14430000  1
  O  O310  1  0.21470000  0.54140000  0.34370000  1
  O  O311  1  0.21470000  0.95860000  0.84370000  1
  O  O312  1  0.28530000  0.04140000  0.34370000  1
  O  O313  1  0.28530000  0.45860000  0.84370000  1
  O  O314  1  0.29020000  0.54670000  0.64430000  1
  O  O315  1  0.29020000  0.95330000  0.14430000  1
  O  O316  1  0.29810000  0.08090000  0.58580000  1
  O  O317  1  0.29810000  0.41910000  0.08580000  1
  O  O318  1  0.30170000  0.59390000  0.38910000  1
  O  O319  1  0.30170000  0.90610000  0.88910000  1
  O  O320  1  0.34370000  0.21470000  0.54140000  1
  O  O321  1  0.34370000  0.28530000  0.04140000  1
  O  O322  1  0.35570000  0.70980000  0.45330000  1
  O  O323  1  0.35570000  0.79020000  0.95330000  1
  O  O324  1  0.38910000  0.19830000  0.09390000  1
  O  O325  1  0.38910000  0.30170000  0.59390000  1
  O  O326  1  0.40610000  0.61090000  0.69830000  1
  O  O327  1  0.40610000  0.88910000  0.19830000  1
  O  O328  1  0.41420000  0.70190000  0.91910000  1
  O  O329  1  0.41420000  0.79810000  0.41910000  1
  O  O330  1  0.41910000  0.08580000  0.29810000  1
  O  O331  1  0.41910000  0.41420000  0.79810000  1
  O  O332  1  0.45330000  0.14430000  0.20980000  1
  O  O333  1  0.45330000  0.35570000  0.70980000  1
  O  O334  1  0.45860000  0.65630000  0.78530000  1
  O  O335  1  0.45860000  0.84370000  0.28530000  1
  O  O336  1  0.54140000  0.15630000  0.71470000  1
  O  O337  1  0.54140000  0.34370000  0.21470000  1
  O  O338  1  0.54670000  0.64430000  0.29020000  1
  O  O339  1  0.54670000  0.85570000  0.79020000  1
  O  O340  1  0.58090000  0.58580000  0.20190000  1
  O  O341  1  0.58090000  0.91420000  0.70190000  1
  O  O342  1  0.58580000  0.20190000  0.58090000  1
  O  O343  1  0.58580000  0.29810000  0.08090000  1
  O  O344  1  0.59390000  0.11090000  0.80170000  1
  O  O345  1  0.59390000  0.38910000  0.30170000  1
  O  O346  1  0.61090000  0.69830000  0.40610000  1
  O  O347  1  0.61090000  0.80170000  0.90610000  1
  O  O348  1  0.64430000  0.20980000  0.04670000  1
  O  O349  1  0.64430000  0.29020000  0.54670000  1
  O  O350  1  0.65630000  0.71470000  0.95860000  1
  O  O351  1  0.65630000  0.78530000  0.45860000  1
  O  O352  1  0.69830000  0.09390000  0.11090000  1
  O  O353  1  0.69830000  0.40610000  0.61090000  1
  O  O354  1  0.70190000  0.58090000  0.91420000  1
  O  O355  1  0.70190000  0.91910000  0.41420000  1
  O  O356  1  0.70980000  0.04670000  0.85570000  1
  O  O357  1  0.70980000  0.45330000  0.35570000  1
  O  O358  1  0.71470000  0.54140000  0.15630000  1
  O  O359  1  0.71470000  0.95860000  0.65630000  1
  O  O360  1  0.78530000  0.04140000  0.15630000  1
  O  O361  1  0.78530000  0.45860000  0.65630000  1
  O  O362  1  0.79020000  0.54670000  0.85570000  1
  O  O363  1  0.79020000  0.95330000  0.35570000  1
  O  O364  1  0.79810000  0.08090000  0.91420000  1
  O  O365  1  0.79810000  0.41910000  0.41420000  1
  O  O366  1  0.80170000  0.59390000  0.11090000  1
  O  O367  1  0.80170000  0.90610000  0.61090000  1
  O  O368  1  0.84370000  0.21470000  0.95860000  1
  O  O369  1  0.84370000  0.28530000  0.45860000  1
  O  O370  1  0.85570000  0.70980000  0.04670000  1
  O  O371  1  0.85570000  0.79020000  0.54670000  1
  O  O372  1  0.88910000  0.19830000  0.40610000  1
  O  O373  1  0.88910000  0.30170000  0.90610000  1
  O  O374  1  0.90610000  0.61090000  0.80170000  1
  O  O375  1  0.90610000  0.88910000  0.30170000  1
  O  O376  1  0.91420000  0.70190000  0.58090000  1
  O  O377  1  0.91420000  0.79810000  0.08090000  1
  O  O378  1  0.91910000  0.08580000  0.20190000  1
  O  O379  1  0.91910000  0.41420000  0.70190000  1
  O  O380  1  0.95330000  0.14430000  0.29020000  1
  O  O381  1  0.95330000  0.35570000  0.79020000  1
  O  O382  1  0.95860000  0.65630000  0.71470000  1
  O  O383  1  0.95860000  0.84370000  0.21470000  1
