# generated using pymatgen
data_CoH5C5SNO4
_symmetry_space_group_name_H-M   'P 1'
_cell_length_a   5.29340000
_cell_length_b   12.36700000
_cell_length_c   12.36700000
_cell_angle_alpha   90.00000000
_cell_angle_beta   90.00000000
_cell_angle_gamma   90.00000000
_symmetry_Int_Tables_number   1
_chemical_formula_structural   CoH5C5SNO4
_chemical_formula_sum   'Co4 H20 C20 S4 N4 O16'
_cell_volume   809.58682995
_cell_formula_units_Z   4
loop_
 _symmetry_equiv_pos_site_id
 _symmetry_equiv_pos_as_xyz
  1  'x, y, z'
loop_
 _atom_site_type_symbol
 _atom_site_label
 _atom_site_symmetry_multiplicity
 _atom_site_fract_x
 _atom_site_fract_y
 _atom_site_fract_z
 _atom_site_occupancy
  Co  Co0  1  0.28730000  0.01520000  0.32120000  1
  Co  Co1  1  0.03730000  0.32120000  0.98480000  1
  Co  Co2  1  0.53730000  0.67880000  0.01520000  1
  Co  Co3  1  0.78730000  0.98480000  0.67880000  1
  H  H4  1  0.12000000  0.12270000  0.59980000  1
  H  H5  1  0.92340000  0.17090000  0.46060000  1
  H  H6  1  0.17510000  0.19910000  0.73390000  1
  H  H7  1  0.42510000  0.26610000  0.19910000  1
  H  H8  1  0.19010000  0.29030000  0.37170000  1
  H  H9  1  0.13240000  0.33960000  0.61770000  1
  H  H10  1  0.94010000  0.37170000  0.70970000  1
  H  H11  1  0.38240000  0.38230000  0.33960000  1
  H  H12  1  0.37000000  0.40020000  0.12270000  1
  H  H13  1  0.67340000  0.46060000  0.82910000  1
  H  H14  1  0.17340000  0.53940000  0.17090000  1
  H  H15  1  0.87000000  0.59980000  0.87730000  1
  H  H16  1  0.88240000  0.61770000  0.66040000  1
  H  H17  1  0.44010000  0.62830000  0.29030000  1
  H  H18  1  0.63240000  0.66040000  0.38230000  1
  H  H19  1  0.69010000  0.70970000  0.62830000  1
  H  H20  1  0.92510000  0.73390000  0.80090000  1
  H  H21  1  0.67510000  0.80090000  0.26610000  1
  H  H22  1  0.42340000  0.82910000  0.53940000  1
  H  H23  1  0.62000000  0.87730000  0.40020000  1
  C  C24  1  0.58440000  0.10440000  0.50340000  1
  C  C25  1  0.81890000  0.16890000  0.52600000  1
  C  C26  1  0.81090000  0.18660000  0.79330000  1
  C  C27  1  0.00490000  0.20650000  0.70370000  1
  C  C28  1  0.06090000  0.20670000  0.18660000  1
  C  C29  1  0.25490000  0.29630000  0.20650000  1
  C  C30  1  0.97820000  0.31850000  0.65440000  1
  C  C31  1  0.22820000  0.34560000  0.31850000  1
  C  C32  1  0.06890000  0.47400000  0.16890000  1
  C  C33  1  0.83440000  0.49660000  0.10440000  1
  C  C34  1  0.33440000  0.50340000  0.89560000  1
  C  C35  1  0.56890000  0.52600000  0.83110000  1
  C  C36  1  0.72820000  0.65440000  0.68150000  1
  C  C37  1  0.47820000  0.68150000  0.34560000  1
  C  C38  1  0.75490000  0.70370000  0.79350000  1
  C  C39  1  0.56090000  0.79330000  0.81340000  1
  C  C40  1  0.50490000  0.79350000  0.29630000  1
  C  C41  1  0.31090000  0.81340000  0.20670000  1
  C  C42  1  0.31890000  0.83110000  0.47400000  1
  C  C43  1  0.08440000  0.89560000  0.49660000  1
  S  S44  1  0.72320000  0.30695000  0.56086000  1
  S  S45  1  0.97320000  0.43914000  0.30695000  1
  S  S46  1  0.47320000  0.56086000  0.69305000  1
  S  S47  1  0.22320000  0.69305000  0.43914000  1
  N  N48  1  0.97180000  0.12640000  0.61700000  1
  N  N49  1  0.22180000  0.38300000  0.12640000  1
  N  N50  1  0.72180000  0.61700000  0.87360000  1
  N  N51  1  0.47180000  0.87360000  0.38300000  1
  O  O52  1  0.51880000  0.03220000  0.57030000  1
  O  O53  1  0.68400000  0.10020000  0.79290000  1
  O  O54  1  0.46660000  0.12770000  0.41950000  1
  O  O55  1  0.03620000  0.13220000  0.25710000  1
  O  O56  1  0.93400000  0.20710000  0.10020000  1
  O  O57  1  0.78620000  0.25710000  0.86780000  1
  O  O58  1  0.21660000  0.41950000  0.87230000  1
  O  O59  1  0.76880000  0.42970000  0.03220000  1
  O  O60  1  0.26880000  0.57030000  0.96780000  1
  O  O61  1  0.71660000  0.58050000  0.12770000  1
  O  O62  1  0.28620000  0.74290000  0.13220000  1
  O  O63  1  0.43400000  0.79290000  0.89980000  1
  O  O64  1  0.53620000  0.86780000  0.74290000  1
  O  O65  1  0.96660000  0.87230000  0.58050000  1
  O  O66  1  0.18400000  0.89980000  0.20710000  1
  O  O67  1  0.01880000  0.96780000  0.42970000  1
