# generated using pymatgen
data_AlPO4
_symmetry_space_group_name_H-M   'P 1'
_cell_length_a   10.02420000
_cell_length_b   14.37663465
_cell_length_c   14.37663465
_cell_angle_alpha   91.03649699
_cell_angle_beta   90.00000000
_cell_angle_gamma   90.00000000
_symmetry_Int_Tables_number   1
_chemical_formula_structural   AlPO4
_chemical_formula_sum   'Al16 P16 O64'
_cell_volume   2071.53906922
_cell_formula_units_Z   16
loop_
 _symmetry_equiv_pos_site_id
 _symmetry_equiv_pos_as_xyz
  1  'x, y, z'
loop_
 _atom_site_type_symbol
 _atom_site_label
 _atom_site_symmetry_multiplicity
 _atom_site_fract_x
 _atom_site_fract_y
 _atom_site_fract_z
 _atom_site_occupancy
  Al  Al0  1  0.59410000  0.86500000  0.99620000  1
  Al  Al1  1  0.90590000  0.49620000  0.36500000  1
  Al  Al2  1  0.40590000  0.36500000  0.49620000  1
  Al  Al3  1  0.09410000  0.99620000  0.86500000  1
  Al  Al4  1  0.88010000  0.63060000  0.97280000  1
  Al  Al5  1  0.61990000  0.47280000  0.13060000  1
  Al  Al6  1  0.11990000  0.13060000  0.47280000  1
  Al  Al7  1  0.38010000  0.97280000  0.63060000  1
  Al  Al8  1  0.38010000  0.52720000  0.86940000  1
  Al  Al9  1  0.11990000  0.36940000  0.02720000  1
  Al  Al10  1  0.61990000  0.02720000  0.36940000  1
  Al  Al11  1  0.88010000  0.86940000  0.52720000  1
  Al  Al12  1  0.09410000  0.50380000  0.63500000  1
  Al  Al13  1  0.40590000  0.13500000  0.00380000  1
  Al  Al14  1  0.90590000  0.00380000  0.13500000  1
  Al  Al15  1  0.59410000  0.63500000  0.50380000  1
  O  O16  1  0.94230000  0.89760000  0.06440000  1
  O  O17  1  0.55770000  0.56440000  0.39760000  1
  O  O18  1  0.05770000  0.39760000  0.56440000  1
  O  O19  1  0.44230000  0.06440000  0.89760000  1
  O  O20  1  0.76280000  0.87250000  0.94630000  1
  O  O21  1  0.73720000  0.44630000  0.37250000  1
  O  O22  1  0.23720000  0.37250000  0.44630000  1
  O  O23  1  0.26280000  0.94630000  0.87250000  1
  O  O24  1  0.49050000  0.89530000  0.89690000  1
  O  O25  1  0.00950000  0.39690000  0.39530000  1
  O  O26  1  0.50950000  0.39530000  0.39690000  1
  O  O27  1  0.99050000  0.89690000  0.89530000  1
  O  O28  1  0.56600000  0.74670000  0.03550000  1
  O  O29  1  0.93400000  0.53550000  0.24670000  1
  O  O30  1  0.43400000  0.24670000  0.53550000  1
  O  O31  1  0.06600000  0.03550000  0.74670000  1
  O  O32  1  0.93650000  0.75320000  0.96980000  1
  O  O33  1  0.56350000  0.46980000  0.25320000  1
  O  O34  1  0.06350000  0.25320000  0.46980000  1
  O  O35  1  0.43650000  0.96980000  0.75320000  1
  O  O36  1  0.94480000  0.58690000  0.08550000  1
  O  O37  1  0.55520000  0.58550000  0.08690000  1
  O  O38  1  0.05520000  0.08690000  0.58550000  1
  O  O39  1  0.44480000  0.08550000  0.58690000  1
  O  O40  1  0.69270000  0.62020000  0.95120000  1
  O  O41  1  0.80730000  0.45120000  0.12020000  1
  O  O42  1  0.30730000  0.12020000  0.45120000  1
  O  O43  1  0.19270000  0.95120000  0.62020000  1
  O  O44  1  0.44920000  0.62470000  0.93810000  1
  O  O45  1  0.05080000  0.43810000  0.12470000  1
  O  O46  1  0.55080000  0.12470000  0.43810000  1
  O  O47  1  0.94920000  0.93810000  0.62470000  1
  O  O48  1  0.94920000  0.56190000  0.87530000  1
  O  O49  1  0.55080000  0.37530000  0.06190000  1
  O  O50  1  0.05080000  0.06190000  0.37530000  1
  O  O51  1  0.44920000  0.87530000  0.56190000  1
  O  O52  1  0.19270000  0.54880000  0.87980000  1
  O  O53  1  0.30730000  0.37980000  0.04880000  1
  O  O54  1  0.80730000  0.04880000  0.37980000  1
  O  O55  1  0.69270000  0.87980000  0.54880000  1
  O  O56  1  0.44480000  0.41450000  0.91310000  1
  O  O57  1  0.05520000  0.41310000  0.91450000  1
  O  O58  1  0.55520000  0.91450000  0.41310000  1
  O  O59  1  0.94480000  0.91310000  0.41450000  1
  O  O60  1  0.43650000  0.53020000  0.74680000  1
  O  O61  1  0.06350000  0.24680000  0.03020000  1
  O  O62  1  0.56350000  0.03020000  0.24680000  1
  O  O63  1  0.93650000  0.74680000  0.53020000  1
  O  O64  1  0.06600000  0.46450000  0.75330000  1
  O  O65  1  0.43400000  0.25330000  0.96450000  1
  O  O66  1  0.93400000  0.96450000  0.25330000  1
  O  O67  1  0.56600000  0.75330000  0.46450000  1
  O  O68  1  0.99050000  0.60310000  0.60470000  1
  O  O69  1  0.50950000  0.10470000  0.10310000  1
  O  O70  1  0.00950000  0.10310000  0.10470000  1
  O  O71  1  0.49050000  0.60470000  0.60310000  1
  O  O72  1  0.26280000  0.55370000  0.62750000  1
  O  O73  1  0.23720000  0.12750000  0.05370000  1
  O  O74  1  0.73720000  0.05370000  0.12750000  1
  O  O75  1  0.76280000  0.62750000  0.55370000  1
  O  O76  1  0.44230000  0.43560000  0.60240000  1
  O  O77  1  0.05770000  0.10240000  0.93560000  1
  O  O78  1  0.55770000  0.93560000  0.10240000  1
  O  O79  1  0.94230000  0.60240000  0.43560000  1
  P  P80  1  0.90860000  0.85550000  0.97110000  1
  P  P81  1  0.59140000  0.47110000  0.35550000  1
  P  P82  1  0.09140000  0.35550000  0.47110000  1
  P  P83  1  0.40860000  0.97110000  0.85550000  1
  P  P84  1  0.56780000  0.64500000  0.00260000  1
  P  P85  1  0.93220000  0.50260000  0.14500000  1
  P  P86  1  0.43220000  0.14500000  0.50260000  1
  P  P87  1  0.06780000  0.00260000  0.64500000  1
  P  P88  1  0.06780000  0.49740000  0.85500000  1
  P  P89  1  0.43220000  0.35500000  0.99740000  1
  P  P90  1  0.93220000  0.99740000  0.35500000  1
  P  P91  1  0.56780000  0.85500000  0.49740000  1
  P  P92  1  0.40860000  0.52890000  0.64450000  1
  P  P93  1  0.09140000  0.14450000  0.02890000  1
  P  P94  1  0.59140000  0.02890000  0.14450000  1
  P  P95  1  0.90860000  0.64450000  0.52890000  1
