# generated using pymatgen
data_CoH2C6ClO4
_symmetry_space_group_name_H-M   'P 1'
_cell_length_a   18.84227440
_cell_length_b   18.84227440
_cell_length_c   18.84227440
_cell_angle_alpha   60.00000000
_cell_angle_beta   60.00000000
_cell_angle_gamma   60.00000000
_symmetry_Int_Tables_number   1
_chemical_formula_structural   CoH2C6ClO4
_chemical_formula_sum   'Co12 H24 C72 Cl12 O48'
_cell_volume   4730.25958551
_cell_formula_units_Z   12
loop_
 _symmetry_equiv_pos_site_id
 _symmetry_equiv_pos_as_xyz
  1  'x, y, z'
loop_
 _atom_site_type_symbol
 _atom_site_label
 _atom_site_symmetry_multiplicity
 _atom_site_fract_x
 _atom_site_fract_y
 _atom_site_fract_z
 _atom_site_occupancy
  C  C0  1  0.02620000  0.83580000  0.56900000  1
  C  C1  1  0.43100000  0.43100000  0.16420000  1
  C  C2  1  0.83580000  0.02620000  0.56900000  1
  C  C3  1  0.43100000  0.43100000  0.97380000  1
  C  C4  1  0.03010000  0.74130000  0.61430000  1
  C  C5  1  0.38570000  0.38570000  0.25870000  1
  C  C6  1  0.74130000  0.03010000  0.61430000  1
  C  C7  1  0.38570000  0.38570000  0.96990000  1
  C  C8  1  0.03160000  0.69840000  0.69840000  1
  C  C9  1  0.42840000  0.30160000  0.30160000  1
  C  C10  1  0.03160000  0.69840000  0.57160000  1
  C  C11  1  0.30160000  0.42840000  0.30160000  1
  C  C12  1  0.69840000  0.03160000  0.69840000  1
  C  C13  1  0.42840000  0.30160000  0.96840000  1
  C  C14  1  0.69840000  0.03160000  0.57160000  1
  C  C15  1  0.30160000  0.42840000  0.96840000  1
  C  C16  1  0.03010000  0.61430000  0.74130000  1
  C  C17  1  0.38570000  0.25870000  0.38570000  1
  C  C18  1  0.03010000  0.61430000  0.61430000  1
  C  C19  1  0.25870000  0.38570000  0.38570000  1
  C  C20  1  0.61430000  0.03010000  0.74130000  1
  C  C21  1  0.38570000  0.25870000  0.96990000  1
  C  C22  1  0.61430000  0.03010000  0.61430000  1
  C  C23  1  0.25870000  0.38570000  0.96990000  1
  C  C24  1  0.03160000  0.57160000  0.69840000  1
  C  C25  1  0.30160000  0.30160000  0.42840000  1
  C  C26  1  0.57160000  0.03160000  0.69840000  1
  C  C27  1  0.30160000  0.30160000  0.96840000  1
  C  C28  1  0.02620000  0.56900000  0.83580000  1
  C  C29  1  0.43100000  0.16420000  0.43100000  1
  C  C30  1  0.02620000  0.56900000  0.56900000  1
  C  C31  1  0.16420000  0.43100000  0.43100000  1
  C  C32  1  0.56900000  0.02620000  0.83580000  1
  C  C33  1  0.43100000  0.16420000  0.97380000  1
  C  C34  1  0.56900000  0.02620000  0.56900000  1
  C  C35  1  0.16420000  0.43100000  0.97380000  1
  C  C36  1  0.83580000  0.56900000  0.02620000  1
  C  C37  1  0.43100000  0.97380000  0.43100000  1
  C  C38  1  0.56900000  0.83580000  0.02620000  1
  C  C39  1  0.43100000  0.97380000  0.16420000  1
  C  C40  1  0.83580000  0.56900000  0.56900000  1
  C  C41  1  0.97380000  0.43100000  0.43100000  1
  C  C42  1  0.56900000  0.83580000  0.56900000  1
  C  C43  1  0.97380000  0.43100000  0.16420000  1
  C  C44  1  0.69840000  0.69840000  0.03160000  1
  C  C45  1  0.42840000  0.96840000  0.30160000  1
  C  C46  1  0.69840000  0.69840000  0.57160000  1
  C  C47  1  0.96840000  0.42840000  0.30160000  1
  C  C48  1  0.74130000  0.61430000  0.03010000  1
  C  C49  1  0.38570000  0.96990000  0.38570000  1
  C  C50  1  0.61430000  0.74130000  0.03010000  1
  C  C51  1  0.38570000  0.96990000  0.25870000  1
  C  C52  1  0.74130000  0.61430000  0.61430000  1
  C  C53  1  0.96990000  0.38570000  0.38570000  1
  C  C54  1  0.61430000  0.74130000  0.61430000  1
  C  C55  1  0.96990000  0.38570000  0.25870000  1
  C  C56  1  0.69840000  0.57160000  0.03160000  1
  C  C57  1  0.30160000  0.96840000  0.42840000  1
  C  C58  1  0.57160000  0.69840000  0.03160000  1
  C  C59  1  0.30160000  0.96840000  0.30160000  1
  C  C60  1  0.69840000  0.57160000  0.69840000  1
  C  C61  1  0.96840000  0.30160000  0.42840000  1
  C  C62  1  0.57160000  0.69840000  0.69840000  1
  C  C63  1  0.96840000  0.30160000  0.30160000  1
  C  C64  1  0.61430000  0.61430000  0.03010000  1
  C  C65  1  0.25870000  0.96990000  0.38570000  1
  C  C66  1  0.61430000  0.61430000  0.74130000  1
  C  C67  1  0.96990000  0.25870000  0.38570000  1
  C  C68  1  0.56900000  0.56900000  0.02620000  1
  C  C69  1  0.16420000  0.97380000  0.43100000  1
  C  C70  1  0.56900000  0.56900000  0.83580000  1
  C  C71  1  0.97380000  0.16420000  0.43100000  1
  Cl  Cl72  1  1.00000000  0.00000000  0.70080000  1
  Cl  Cl73  1  0.70080000  0.29920000  1.00000000  1
  Cl  Cl74  1  0.00000000  1.00000000  0.29920000  1
  Cl  Cl75  1  0.29920000  0.70080000  1.00000000  1
  Cl  Cl76  1  1.00000000  0.70080000  1.00000000  1
  Cl  Cl77  1  0.70080000  0.00000000  0.29920000  1
  Cl  Cl78  1  0.70080000  0.00000000  1.00000000  1
  Cl  Cl79  1  0.00000000  0.70080000  0.29920000  1
  Cl  Cl80  1  1.00000000  0.29920000  1.00000000  1
  Cl  Cl81  1  0.29920000  0.00000000  0.70080000  1
  Cl  Cl82  1  0.00000000  0.29920000  0.70080000  1
  Cl  Cl83  1  0.29920000  0.00000000  1.00000000  1
  Co  Co84  1  0.00000000  1.00000000  0.57952000  1
  Co  Co85  1  0.57952000  0.42048000  1.00000000  1
  Co  Co86  1  0.00000000  1.00000000  0.42048000  1
  Co  Co87  1  0.42048000  0.57952000  1.00000000  1
  Co  Co88  1  0.00000000  0.57952000  1.00000000  1
  Co  Co89  1  0.57952000  0.00000000  0.42048000  1
  Co  Co90  1  0.57952000  0.00000000  1.00000000  1
  Co  Co91  1  0.00000000  0.57952000  0.42048000  1
  Co  Co92  1  1.00000000  0.42048000  1.00000000  1
  Co  Co93  1  0.42048000  0.00000000  0.57952000  1
  Co  Co94  1  0.00000000  0.42048000  0.57952000  1
  Co  Co95  1  0.42048000  0.00000000  1.00000000  1
  H  H96  1  0.03330000  0.72630000  0.72630000  1
  H  H97  1  0.48590000  0.27370000  0.27370000  1
  H  H98  1  0.03330000  0.72630000  0.51410000  1
  H  H99  1  0.27370000  0.48590000  0.27370000  1
  H  H100  1  0.72630000  0.03330000  0.72630000  1
  H  H101  1  0.48590000  0.27370000  0.96670000  1
  H  H102  1  0.72630000  0.03330000  0.51410000  1
  H  H103  1  0.27370000  0.48590000  0.96670000  1
  H  H104  1  0.03330000  0.51410000  0.72630000  1
  H  H105  1  0.27370000  0.27370000  0.48590000  1
  H  H106  1  0.51410000  0.03330000  0.72630000  1
  H  H107  1  0.27370000  0.27370000  0.96670000  1
  H  H108  1  0.72630000  0.72630000  0.03330000  1
  H  H109  1  0.48590000  0.96670000  0.27370000  1
  H  H110  1  0.72630000  0.72630000  0.51410000  1
  H  H111  1  0.96670000  0.48590000  0.27370000  1
  H  H112  1  0.72630000  0.51410000  0.03330000  1
  H  H113  1  0.27370000  0.96670000  0.48590000  1
  H  H114  1  0.51410000  0.72630000  0.03330000  1
  H  H115  1  0.27370000  0.96670000  0.27370000  1
  H  H116  1  0.72630000  0.51410000  0.72630000  1
  H  H117  1  0.96670000  0.27370000  0.48590000  1
  H  H118  1  0.51410000  0.72630000  0.72630000  1
  H  H119  1  0.96670000  0.27370000  0.27370000  1
  O  O120  1  0.02130000  0.87250000  0.61270000  1
  O  O121  1  0.50650000  0.38730000  0.12750000  1
  O  O122  1  0.02130000  0.87250000  0.49350000  1
  O  O123  1  0.38730000  0.50650000  0.12750000  1
  O  O124  1  0.87250000  0.02130000  0.61270000  1
  O  O125  1  0.50650000  0.38730000  0.97870000  1
  O  O126  1  0.87250000  0.02130000  0.49350000  1
  O  O127  1  0.38730000  0.50650000  0.97870000  1
  O  O128  1  0.02130000  0.61270000  0.87250000  1
  O  O129  1  0.50650000  0.12750000  0.38730000  1
  O  O130  1  0.02130000  0.61270000  0.49350000  1
  O  O131  1  0.12750000  0.50650000  0.38730000  1
  O  O132  1  0.61270000  0.02130000  0.87250000  1
  O  O133  1  0.50650000  0.12750000  0.97870000  1
  O  O134  1  0.61270000  0.02130000  0.49350000  1
  O  O135  1  0.12750000  0.50650000  0.97870000  1
  O  O136  1  0.02130000  0.49350000  0.87250000  1
  O  O137  1  0.38730000  0.12750000  0.50650000  1
  O  O138  1  0.02130000  0.49350000  0.61270000  1
  O  O139  1  0.12750000  0.38730000  0.50650000  1
  O  O140  1  0.49350000  0.02130000  0.87250000  1
  O  O141  1  0.38730000  0.12750000  0.97870000  1
  O  O142  1  0.49350000  0.02130000  0.61270000  1
  O  O143  1  0.12750000  0.38730000  0.97870000  1
  O  O144  1  0.87250000  0.61270000  0.02130000  1
  O  O145  1  0.50650000  0.97870000  0.38730000  1
  O  O146  1  0.61270000  0.87250000  0.02130000  1
  O  O147  1  0.50650000  0.97870000  0.12750000  1
  O  O148  1  0.87250000  0.61270000  0.49350000  1
  O  O149  1  0.97870000  0.50650000  0.38730000  1
  O  O150  1  0.61270000  0.87250000  0.49350000  1
  O  O151  1  0.97870000  0.50650000  0.12750000  1
  O  O152  1  0.87250000  0.49350000  0.02130000  1
  O  O153  1  0.38730000  0.97870000  0.50650000  1
  O  O154  1  0.49350000  0.87250000  0.02130000  1
  O  O155  1  0.38730000  0.97870000  0.12750000  1
  O  O156  1  0.87250000  0.49350000  0.61270000  1
  O  O157  1  0.97870000  0.38730000  0.50650000  1
  O  O158  1  0.49350000  0.87250000  0.61270000  1
  O  O159  1  0.97870000  0.38730000  0.12750000  1
  O  O160  1  0.61270000  0.49350000  0.02130000  1
  O  O161  1  0.12750000  0.97870000  0.50650000  1
  O  O162  1  0.49350000  0.61270000  0.02130000  1
  O  O163  1  0.12750000  0.97870000  0.38730000  1
  O  O164  1  0.61270000  0.49350000  0.87250000  1
  O  O165  1  0.97870000  0.12750000  0.50650000  1
  O  O166  1  0.49350000  0.61270000  0.87250000  1
  O  O167  1  0.97870000  0.12750000  0.38730000  1
