# generated using pymatgen
data_CuH3(CO2)3
_symmetry_space_group_name_H-M   'P 1'
_cell_length_a   7.31790000
_cell_length_b   7.31790000
_cell_length_c   24.41900000
_cell_angle_alpha   90.00000000
_cell_angle_beta   90.00000000
_cell_angle_gamma   120.00000000
_symmetry_Int_Tables_number   1
_chemical_formula_structural   CuH3(CO2)3
_chemical_formula_sum   'Cu6 H18 C18 O36'
_cell_volume   1132.48236412
_cell_formula_units_Z   6
loop_
 _symmetry_equiv_pos_site_id
 _symmetry_equiv_pos_as_xyz
  1  'x, y, z'
loop_
 _atom_site_type_symbol
 _atom_site_label
 _atom_site_symmetry_multiplicity
 _atom_site_fract_x
 _atom_site_fract_y
 _atom_site_fract_z
 _atom_site_occupancy
  Cu  Cu0  1  0.68240000  0.31760000  0.25000000  1
  Cu  Cu1  1  0.68240000  0.36480000  0.58333000  1
  Cu  Cu2  1  0.63520000  0.31760000  0.91667000  1
  Cu  Cu3  1  0.36480000  0.68240000  0.41667000  1
  Cu  Cu4  1  0.31760000  0.63520000  0.08333000  1
  Cu  Cu5  1  0.31760000  0.68240000  0.75000000  1
  H  H6  1  0.00000000  0.39990000  0.16667000  1
  H  H7  1  0.00000000  0.60010000  0.66666667  1
  H  H8  1  0.96660000  0.44150000  0.83043000  1
  H  H9  1  0.96660000  0.52510000  0.00290000  1
  H  H10  1  0.60010000  0.60010000  0.50000000  1
  H  H11  1  0.60010000  0.00000000  0.33333333  1
  H  H12  1  0.55850000  0.03340000  0.66957000  1
  H  H13  1  0.55850000  0.52510000  0.16377000  1
  H  H14  1  0.52510000  0.55850000  0.83623000  1
  H  H15  1  0.52510000  0.96660000  0.99710000  1
  H  H16  1  0.47490000  0.03340000  0.49710000  1
  H  H17  1  0.47490000  0.44150000  0.33623000  1
  H  H18  1  0.44150000  0.47490000  0.66377000  1
  H  H19  1  0.44150000  0.96660000  0.16957000  1
  H  H20  1  0.39990000  0.39990000  1.00000000  1
  H  H21  1  0.39990000  1.00000000  0.83333000  1
  H  H22  1  0.03340000  0.47490000  0.50290000  1
  H  H23  1  0.03340000  0.55850000  0.33043000  1
  C  C24  1  0.00000000  0.47300000  0.66666667  1
  C  C25  1  0.00000000  0.52700000  0.16667000  1
  C  C26  1  0.96720000  0.39850000  0.00110000  1
  C  C27  1  0.96720000  0.56870000  0.83223000  1
  C  C28  1  0.60150000  0.03280000  0.49890000  1
  C  C29  1  0.60150000  0.56870000  0.33443000  1
  C  C30  1  0.56870000  0.60150000  0.66557000  1
  C  C31  1  0.56870000  0.96720000  0.16777000  1
  C  C32  1  0.52700000  0.52700000  0.00000000  1
  C  C33  1  0.52700000  1.00000000  0.83333000  1
  C  C34  1  0.47300000  0.47300000  0.50000000  1
  C  C35  1  0.47300000  1.00000000  0.33333333  1
  C  C36  1  0.43130000  0.03280000  0.66777000  1
  C  C37  1  0.43130000  0.39850000  0.16557000  1
  C  C38  1  0.39850000  0.43130000  0.83443000  1
  C  C39  1  0.39850000  0.96720000  0.99890000  1
  C  C40  1  0.03280000  0.43130000  0.33223000  1
  C  C41  1  0.03280000  0.60150000  0.50110000  1
  O  O42  1  0.92200000  0.29750000  0.29833000  1
  O  O43  1  0.92200000  0.62450000  0.53500000  1
  O  O44  1  0.88760000  0.33840000  0.63215000  1
  O  O45  1  0.88760000  0.54920000  0.20118000  1
  O  O46  1  0.85950000  0.27780000  0.96600000  1
  O  O47  1  0.85950000  0.58170000  0.86733000  1
  O  O48  1  0.72220000  0.14050000  0.53400000  1
  O  O49  1  0.72220000  0.58170000  0.29933000  1
  O  O50  1  0.70250000  0.07800000  0.20167000  1
  O  O51  1  0.70250000  0.62450000  0.63167000  1
  O  O52  1  0.66160000  0.11240000  0.86785000  1
  O  O53  1  0.66160000  0.54920000  0.96548000  1
  O  O54  1  0.62450000  0.70250000  0.36833000  1
  O  O55  1  0.62450000  0.92200000  0.46500000  1
  O  O56  1  0.58170000  0.72220000  0.70067000  1
  O  O57  1  0.58170000  0.85950000  0.13267000  1
  O  O58  1  0.54920000  0.66160000  0.03452000  1
  O  O59  1  0.54920000  0.88760000  0.79882000  1
  O  O60  1  0.45080000  0.11240000  0.29882000  1
  O  O61  1  0.45080000  0.33840000  0.53452000  1
  O  O62  1  0.41830000  0.14050000  0.63267000  1
  O  O63  1  0.41830000  0.27780000  0.20067000  1
  O  O64  1  0.37550000  0.07800000  0.96500000  1
  O  O65  1  0.37550000  0.29750000  0.86833000  1
  O  O66  1  0.33840000  0.45080000  0.46548000  1
  O  O67  1  0.33840000  0.88760000  0.36785000  1
  O  O68  1  0.29750000  0.37550000  0.13167000  1
  O  O69  1  0.29750000  0.92200000  0.70167000  1
  O  O70  1  0.27780000  0.41830000  0.79933000  1
  O  O71  1  0.27780000  0.85950000  0.03400000  1
  O  O72  1  0.14050000  0.41830000  0.36733000  1
  O  O73  1  0.14050000  0.72220000  0.46600000  1
  O  O74  1  0.11240000  0.45080000  0.70118000  1
  O  O75  1  0.11240000  0.66160000  0.13215000  1
  O  O76  1  0.07800000  0.37550000  0.03500000  1
  O  O77  1  0.07800000  0.70250000  0.79833000  1
