# generated using pymatgen
data_CoH21C33N9O4
_symmetry_space_group_name_H-M   'P 1'
_cell_length_a   11.00200000
_cell_length_b   16.99570000
_cell_length_c   22.15470000
_cell_angle_alpha   90.00000000
_cell_angle_beta   90.00000000
_cell_angle_gamma   100.69700000
_symmetry_Int_Tables_number   1
_chemical_formula_structural   CoH21C33N9O4
_chemical_formula_sum   'Co4 H84 C132 N36 O16'
_cell_volume   4070.64549781
_cell_formula_units_Z   4
loop_
 _symmetry_equiv_pos_site_id
 _symmetry_equiv_pos_as_xyz
  1  'x, y, z'
loop_
 _atom_site_type_symbol
 _atom_site_label
 _atom_site_symmetry_multiplicity
 _atom_site_fract_x
 _atom_site_fract_y
 _atom_site_fract_z
 _atom_site_occupancy
  Co  Co0  1  0.85564000  0.46941000  0.44260000  1
  Co  Co1  1  0.85564000  0.96941000  0.05740000  1
  Co  Co2  1  0.14436000  0.03059000  0.94260000  1
  Co  Co3  1  0.14436000  0.53059000  0.55740000  1
  H  H4  1  0.94060000  0.85050000  0.82780000  1
  H  H5  1  0.94060000  0.35050000  0.67220000  1
  H  H6  1  0.91860000  0.69990000  0.98440000  1
  H  H7  1  0.91860000  0.19990000  0.51560000  1
  H  H8  1  0.91350000  0.09550000  0.89030000  1
  H  H9  1  0.91350000  0.59550000  0.60970000  1
  H  H10  1  0.84630000  0.64010000  0.38870000  1
  H  H11  1  0.84630000  0.14010000  0.11130000  1
  H  H12  1  0.82660000  0.80790000  0.99930000  1
  H  H13  1  0.82660000  0.30790000  0.50070000  1
  H  H14  1  0.81660000  0.20290000  0.89970000  1
  H  H15  1  0.81660000  0.70290000  0.60030000  1
  H  H16  1  0.81240000  0.76820000  0.76320000  1
  H  H17  1  0.81240000  0.26820000  0.73680000  1
  H  H18  1  0.74420000  0.32060000  0.90550000  1
  H  H19  1  0.74420000  0.82060000  0.59450000  1
  H  H20  1  0.73610000  0.74150000  0.39900000  1
  H  H21  1  0.73610000  0.24150000  0.10100000  1
  H  H22  1  0.70350000  0.55910000  0.98620000  1
  H  H23  1  0.70350000  0.05910000  0.51380000  1
  H  H24  1  0.70210000  0.38060000  0.25360000  1
  H  H25  1  0.70210000  0.88060000  0.24640000  1
  H  H26  1  0.67140000  0.26440000  0.82020000  1
  H  H27  1  0.67140000  0.76440000  0.67980000  1
  H  H28  1  0.64530000  0.01350000  0.98910000  1
  H  H29  1  0.64530000  0.51350000  0.51090000  1
  H  H30  1  0.64380000  0.89980000  0.91360000  1
  H  H31  1  0.64380000  0.39980000  0.58640000  1
  H  H32  1  0.61720000  0.83640000  0.41310000  1
  H  H33  1  0.61720000  0.33640000  0.08690000  1
  H  H34  1  0.59000000  0.95010000  0.38150000  1
  H  H35  1  0.59000000  0.45010000  0.11850000  1
  H  H36  1  0.57830000  0.37020000  0.88420000  1
  H  H37  1  0.57830000  0.87020000  0.61580000  1
  H  H38  1  0.56800000  0.80840000  0.31370000  1
  H  H39  1  0.56800000  0.30840000  0.18630000  1
  H  H40  1  0.53600000  0.19110000  0.88840000  1
  H  H41  1  0.53600000  0.69110000  0.61160000  1
  H  H42  1  0.52360000  0.10890000  0.97690000  1
  H  H43  1  0.52360000  0.60890000  0.52310000  1
  H  H44  1  0.51840000  0.82100000  0.84600000  1
  H  H45  1  0.51840000  0.32100000  0.65400000  1
  H  H46  1  0.48160000  0.67900000  0.34600000  1
  H  H47  1  0.48160000  0.17900000  0.15400000  1
  H  H48  1  0.47640000  0.39110000  0.47690000  1
  H  H49  1  0.47640000  0.89110000  0.02310000  1
  H  H50  1  0.46400000  0.30890000  0.38840000  1
  H  H51  1  0.46400000  0.80890000  0.11160000  1
  H  H52  1  0.43200000  0.69160000  0.81370000  1
  H  H53  1  0.43200000  0.19160000  0.68630000  1
  H  H54  1  0.42170000  0.12980000  0.38420000  1
  H  H55  1  0.42170000  0.62980000  0.11580000  1
  H  H56  1  0.41000000  0.54990000  0.88150000  1
  H  H57  1  0.41000000  0.04990000  0.61850000  1
  H  H58  1  0.38280000  0.66360000  0.91310000  1
  H  H59  1  0.38280000  0.16360000  0.58690000  1
  H  H60  1  0.35620000  0.60020000  0.41360000  1
  H  H61  1  0.35620000  0.10020000  0.08640000  1
  H  H62  1  0.35470000  0.48650000  0.48910000  1
  H  H63  1  0.35470000  0.98650000  0.01090000  1
  H  H64  1  0.32860000  0.23560000  0.32020000  1
  H  H65  1  0.32860000  0.73560000  0.17980000  1
  H  H66  1  0.29790000  0.11940000  0.75360000  1
  H  H67  1  0.29790000  0.61940000  0.74640000  1
  H  H68  1  0.29650000  0.94090000  0.48620000  1
  H  H69  1  0.29650000  0.44090000  0.01380000  1
  H  H70  1  0.26390000  0.75850000  0.89900000  1
  H  H71  1  0.26390000  0.25850000  0.60100000  1
  H  H72  1  0.25580000  0.17940000  0.40550000  1
  H  H73  1  0.25580000  0.67940000  0.09450000  1
  H  H74  1  0.18760000  0.73180000  0.26320000  1
  H  H75  1  0.18760000  0.23180000  0.23680000  1
  H  H76  1  0.18340000  0.29710000  0.39970000  1
  H  H77  1  0.18340000  0.79710000  0.10030000  1
  H  H78  1  0.17340000  0.69210000  0.49930000  1
  H  H79  1  0.17340000  0.19210000  0.00070000  1
  H  H80  1  0.15370000  0.85990000  0.88870000  1
  H  H81  1  0.15370000  0.35990000  0.61130000  1
  H  H82  1  0.08650000  0.40450000  0.39030000  1
  H  H83  1  0.08650000  0.90450000  0.10970000  1
  H  H84  1  0.08140000  0.80010000  0.48440000  1
  H  H85  1  0.08140000  0.30010000  0.01560000  1
  H  H86  1  0.05940000  0.64950000  0.32780000  1
  H  H87  1  0.05940000  0.14950000  0.17220000  1
  C  C88  1  0.95430000  0.24060000  0.48951000  1
  C  C89  1  0.95430000  0.74060000  0.01049000  1
  C  C90  1  0.94810000  0.13740000  0.91558000  1
  C  C91  1  0.94810000  0.63740000  0.58442000  1
  C  C92  1  0.93760000  0.26420000  0.95934000  1
  C  C93  1  0.93760000  0.76420000  0.54066000  1
  C  C94  1  0.90030000  0.30610000  0.48058000  1
  C  C95  1  0.90030000  0.80610000  0.01942000  1
  C  C96  1  0.88870000  0.20150000  0.92122000  1
  C  C97  1  0.88870000  0.70150000  0.57878000  1
  C  C98  1  0.88770000  0.93670000  0.92139000  1
  C  C99  1  0.88770000  0.43670000  0.57861000  1
  C  C100  1  0.87590000  0.33380000  0.96744000  1
  C  C101  1  0.87590000  0.83380000  0.53256000  1
  C  C102  1  0.85530000  0.84430000  0.83220000  1
  C  C103  1  0.85530000  0.34430000  0.66780000  1
  C  C104  1  0.80670000  0.88380000  0.87774000  1
  C  C105  1  0.80670000  0.38380000  0.62226000  1
  C  C106  1  0.78130000  0.63400000  0.41616000  1
  C  C107  1  0.78130000  0.13400000  0.08384000  1
  C  C108  1  0.77810000  0.79560000  0.79311000  1
  C  C109  1  0.77810000  0.29560000  0.70689000  1
  C  C110  1  0.75650000  0.41570000  0.95780000  1
  C  C111  1  0.75650000  0.91570000  0.54220000  1
  C  C112  1  0.71490000  0.69510000  0.42188000  1
  C  C113  1  0.71490000  0.19510000  0.07812000  1
  C  C114  1  0.69080000  0.39330000  0.37251000  1
  C  C115  1  0.69080000  0.89330000  0.12749000  1
  C  C116  1  0.67870000  0.87410000  0.88290000  1
  C  C117  1  0.67870000  0.37410000  0.61710000  1
  C  C118  1  0.66240000  0.55970000  0.48761000  1
  C  C119  1  0.66240000  0.05970000  0.01239000  1
  C  C120  1  0.65980000  0.45770000  0.93770000  1
  C  C121  1  0.65980000  0.95770000  0.56230000  1
  C  C122  1  0.65030000  0.78640000  0.79737000  1
  C  C123  1  0.65030000  0.28640000  0.70263000  1
  C  C124  1  0.64840000  0.53280000  0.95770000  1
  C  C125  1  0.64840000  0.03280000  0.54230000  1
  C  C126  1  0.62770000  0.35090000  0.26741000  1
  C  C127  1  0.62770000  0.85090000  0.23259000  1
  C  C128  1  0.61650000  0.68690000  0.46190000  1
  C  C129  1  0.61650000  0.18690000  0.03810000  1
  C  C130  1  0.60380000  0.82620000  0.84240000  1
  C  C131  1  0.60380000  0.32620000  0.65760000  1
  C  C132  1  0.60010000  0.35080000  0.32887000  1
  C  C133  1  0.60010000  0.85080000  0.17113000  1
  C  C134  1  0.59600000  0.23570000  0.80676000  1
  C  C135  1  0.59600000  0.73570000  0.69324000  1
  C  C136  1  0.58900000  0.61700000  0.49586000  1
  C  C137  1  0.58900000  0.11700000  0.00414000  1
  C  C138  1  0.57210000  0.42130000  0.89720000  1
  C  C139  1  0.57210000  0.92130000  0.60280000  1
  C  C140  1  0.56600000  0.73670000  0.75358000  1
  C  C141  1  0.56600000  0.23670000  0.74642000  1
  C  C142  1  0.55550000  0.56880000  0.93570000  1
  C  C143  1  0.55550000  0.06880000  0.56430000  1
  C  C144  1  0.54720000  0.80790000  0.27296000  1
  C  C145  1  0.54720000  0.30790000  0.22704000  1
  C  C146  1  0.54170000  0.74950000  0.46702000  1
  C  C147  1  0.54170000  0.24950000  0.03298000  1
  C  C148  1  0.53600000  0.64770000  0.95624000  1
  C  C149  1  0.53600000  0.14770000  0.54376000  1
  C  C150  1  0.52590000  0.97390000  0.39560000  1
  C  C151  1  0.52590000  0.47390000  0.10440000  1
  C  C152  1  0.51410000  0.19190000  0.84783000  1
  C  C153  1  0.51410000  0.69190000  0.65217000  1
  C  C154  1  0.48590000  0.30810000  0.34783000  1
  C  C155  1  0.48590000  0.80810000  0.15217000  1
  C  C156  1  0.47410000  0.52610000  0.89560000  1
  C  C157  1  0.47410000  0.02610000  0.60440000  1
  C  C158  1  0.46400000  0.85230000  0.45624000  1
  C  C159  1  0.46400000  0.35230000  0.04376000  1
  C  C160  1  0.45830000  0.75050000  0.96702000  1
  C  C161  1  0.45830000  0.25050000  0.53298000  1
  C  C162  1  0.45280000  0.69210000  0.77296000  1
  C  C163  1  0.45280000  0.19210000  0.72704000  1
  C  C164  1  0.44450000  0.93120000  0.43570000  1
  C  C165  1  0.44450000  0.43120000  0.06430000  1
  C  C166  1  0.43400000  0.76330000  0.25358000  1
  C  C167  1  0.43400000  0.26330000  0.24642000  1
  C  C168  1  0.42790000  0.07870000  0.39720000  1
  C  C169  1  0.42790000  0.57870000  0.10280000  1
  C  C170  1  0.41100000  0.88300000  0.99586000  1
  C  C171  1  0.41100000  0.38300000  0.50414000  1
  C  C172  1  0.40400000  0.26430000  0.30676000  1
  C  C173  1  0.40400000  0.76430000  0.19324000  1
  C  C174  1  0.39990000  0.14920000  0.82887000  1
  C  C175  1  0.39990000  0.64920000  0.67113000  1
  C  C176  1  0.39620000  0.67380000  0.34240000  1
  C  C177  1  0.39620000  0.17380000  0.15760000  1
  C  C178  1  0.38350000  0.81310000  0.96190000  1
  C  C179  1  0.38350000  0.31310000  0.53810000  1
  C  C180  1  0.37230000  0.14910000  0.76741000  1
  C  C181  1  0.37230000  0.64910000  0.73259000  1
  C  C182  1  0.35160000  0.96720000  0.45770000  1
  C  C183  1  0.35160000  0.46720000  0.04230000  1
  C  C184  1  0.34970000  0.71360000  0.29737000  1
  C  C185  1  0.34970000  0.21360000  0.20263000  1
  C  C186  1  0.34020000  0.04230000  0.43770000  1
  C  C187  1  0.34020000  0.54230000  0.06230000  1
  C  C188  1  0.33760000  0.94030000  0.98761000  1
  C  C189  1  0.33760000  0.44030000  0.51239000  1
  C  C190  1  0.32130000  0.62590000  0.38290000  1
  C  C191  1  0.32130000  0.12590000  0.11710000  1
  C  C192  1  0.30920000  0.10670000  0.87251000  1
  C  C193  1  0.30920000  0.60670000  0.62749000  1
  C  C194  1  0.28510000  0.80490000  0.92188000  1
  C  C195  1  0.28510000  0.30490000  0.57812000  1
  C  C196  1  0.24350000  0.08430000  0.45780000  1
  C  C197  1  0.24350000  0.58430000  0.04220000  1
  C  C198  1  0.22190000  0.70440000  0.29311000  1
  C  C199  1  0.22190000  0.20440000  0.20689000  1
  C  C200  1  0.21870000  0.86600000  0.91616000  1
  C  C201  1  0.21870000  0.36600000  0.58384000  1
  C  C202  1  0.19330000  0.61620000  0.37774000  1
  C  C203  1  0.19330000  0.11620000  0.12226000  1
  C  C204  1  0.14470000  0.65570000  0.33220000  1
  C  C205  1  0.14470000  0.15570000  0.16780000  1
  C  C206  1  0.12410000  0.16620000  0.46744000  1
  C  C207  1  0.12410000  0.66620000  0.03256000  1
  C  C208  1  0.11230000  0.56330000  0.42139000  1
  C  C209  1  0.11230000  0.06330000  0.07861000  1
  C  C210  1  0.11130000  0.29850000  0.42122000  1
  C  C211  1  0.11130000  0.79850000  0.07878000  1
  C  C212  1  0.09970000  0.19390000  0.98058000  1
  C  C213  1  0.09970000  0.69390000  0.51942000  1
  C  C214  1  0.06240000  0.23580000  0.45934000  1
  C  C215  1  0.06240000  0.73580000  0.04066000  1
  C  C216  1  0.05190000  0.36260000  0.41558000  1
  C  C217  1  0.05190000  0.86260000  0.08442000  1
  C  C218  1  0.04570000  0.25940000  0.98951000  1
  C  C219  1  0.04570000  0.75940000  0.51049000  1
  N  N220  1  0.94710000  0.36778000  0.44464000  1
  N  N221  1  0.94710000  0.86778000  0.05536000  1
  N  N222  1  0.91320000  0.88730000  0.48914000  1
  N  N223  1  0.91320000  0.38730000  0.01086000  1
  N  N224  1  0.83450000  0.93990000  0.49663000  1
  N  N225  1  0.83450000  0.43990000  0.00337000  1
  N  N226  1  0.78110000  0.34844000  0.93486000  1
  N  N227  1  0.78110000  0.84844000  0.56514000  1
  N  N228  1  0.75580000  0.56659000  0.44846000  1
  N  N229  1  0.75580000  0.06659000  0.05154000  1
  N  N230  1  0.61180000  0.69130000  0.99557000  1
  N  N231  1  0.61180000  0.19130000  0.50443000  1
  N  N232  1  0.56030000  0.25744000  0.49748000  1
  N  N233  1  0.56030000  0.75744000  0.00252000  1
  N  N234  1  0.55890000  0.81782000  0.43799000  1
  N  N235  1  0.55890000  0.31782000  0.06201000  1
  N  N236  1  0.52010000  0.04750000  0.37530000  1
  N  N237  1  0.52010000  0.54750000  0.12470000  1
  N  N238  1  0.47990000  0.45250000  0.87530000  1
  N  N239  1  0.47990000  0.95250000  0.62470000  1
  N  N240  1  0.44110000  0.68218000  0.93799000  1
  N  N241  1  0.44110000  0.18218000  0.56201000  1
  N  N242  1  0.43970000  0.24256000  0.99748000  1
  N  N243  1  0.43970000  0.74256000  0.50252000  1
  N  N244  1  0.38820000  0.80870000  0.49557000  1
  N  N245  1  0.38820000  0.30870000  0.00443000  1
  N  N246  1  0.24420000  0.93341000  0.94846000  1
  N  N247  1  0.24420000  0.43341000  0.55154000  1
  N  N248  1  0.21890000  0.15156000  0.43486000  1
  N  N249  1  0.21890000  0.65156000  0.06514000  1
  N  N250  1  0.16550000  0.56010000  0.99663000  1
  N  N251  1  0.16550000  0.06010000  0.50337000  1
  N  N252  1  0.08680000  0.61270000  0.98914000  1
  N  N253  1  0.08680000  0.11270000  0.51086000  1
  N  N254  1  0.05290000  0.13222000  0.94464000  1
  N  N255  1  0.05290000  0.63222000  0.55536000  1
  O  O256  1  0.99928000  0.54754000  0.40910000  1
  O  O257  1  0.99928000  0.04754000  0.09090000  1
  O  O258  1  0.83740000  0.96079000  0.96685000  1
  O  O259  1  0.83740000  0.46079000  0.53315000  1
  O  O260  1  0.78600000  0.43983000  0.35308000  1
  O  O261  1  0.78600000  0.93983000  0.14692000  1
  O  O262  1  0.67360000  0.38424000  0.42857000  1
  O  O263  1  0.67360000  0.88424000  0.07143000  1
  O  O264  1  0.32640000  0.11576000  0.92857000  1
  O  O265  1  0.32640000  0.61576000  0.57143000  1
  O  O266  1  0.21400000  0.06017000  0.85308000  1
  O  O267  1  0.21400000  0.56017000  0.64692000  1
  O  O268  1  0.16260000  0.53921000  0.46685000  1
  O  O269  1  0.16260000  0.03921000  0.03315000  1
  O  O270  1  0.00072000  0.95246000  0.90910000  1
  O  O271  1  0.00072000  0.45246000  0.59090000  1
