# generated using pymatgen
data_Zr3C24(N3O4)4
_symmetry_space_group_name_H-M   'P 1'
_cell_length_a   14.69509313
_cell_length_b   14.69509313
_cell_length_c   14.69509313
_cell_angle_alpha   60.00000000
_cell_angle_beta   60.00000000
_cell_angle_gamma   60.00000000
_symmetry_Int_Tables_number   1
_chemical_formula_structural   Zr3C24(N3O4)4
_chemical_formula_sum   'Zr6 C48 N24 O32'
_cell_volume   2243.89241294
_cell_formula_units_Z   2
loop_
 _symmetry_equiv_pos_site_id
 _symmetry_equiv_pos_as_xyz
  1  'x, y, z'
loop_
 _atom_site_type_symbol
 _atom_site_label
 _atom_site_symmetry_multiplicity
 _atom_site_fract_x
 _atom_site_fract_y
 _atom_site_fract_z
 _atom_site_occupancy
  C  C0  1  1.00000000  0.00000000  0.69280000  1
  C  C1  1  0.69280000  0.30720000  1.00000000  1
  C  C2  1  0.08310000  0.91690000  0.54810000  1
  C  C3  1  0.54810000  0.45190000  0.08310000  1
  C  C4  1  1.00000000  0.00000000  0.59000000  1
  C  C5  1  0.59000000  0.41000000  1.00000000  1
  C  C6  1  0.08310000  0.91690000  0.45190000  1
  C  C7  1  0.45190000  0.54810000  0.08310000  1
  C  C8  1  0.91690000  0.08310000  0.54810000  1
  C  C9  1  0.54810000  0.45190000  0.91690000  1
  C  C10  1  0.00000000  1.00000000  0.41000000  1
  C  C11  1  0.41000000  0.59000000  1.00000000  1
  C  C12  1  0.91690000  0.08310000  0.45190000  1
  C  C13  1  0.45190000  0.54810000  0.91690000  1
  C  C14  1  1.00000000  0.00000000  0.30720000  1
  C  C15  1  0.30720000  0.69280000  1.00000000  1
  C  C16  1  1.00000000  0.69280000  0.00000000  1
  C  C17  1  0.69280000  1.00000000  0.30720000  1
  C  C18  1  0.69280000  1.00000000  1.00000000  1
  C  C19  1  0.00000000  0.69280000  0.30720000  1
  C  C20  1  0.08310000  0.54810000  0.91690000  1
  C  C21  1  0.54810000  0.08310000  0.45190000  1
  C  C22  1  0.08310000  0.54810000  0.45190000  1
  C  C23  1  0.54810000  0.08310000  0.91690000  1
  C  C24  1  1.00000000  0.59000000  0.00000000  1
  C  C25  1  0.59000000  0.00000000  0.41000000  1
  C  C26  1  0.59000000  1.00000000  1.00000000  1
  C  C27  1  1.00000000  0.59000000  0.41000000  1
  C  C28  1  0.08310000  0.45190000  0.91690000  1
  C  C29  1  0.45190000  0.08310000  0.54810000  1
  C  C30  1  0.08310000  0.45190000  0.54810000  1
  C  C31  1  0.45190000  0.08310000  0.91690000  1
  C  C32  1  0.91690000  0.54810000  0.08310000  1
  C  C33  1  0.54810000  0.91690000  0.45190000  1
  C  C34  1  0.54810000  0.91690000  0.08310000  1
  C  C35  1  0.91690000  0.54810000  0.45190000  1
  C  C36  1  1.00000000  0.41000000  0.00000000  1
  C  C37  1  0.41000000  1.00000000  0.59000000  1
  C  C38  1  0.00000000  0.41000000  0.59000000  1
  C  C39  1  0.41000000  0.00000000  0.00000000  1
  C  C40  1  0.91690000  0.45190000  0.08310000  1
  C  C41  1  0.45190000  0.91690000  0.54810000  1
  C  C42  1  0.45190000  0.91690000  0.08310000  1
  C  C43  1  0.91690000  0.45190000  0.54810000  1
  C  C44  1  1.00000000  0.30720000  1.00000000  1
  C  C45  1  0.30720000  0.00000000  0.69280000  1
  C  C46  1  0.00000000  0.30720000  0.69280000  1
  C  C47  1  0.30720000  0.00000000  1.00000000  1
  N  N48  1  0.16257000  0.83743000  0.59401000  1
  N  N49  1  0.59401000  0.40599000  0.16257000  1
  N  N50  1  0.16257000  0.83743000  0.40599000  1
  N  N51  1  0.40599000  0.59401000  0.16257000  1
  N  N52  1  0.83743000  0.16257000  0.59401000  1
  N  N53  1  0.59401000  0.40599000  0.83743000  1
  N  N54  1  0.83743000  0.16257000  0.40599000  1
  N  N55  1  0.40599000  0.59401000  0.83743000  1
  N  N56  1  0.16257000  0.59401000  0.83743000  1
  N  N57  1  0.59401000  0.16257000  0.40599000  1
  N  N58  1  0.16257000  0.59401000  0.40599000  1
  N  N59  1  0.59401000  0.16257000  0.83743000  1
  N  N60  1  0.16257000  0.40599000  0.83743000  1
  N  N61  1  0.40599000  0.16257000  0.59401000  1
  N  N62  1  0.16257000  0.40599000  0.59401000  1
  N  N63  1  0.40599000  0.16257000  0.83743000  1
  N  N64  1  0.83743000  0.59401000  0.16257000  1
  N  N65  1  0.59401000  0.83743000  0.40599000  1
  N  N66  1  0.59401000  0.83743000  0.16257000  1
  N  N67  1  0.83743000  0.59401000  0.40599000  1
  N  N68  1  0.83743000  0.40599000  0.16257000  1
  N  N69  1  0.40599000  0.83743000  0.59401000  1
  N  N70  1  0.40599000  0.83743000  0.16257000  1
  N  N71  1  0.83743000  0.40599000  0.59401000  1
  O  O72  1  0.09570000  0.90430000  0.73470000  1
  O  O73  1  0.73470000  0.26530000  0.09570000  1
  O  O74  1  0.90430000  0.09570000  0.73470000  1
  O  O75  1  0.73470000  0.26530000  0.90430000  1
  O  O76  1  0.09570000  0.90430000  0.26530000  1
  O  O77  1  0.26530000  0.73470000  0.09570000  1
  O  O78  1  0.90430000  0.09570000  0.26530000  1
  O  O79  1  0.26530000  0.73470000  0.90430000  1
  O  O80  1  0.93720000  0.93720000  0.93720000  1
  O  O81  1  0.81160000  0.06280000  0.06280000  1
  O  O82  1  0.93720000  0.93720000  0.18840000  1
  O  O83  1  0.06280000  0.81160000  0.06280000  1
  O  O84  1  0.09570000  0.73470000  0.90430000  1
  O  O85  1  0.73470000  0.09570000  0.26530000  1
  O  O86  1  0.73470000  0.09570000  0.90430000  1
  O  O87  1  0.09570000  0.73470000  0.26530000  1
  O  O88  1  0.90430000  0.73470000  0.09570000  1
  O  O89  1  0.73470000  0.90430000  0.26530000  1
  O  O90  1  0.73470000  0.90430000  0.09570000  1
  O  O91  1  0.90430000  0.73470000  0.26530000  1
  O  O92  1  0.09570000  0.26530000  0.90430000  1
  O  O93  1  0.26530000  0.09570000  0.73470000  1
  O  O94  1  0.09570000  0.26530000  0.73470000  1
  O  O95  1  0.26530000  0.09570000  0.90430000  1
  O  O96  1  0.90430000  0.26530000  0.09570000  1
  O  O97  1  0.26530000  0.90430000  0.73470000  1
  O  O98  1  0.90430000  0.26530000  0.73470000  1
  O  O99  1  0.26530000  0.90430000  0.09570000  1
  O  O100  1  0.93720000  0.18840000  0.93720000  1
  O  O101  1  0.06280000  0.06280000  0.81160000  1
  O  O102  1  0.18840000  0.93720000  0.93720000  1
  O  O103  1  0.06280000  0.06280000  0.06280000  1
  Zr  Zr104  1  0.12048000  0.87952000  0.87952000  1
  Zr  Zr105  1  0.87952000  0.12048000  0.12048000  1
  Zr  Zr106  1  0.87952000  0.12048000  0.87952000  1
  Zr  Zr107  1  0.12048000  0.87952000  0.12048000  1
  Zr  Zr108  1  0.87952000  0.87952000  0.12048000  1
  Zr  Zr109  1  0.12048000  0.12048000  0.87952000  1
