# generated using pymatgen
data_CoH28(C5N2)4
_symmetry_space_group_name_H-M   'P 1'
_cell_length_a   18.96671593
_cell_length_b   18.96671593
_cell_length_c   18.96671593
_cell_angle_alpha   107.92235807
_cell_angle_beta   107.92235807
_cell_angle_gamma   112.61544315
_symmetry_Int_Tables_number   1
_chemical_formula_structural   CoH28(C5N2)4
_chemical_formula_sum   'Co4 H112 C80 N32'
_cell_volume   5240.42708442
_cell_formula_units_Z   4
loop_
 _symmetry_equiv_pos_site_id
 _symmetry_equiv_pos_as_xyz
  1  'x, y, z'
loop_
 _atom_site_type_symbol
 _atom_site_label
 _atom_site_symmetry_multiplicity
 _atom_site_fract_x
 _atom_site_fract_y
 _atom_site_fract_z
 _atom_site_occupancy
  C  C0  1  0.33020000  0.15100000  0.87060000  1
  C  C1  1  0.71960000  0.04040000  0.37060000  1
  C  C2  1  0.16480000  0.02980000  0.96380000  1
  C  C3  1  0.93400000  0.29900000  0.46380000  1
  C  C4  1  0.12780000  0.93550000  0.90870000  1
  C  C5  1  0.97320000  0.28090000  0.40870000  1
  C  C6  1  0.25070000  0.17470000  0.03500000  1
  C  C7  1  0.86030000  0.28430000  0.53500000  1
  C  C8  1  0.81020000  0.25760000  0.57840000  1
  C  C9  1  0.32080000  0.26820000  0.07840000  1
  C  C10  1  0.24720000  0.09910000  0.98950000  1
  C  C11  1  0.89040000  0.24230000  0.48950000  1
  C  C12  1  0.35230000  0.11480000  0.92790000  1
  C  C13  1  0.81310000  0.07560000  0.42790000  1
  C  C14  1  0.07560000  0.64770000  0.76250000  1
  C  C15  1  0.11480000  0.18690000  0.26250000  1
  C  C16  1  0.04040000  0.66980000  0.82080000  1
  C  C17  1  0.15100000  0.28040000  0.32080000  1
  C  C18  1  0.31830000  0.09260000  0.97710000  1
  C  C19  1  0.88450000  0.15880000  0.47710000  1
  C  C20  1  0.15140000  0.63630000  0.69530000  1
  C  C21  1  0.05900000  0.04390000  0.19530000  1
  C  C22  1  0.28090000  0.87220000  0.80770000  1
  C  C23  1  0.93550000  0.02680000  0.30770000  1
  C  C24  1  0.22410000  0.64950000  0.67580000  1
  C  C25  1  0.02630000  0.95170000  0.17580000  1
  C  C26  1  0.15880000  0.68170000  0.77430000  1
  C  C27  1  0.09260000  0.11550000  0.27430000  1
  C  C28  1  0.36370000  0.05900000  0.01510000  1
  C  C29  1  0.95610000  0.15140000  0.51510000  1
  C  C30  1  0.29900000  0.83520000  0.86500000  1
  C  C31  1  0.02980000  0.06600000  0.36500000  1
  C  C32  1  0.24230000  0.75280000  0.85190000  1
  C  C33  1  0.09910000  0.10960000  0.35190000  1
  C  C34  1  0.35050000  0.02630000  0.07460000  1
  C  C35  1  0.04830000  0.22410000  0.57460000  1
  C  C36  1  0.28430000  0.74930000  0.92400000  1
  C  C37  1  0.17470000  0.13970000  0.42400000  1
  C  C38  1  0.74240000  0.32080000  0.05260000  1
  C  C39  1  0.73180000  0.81020000  0.55260000  1
  C  C40  1  0.25760000  0.67920000  0.94740000  1
  C  C41  1  0.26820000  0.18980000  0.44740000  1
  C  C42  1  0.71570000  0.25070000  0.07600000  1
  C  C43  1  0.82530000  0.86030000  0.57600000  1
  C  C44  1  0.64950000  0.97370000  0.92540000  1
  C  C45  1  0.95170000  0.77590000  0.42540000  1
  C  C46  1  0.75770000  0.24720000  0.14810000  1
  C  C47  1  0.90090000  0.89040000  0.64810000  1
  C  C48  1  0.70100000  0.16480000  0.13500000  1
  C  C49  1  0.97020000  0.93400000  0.63500000  1
  C  C50  1  0.63630000  0.94100000  0.98490000  1
  C  C51  1  0.04390000  0.84860000  0.48490000  1
  C  C52  1  0.84120000  0.31830000  0.22570000  1
  C  C53  1  0.90740000  0.88450000  0.72570000  1
  C  C54  1  0.77590000  0.35050000  0.32420000  1
  C  C55  1  0.97370000  0.04830000  0.82420000  1
  C  C56  1  0.71910000  0.12780000  0.19230000  1
  C  C57  1  0.06450000  0.97320000  0.69230000  1
  C  C58  1  0.84860000  0.36370000  0.30470000  1
  C  C59  1  0.94100000  0.95610000  0.80470000  1
  C  C60  1  0.68170000  0.90740000  0.02290000  1
  C  C61  1  0.11550000  0.84120000  0.52290000  1
  C  C62  1  0.95960000  0.33020000  0.17920000  1
  C  C63  1  0.84900000  0.71960000  0.67920000  1
  C  C64  1  0.92440000  0.35230000  0.23750000  1
  C  C65  1  0.88520000  0.81310000  0.73750000  1
  C  C66  1  0.64770000  0.88520000  0.07210000  1
  C  C67  1  0.18690000  0.92440000  0.57210000  1
  C  C68  1  0.75280000  0.90090000  0.01050000  1
  C  C69  1  0.10960000  0.75770000  0.51050000  1
  C  C70  1  0.18980000  0.74240000  0.42160000  1
  C  C71  1  0.67920000  0.73180000  0.92160000  1
  C  C72  1  0.74930000  0.82530000  0.96500000  1
  C  C73  1  0.13970000  0.71570000  0.46500000  1
  C  C74  1  0.87220000  0.06450000  0.09130000  1
  C  C75  1  0.02680000  0.71910000  0.59130000  1
  C  C76  1  0.83520000  0.97020000  0.03620000  1
  C  C77  1  0.06600000  0.70100000  0.53620000  1
  C  C78  1  0.66980000  0.84900000  0.12940000  1
  C  C79  1  0.28040000  0.95960000  0.62940000  1
  Co  Co80  1  0.00000000  0.00000000  0.00000000  1
  Co  Co81  1  0.00000000  0.50000000  0.50000000  1
  Co  Co82  1  0.50000000  1.00000000  1.00000000  1
  Co  Co83  1  0.00000000  0.00000000  0.50000000  1
  H  H84  1  0.28550000  0.94260000  0.67250000  1
  H  H85  1  0.72990000  0.88700000  0.17250000  1
  H  H86  1  0.87710000  0.40050000  0.55420000  1
  H  H87  1  0.15370000  0.17710000  0.05420000  1
  H  H88  1  0.34040000  0.20700000  0.90420000  1
  H  H89  1  0.69720000  0.06380000  0.40420000  1
  H  H90  1  0.36680000  0.15780000  0.84460000  1
  H  H91  1  0.68680000  0.97780000  0.34460000  1
  H  H92  1  0.12530000  0.92630000  0.85520000  1
  H  H93  1  0.92890000  0.22990000  0.35520000  1
  H  H94  1  0.07020000  0.90120000  0.90000000  1
  H  H95  1  0.99880000  0.32980000  0.40000000  1
  H  H96  1  0.97150000  0.55220000  0.65210000  1
  H  H97  1  0.09990000  0.18060000  0.15210000  1
  H  H98  1  0.33600000  0.28300000  0.03900000  1
  H  H99  1  0.75600000  0.20300000  0.53900000  1
  H  H100  1  0.79880000  0.30160000  0.60260000  1
  H  H101  1  0.30100000  0.30380000  0.10260000  1
  H  H102  1  0.97780000  0.63320000  0.79100000  1
  H  H103  1  0.15780000  0.31320000  0.29100000  1
  H  H104  1  0.22990000  0.87470000  0.80100000  1
  H  H105  1  0.92630000  0.07110000  0.30100000  1
  H  H106  1  0.05740000  0.72990000  0.84290000  1
  H  H107  1  0.11300000  0.28550000  0.34290000  1
  H  H108  1  0.16480000  0.91840000  0.93600000  1
  H  H109  1  0.01760000  0.27120000  0.43600000  1
  H  H110  1  0.27120000  0.83520000  0.75360000  1
  H  H111  1  0.91840000  0.98240000  0.25360000  1
  H  H112  1  0.20020000  0.60890000  0.61750000  1
  H  H113  1  0.00860000  0.91730000  0.11750000  1
  H  H114  1  0.84450000  0.25150000  0.62260000  1
  H  H115  1  0.37110000  0.27810000  0.12260000  1
  H  H116  1  0.32980000  0.92980000  0.83100000  1
  H  H117  1  0.90120000  0.00120000  0.33100000  1
  H  H118  1  0.25470000  0.70800000  0.68530000  1
  H  H119  1  0.97730000  0.93060000  0.18530000  1
  H  H120  1  0.44780000  0.09990000  0.91930000  1
  H  H121  1  0.81940000  0.97150000  0.41930000  1
  H  H122  1  0.06380000  0.65960000  0.86660000  1
  H  H123  1  0.20700000  0.30280000  0.36660000  1
  H  H124  1  0.26370000  0.63980000  0.71130000  1
  H  H125  1  0.07150000  0.94760000  0.21130000  1
  H  H126  1  0.29200000  0.97730000  0.04670000  1
  H  H127  1  0.06940000  0.25470000  0.54670000  1
  H  H128  1  0.69840000  0.30100000  0.99720000  1
  H  H129  1  0.69620000  0.79880000  0.49720000  1
  H  H130  1  0.36020000  0.07150000  0.12390000  1
  H  H131  1  0.05240000  0.26370000  0.62390000  1
  H  H132  1  0.59950000  0.15370000  0.97660000  1
  H  H133  1  0.82290000  0.87710000  0.47660000  1
  H  H134  1  0.74850000  0.37110000  0.09300000  1
  H  H135  1  0.72190000  0.84450000  0.59300000  1
  H  H136  1  0.39110000  0.00860000  0.09130000  1
  H  H137  1  0.08270000  0.20020000  0.59130000  1
  H  H138  1  0.20300000  0.66400000  0.94700000  1
  H  H139  1  0.28300000  0.24400000  0.44700000  1
  H  H140  1  0.79700000  0.33600000  0.05300000  1
  H  H141  1  0.71700000  0.75600000  0.55300000  1
  H  H142  1  0.60890000  0.99140000  0.90870000  1
  H  H143  1  0.91730000  0.79980000  0.40870000  1
  H  H144  1  0.25150000  0.62890000  0.90700000  1
  H  H145  1  0.27810000  0.15550000  0.40700000  1
  H  H146  1  0.40050000  0.84630000  0.02340000  1
  H  H147  1  0.17710000  0.12290000  0.52340000  1
  H  H148  1  0.63980000  0.92850000  0.87610000  1
  H  H149  1  0.94760000  0.73630000  0.37610000  1
  H  H150  1  0.30160000  0.69900000  0.00280000  1
  H  H151  1  0.30380000  0.20120000  0.50280000  1
  H  H152  1  0.70800000  0.02270000  0.95330000  1
  H  H153  1  0.93060000  0.74530000  0.45330000  1
  H  H154  1  0.73630000  0.36020000  0.28870000  1
  H  H155  1  0.92850000  0.05240000  0.78870000  1
  H  H156  1  0.93620000  0.34040000  0.13340000  1
  H  H157  1  0.79300000  0.69720000  0.63340000  1
  H  H158  1  0.55220000  0.90010000  0.08070000  1
  H  H159  1  0.18060000  0.02850000  0.58070000  1
  H  H160  1  0.74530000  0.29200000  0.31470000  1
  H  H161  1  0.02270000  0.06940000  0.81470000  1
  H  H162  1  0.67020000  0.07020000  0.16900000  1
  H  H163  1  0.09880000  0.99880000  0.66900000  1
  H  H164  1  0.15550000  0.74850000  0.37740000  1
  H  H165  1  0.62890000  0.72190000  0.87740000  1
  H  H166  1  0.79980000  0.39110000  0.38250000  1
  H  H167  1  0.99140000  0.08270000  0.88250000  1
  H  H168  1  0.72880000  0.16480000  0.24640000  1
  H  H169  1  0.08160000  0.01760000  0.74640000  1
  H  H170  1  0.83520000  0.08160000  0.06400000  1
  H  H171  1  0.98240000  0.72880000  0.56400000  1
  H  H172  1  0.94260000  0.27010000  0.15710000  1
  H  H173  1  0.88700000  0.71450000  0.65710000  1
  H  H174  1  0.77010000  0.12530000  0.19900000  1
  H  H175  1  0.07370000  0.92890000  0.69900000  1
  H  H176  1  0.02220000  0.36680000  0.20900000  1
  H  H177  1  0.84220000  0.68680000  0.70900000  1
  H  H178  1  0.20120000  0.69840000  0.39740000  1
  H  H179  1  0.69900000  0.69620000  0.89740000  1
  H  H180  1  0.66400000  0.71700000  0.96100000  1
  H  H181  1  0.24400000  0.79700000  0.46100000  1
  H  H182  1  0.02850000  0.44780000  0.34790000  1
  H  H183  1  0.90010000  0.81940000  0.84790000  1
  H  H184  1  0.92980000  0.09880000  0.10000000  1
  H  H185  1  0.00120000  0.67020000  0.60000000  1
  H  H186  1  0.87470000  0.07370000  0.14480000  1
  H  H187  1  0.07110000  0.77010000  0.64480000  1
  H  H188  1  0.63320000  0.84220000  0.15540000  1
  H  H189  1  0.31320000  0.02220000  0.65540000  1
  H  H190  1  0.65960000  0.79300000  0.09580000  1
  H  H191  1  0.30280000  0.93620000  0.59580000  1
  H  H192  1  0.12290000  0.59950000  0.44580000  1
  H  H193  1  0.84630000  0.82290000  0.94580000  1
  H  H194  1  0.71450000  0.05740000  0.32750000  1
  H  H195  1  0.27010000  0.11300000  0.82750000  1
  N  N196  1  0.12007000  0.05972000  0.99279000  1
  N  N197  1  0.93307000  0.37272000  0.49279000  1
  N  N198  1  0.88730000  0.36130000  0.53540000  1
  N  N199  1  0.17410000  0.14810000  0.03540000  1
  N  N200  1  0.02250000  0.58410000  0.68100000  1
  N  N201  1  0.09690000  0.15850000  0.18100000  1
  N  N202  1  0.06701000  0.57562000  0.63823000  1
  N  N203  1  0.06261000  0.07122000  0.13823000  1
  N  N204  1  0.41590000  0.09690000  0.93840000  1
  N  N205  1  0.84150000  0.02250000  0.43840000  1
  N  N206  1  0.42438000  0.06261000  0.99139000  1
  N  N207  1  0.92878000  0.06701000  0.49139000  1
  N  N208  1  0.37272000  0.87993000  0.93965000  1
  N  N209  1  0.05972000  0.06693000  0.43965000  1
  N  N210  1  0.63870000  0.17410000  0.02600000  1
  N  N211  1  0.85190000  0.88730000  0.52600000  1
  N  N212  1  0.36130000  0.82590000  0.97400000  1
  N  N213  1  0.14810000  0.11270000  0.47400000  1
  N  N214  1  0.62728000  0.12007000  0.06035000  1
  N  N215  1  0.94028000  0.93307000  0.56035000  1
  N  N216  1  0.57562000  0.93739000  0.00861000  1
  N  N217  1  0.07122000  0.93299000  0.50861000  1
  N  N218  1  0.58410000  0.90310000  0.06160000  1
  N  N219  1  0.15850000  0.97750000  0.56160000  1
  N  N220  1  0.93299000  0.42438000  0.36177000  1
  N  N221  1  0.93739000  0.92878000  0.86177000  1
  N  N222  1  0.97750000  0.41590000  0.31900000  1
  N  N223  1  0.90310000  0.84150000  0.81900000  1
  N  N224  1  0.11270000  0.63870000  0.46460000  1
  N  N225  1  0.82590000  0.85190000  0.96460000  1
  N  N226  1  0.87993000  0.94028000  0.00721000  1
  N  N227  1  0.06693000  0.62728000  0.50721000  1
