# generated using pymatgen
data_CaCdH6C16O9
_symmetry_space_group_name_H-M   'P 1'
_cell_length_a   10.95630000
_cell_length_b   12.00470000
_cell_length_c   21.07670000
_cell_angle_alpha   106.38900000
_cell_angle_beta   90.00000000
_cell_angle_gamma   90.00000000
_symmetry_Int_Tables_number   1
_chemical_formula_structural   CaCdH6C16O9
_chemical_formula_sum   'Ca4 Cd4 H24 C64 O36'
_cell_volume   2659.51927763
_cell_formula_units_Z   4
loop_
 _symmetry_equiv_pos_site_id
 _symmetry_equiv_pos_as_xyz
  1  'x, y, z'
loop_
 _atom_site_type_symbol
 _atom_site_label
 _atom_site_symmetry_multiplicity
 _atom_site_fract_x
 _atom_site_fract_y
 _atom_site_fract_z
 _atom_site_occupancy
  Ca  Ca0  1  0.94545000  0.85622000  0.37272000  1
  Ca  Ca1  1  0.44545000  0.64378000  0.12728000  1
  Ca  Ca2  1  0.55455000  0.35622000  0.87272000  1
  Ca  Ca3  1  0.05455000  0.14378000  0.62728000  1
  Cd  Cd4  1  0.18064000  0.86395000  0.53971000  1
  Cd  Cd5  1  0.68064000  0.63605000  0.96029000  1
  Cd  Cd6  1  0.31936000  0.36395000  0.03971000  1
  Cd  Cd7  1  0.81936000  0.13605000  0.46029000  1
  H  H8  1  0.33990000  0.97660000  0.92070000  1
  H  H9  1  0.52980000  0.89030000  0.53330000  1
  H  H10  1  0.69950000  0.84890000  0.21460000  1
  H  H11  1  0.11420000  0.81030000  0.84970000  1
  H  H12  1  0.31700000  0.80270000  0.72860000  1
  H  H13  1  0.47060000  0.76570000  0.59390000  1
  H  H14  1  0.97060000  0.73430000  0.90610000  1
  H  H15  1  0.81700000  0.69730000  0.77140000  1
  H  H16  1  0.61420000  0.68970000  0.65030000  1
  H  H17  1  0.19950000  0.65110000  0.28540000  1
  H  H18  1  0.02980000  0.60970000  0.96670000  1
  H  H19  1  0.83990000  0.52340000  0.57930000  1
  H  H20  1  0.16010000  0.47660000  0.42070000  1
  H  H21  1  0.97020000  0.39030000  0.03330000  1
  H  H22  1  0.80050000  0.34890000  0.71460000  1
  H  H23  1  0.38580000  0.31030000  0.34970000  1
  H  H24  1  0.18300000  0.30270000  0.22860000  1
  H  H25  1  0.02940000  0.26570000  0.09390000  1
  H  H26  1  0.52940000  0.23430000  0.40610000  1
  H  H27  1  0.68300000  0.19730000  0.27140000  1
  H  H28  1  0.88580000  0.18970000  0.15030000  1
  H  H29  1  0.30050000  0.15110000  0.78540000  1
  H  H30  1  0.47020000  0.10970000  0.46670000  1
  H  H31  1  0.66010000  0.02340000  0.07930000  1
  C  C32  1  0.29970000  0.97730000  0.74616000  1
  C  C33  1  0.33290000  0.97690000  0.87680000  1
  C  C34  1  0.26240000  0.97170000  0.67640000  1
  C  C35  1  0.74700000  0.95960000  0.50840000  1
  C  C36  1  0.69320000  0.91880000  0.20410000  1
  C  C37  1  0.67690000  0.91820000  0.13906000  1
  C  C38  1  0.71110000  0.88160000  0.54930000  1
  C  C39  1  0.33220000  0.87420000  0.82720000  1
  C  C40  1  0.31650000  0.87270000  0.76180000  1
  C  C41  1  0.93200000  0.86280000  0.57950000  1
  C  C42  1  0.58810000  0.85740000  0.55460000  1
  C  C43  1  0.79860000  0.83630000  0.58290000  1
  C  C44  1  0.67410000  0.80780000  0.08300000  1
  C  C45  1  0.55260000  0.78410000  0.59170000  1
  C  C46  1  0.76040000  0.76560000  0.62130000  1
  C  C47  1  0.13830000  0.76160000  0.87470000  1
  C  C48  1  0.63830000  0.73840000  0.62530000  1
  C  C49  1  0.26040000  0.73440000  0.87870000  1
  C  C50  1  0.05260000  0.71590000  0.90830000  1
  C  C51  1  0.17410000  0.69220000  0.41700000  1
  C  C52  1  0.29860000  0.66370000  0.91710000  1
  C  C53  1  0.08810000  0.64260000  0.94540000  1
  C  C54  1  0.43200000  0.63720000  0.92050000  1
  C  C55  1  0.81650000  0.62730000  0.73820000  1
  C  C56  1  0.83220000  0.62580000  0.67280000  1
  C  C57  1  0.21110000  0.61840000  0.95070000  1
  C  C58  1  0.17690000  0.58180000  0.36094000  1
  C  C59  1  0.19320000  0.58120000  0.29590000  1
  C  C60  1  0.24700000  0.54040000  0.99160000  1
  C  C61  1  0.76240000  0.52830000  0.82360000  1
  C  C62  1  0.83290000  0.52310000  0.62320000  1
  C  C63  1  0.79970000  0.52270000  0.75384000  1
  C  C64  1  0.20030000  0.47730000  0.24616000  1
  C  C65  1  0.16710000  0.47690000  0.37680000  1
  C  C66  1  0.23760000  0.47170000  0.17640000  1
  C  C67  1  0.75300000  0.45960000  0.00840000  1
  C  C68  1  0.80680000  0.41880000  0.70410000  1
  C  C69  1  0.82310000  0.41820000  0.63906000  1
  C  C70  1  0.78890000  0.38160000  0.04930000  1
  C  C71  1  0.16780000  0.37420000  0.32720000  1
  C  C72  1  0.18350000  0.37270000  0.26180000  1
  C  C73  1  0.56800000  0.36280000  0.07950000  1
  C  C74  1  0.91190000  0.35740000  0.05460000  1
  C  C75  1  0.70140000  0.33630000  0.08290000  1
  C  C76  1  0.82590000  0.30780000  0.58300000  1
  C  C77  1  0.94740000  0.28410000  0.09170000  1
  C  C78  1  0.73960000  0.26560000  0.12130000  1
  C  C79  1  0.36170000  0.26160000  0.37470000  1
  C  C80  1  0.86170000  0.23840000  0.12530000  1
  C  C81  1  0.23960000  0.23440000  0.37870000  1
  C  C82  1  0.44740000  0.21590000  0.40830000  1
  C  C83  1  0.32590000  0.19220000  0.91700000  1
  C  C84  1  0.20140000  0.16370000  0.41710000  1
  C  C85  1  0.41190000  0.14260000  0.44540000  1
  C  C86  1  0.06800000  0.13720000  0.42050000  1
  C  C87  1  0.68350000  0.12730000  0.23820000  1
  C  C88  1  0.66780000  0.12580000  0.17280000  1
  C  C89  1  0.28890000  0.11840000  0.45070000  1
  C  C90  1  0.32310000  0.08180000  0.86094000  1
  C  C91  1  0.30680000  0.08120000  0.79590000  1
  C  C92  1  0.25300000  0.04040000  0.49160000  1
  C  C93  1  0.73760000  0.02830000  0.32360000  1
  C  C94  1  0.66710000  0.02310000  0.12320000  1
  C  C95  1  0.70030000  0.02270000  0.25384000  1
  O  O96  1  0.96860000  0.96340000  0.60697000  1
  O  O97  1  0.32290000  0.95830000  0.49329000  1
  O  O98  1  0.84870000  0.94410000  0.47812000  1
  O  O99  1  0.77570000  0.93810000  0.33504000  1
  O  O100  1  0.26880000  0.87280000  0.63490000  1
  O  O101  1  0.72640000  0.80970000  0.03028000  1
  O  O102  1  0.00040000  0.78190000  0.54950000  1
  O  O103  1  0.11880000  0.77960000  0.40912000  1
  O  O104  1  0.34950000  0.76810000  0.84110000  1
  O  O105  1  0.84950000  0.73190000  0.65890000  1
  O  O106  1  0.61880000  0.72040000  0.09088000  1
  O  O107  1  0.50040000  0.71810000  0.95050000  1
  O  O108  1  0.22640000  0.69030000  0.46972000  1
  O  O109  1  0.76880000  0.62720000  0.86510000  1
  O  O110  1  0.27570000  0.56190000  0.16496000  1
  O  O111  1  0.34870000  0.55590000  0.02188000  1
  O  O112  1  0.82290000  0.54170000  0.00671000  1
  O  O113  1  0.46860000  0.53660000  0.89303000  1
  O  O114  1  0.53140000  0.46340000  0.10697000  1
  O  O115  1  0.17710000  0.45830000  0.99329000  1
  O  O116  1  0.65130000  0.44410000  0.97812000  1
  O  O117  1  0.72430000  0.43810000  0.83504000  1
  O  O118  1  0.23120000  0.37280000  0.13490000  1
  O  O119  1  0.77360000  0.30970000  0.53028000  1
  O  O120  1  0.49960000  0.28190000  0.04950000  1
  O  O121  1  0.38120000  0.27960000  0.90912000  1
  O  O122  1  0.15050000  0.26810000  0.34110000  1
  O  O123  1  0.65050000  0.23190000  0.15890000  1
  O  O124  1  0.88120000  0.22040000  0.59088000  1
  O  O125  1  0.99960000  0.21810000  0.45050000  1
  O  O126  1  0.27360000  0.19030000  0.96972000  1
  O  O127  1  0.73120000  0.12720000  0.36510000  1
  O  O128  1  0.22430000  0.06190000  0.66496000  1
  O  O129  1  0.15130000  0.05590000  0.52188000  1
  O  O130  1  0.67710000  0.04170000  0.50671000  1
  O  O131  1  0.03140000  0.03660000  0.39303000  1
