# generated using pymatgen
data_ZnCo(PO4)2
_symmetry_space_group_name_H-M   'P 1'
_cell_length_a   8.95440000
_cell_length_b   14.72360000
_cell_length_c   14.72360000
_cell_angle_alpha   90.00000000
_cell_angle_beta   90.00000000
_cell_angle_gamma   90.00000000
_symmetry_Int_Tables_number   1
_chemical_formula_structural   ZnCo(PO4)2
_chemical_formula_sum   'Zn8 Co8 P16 O64'
_cell_volume   1941.17420414
_cell_formula_units_Z   8
loop_
 _symmetry_equiv_pos_site_id
 _symmetry_equiv_pos_as_xyz
  1  'x, y, z'
loop_
 _atom_site_type_symbol
 _atom_site_label
 _atom_site_symmetry_multiplicity
 _atom_site_fract_x
 _atom_site_fract_y
 _atom_site_fract_z
 _atom_site_occupancy
  Zn  Zn0  1  0.66341000  0.00117000  0.36854000  1
  Zn  Zn1  1  0.84972000  0.13148000  0.01171000  1
  Zn  Zn2  1  0.84972000  0.36852000  0.51171000  1
  Zn  Zn3  1  0.16341000  0.36854000  0.99883000  1
  Zn  Zn4  1  0.16341000  0.63146000  0.00117000  1
  Zn  Zn5  1  0.84972000  0.63148000  0.48829000  1
  Zn  Zn6  1  0.84972000  0.86852000  0.98829000  1
  Zn  Zn7  1  0.66341000  0.99883000  0.63146000  1
  Co  Co8  1  0.34972000  0.01171000  0.86852000  1
  Co  Co9  1  0.16341000  0.13146000  0.49883000  1
  Co  Co10  1  0.34972000  0.48829000  0.36852000  1
  Co  Co11  1  0.66341000  0.49883000  0.86854000  1
  Co  Co12  1  0.66341000  0.50117000  0.13146000  1
  Co  Co13  1  0.34972000  0.51171000  0.63148000  1
  Co  Co14  1  0.16341000  0.86854000  0.50117000  1
  Co  Co15  1  0.34972000  0.98829000  0.13148000  1
  P  P16  1  0.30550000  0.00019000  0.64733000  1
  P  P17  1  0.70880000  0.01251000  0.85337000  1
  P  P18  1  0.20880000  0.14663000  0.01251000  1
  P  P19  1  0.80550000  0.14733000  0.50019000  1
  P  P20  1  0.80550000  0.35267000  0.00019000  1
  P  P21  1  0.20880000  0.35337000  0.51251000  1
  P  P22  1  0.70880000  0.48749000  0.35337000  1
  P  P23  1  0.30550000  0.49981000  0.14733000  1
  P  P24  1  0.30550000  0.50019000  0.85267000  1
  P  P25  1  0.70880000  0.51251000  0.64663000  1
  P  P26  1  0.20880000  0.64663000  0.48749000  1
  P  P27  1  0.80550000  0.64733000  0.99981000  1
  P  P28  1  0.80550000  0.85267000  0.49981000  1
  P  P29  1  0.20880000  0.85337000  0.98749000  1
  P  P30  1  0.70880000  0.98749000  0.14663000  1
  P  P31  1  0.30550000  0.99981000  0.35267000  1
  O  O32  1  0.75340000  0.00350000  0.24780000  1
  O  O33  1  0.26440000  0.00550000  0.74750000  1
  O  O34  1  0.46090000  0.00700000  0.63630000  1
  O  O35  1  0.55370000  0.05380000  0.86110000  1
  O  O36  1  0.82780000  0.07680000  0.89100000  1
  O  O37  1  0.24400000  0.07890000  0.59820000  1
  O  O38  1  0.71580000  0.08000000  0.09960000  1
  O  O39  1  0.23400000  0.08380000  0.39040000  1
  O  O40  1  0.74400000  0.09820000  0.57890000  1
  O  O41  1  0.21580000  0.09960000  0.92000000  1
  O  O42  1  0.32780000  0.10900000  0.07680000  1
  O  O43  1  0.73400000  0.10960000  0.41620000  1
  O  O44  1  0.96090000  0.13630000  0.50700000  1
  O  O45  1  0.05370000  0.13890000  0.05380000  1
  O  O46  1  0.76440000  0.24750000  0.50550000  1
  O  O47  1  0.25340000  0.24780000  0.99650000  1
  O  O48  1  0.25340000  0.25220000  0.49650000  1
  O  O49  1  0.76440000  0.25250000  0.00550000  1
  O  O50  1  0.05370000  0.36110000  0.55380000  1
  O  O51  1  0.96090000  0.36370000  0.00700000  1
  O  O52  1  0.73400000  0.39040000  0.91620000  1
  O  O53  1  0.32780000  0.39100000  0.57680000  1
  O  O54  1  0.21580000  0.40040000  0.42000000  1
  O  O55  1  0.74400000  0.40180000  0.07890000  1
  O  O56  1  0.23400000  0.41620000  0.89040000  1
  O  O57  1  0.71580000  0.42000000  0.59960000  1
  O  O58  1  0.24400000  0.42110000  0.09820000  1
  O  O59  1  0.82780000  0.42320000  0.39100000  1
  O  O60  1  0.55370000  0.44620000  0.36110000  1
  O  O61  1  0.46090000  0.49300000  0.13630000  1
  O  O62  1  0.26440000  0.49450000  0.24750000  1
  O  O63  1  0.75340000  0.49650000  0.74780000  1
  O  O64  1  0.75340000  0.50350000  0.25220000  1
  O  O65  1  0.26440000  0.50550000  0.75250000  1
  O  O66  1  0.46090000  0.50700000  0.86370000  1
  O  O67  1  0.55370000  0.55380000  0.63890000  1
  O  O68  1  0.82780000  0.57680000  0.60900000  1
  O  O69  1  0.24400000  0.57890000  0.90180000  1
  O  O70  1  0.71580000  0.58000000  0.40040000  1
  O  O71  1  0.23400000  0.58380000  0.10960000  1
  O  O72  1  0.74400000  0.59820000  0.92110000  1
  O  O73  1  0.21580000  0.59960000  0.58000000  1
  O  O74  1  0.32780000  0.60900000  0.42320000  1
  O  O75  1  0.73400000  0.60960000  0.08380000  1
  O  O76  1  0.96090000  0.63630000  0.99300000  1
  O  O77  1  0.05370000  0.63890000  0.44620000  1
  O  O78  1  0.76440000  0.74750000  0.99450000  1
  O  O79  1  0.25340000  0.74780000  0.50350000  1
  O  O80  1  0.25340000  0.75220000  0.00350000  1
  O  O81  1  0.76440000  0.75250000  0.49450000  1
  O  O82  1  0.05370000  0.86110000  0.94620000  1
  O  O83  1  0.96090000  0.86370000  0.49300000  1
  O  O84  1  0.73400000  0.89040000  0.58380000  1
  O  O85  1  0.32780000  0.89100000  0.92320000  1
  O  O86  1  0.21580000  0.90040000  0.08000000  1
  O  O87  1  0.74400000  0.90180000  0.42110000  1
  O  O88  1  0.23400000  0.91620000  0.60960000  1
  O  O89  1  0.71580000  0.92000000  0.90040000  1
  O  O90  1  0.24400000  0.92110000  0.40180000  1
  O  O91  1  0.82780000  0.92320000  0.10900000  1
  O  O92  1  0.55370000  0.94620000  0.13890000  1
  O  O93  1  0.46090000  0.99300000  0.36370000  1
  O  O94  1  0.26440000  0.99450000  0.25250000  1
  O  O95  1  0.75340000  0.99650000  0.75220000  1
