# generated using pymatgen
data_CdH9C14(N3O)2
_symmetry_space_group_name_H-M   'P 1'
_cell_length_a   9.39930000
_cell_length_b   10.27830000
_cell_length_c   17.55160000
_cell_angle_alpha   103.05500000
_cell_angle_beta   90.00000000
_cell_angle_gamma   90.00000000
_symmetry_Int_Tables_number   1
_chemical_formula_structural   CdH9C14(N3O)2
_chemical_formula_sum   'Cd4 H36 C56 N24 O8'
_cell_volume   1651.81341347
_cell_formula_units_Z   4
loop_
 _symmetry_equiv_pos_site_id
 _symmetry_equiv_pos_as_xyz
  1  'x, y, z'
loop_
 _atom_site_type_symbol
 _atom_site_label
 _atom_site_symmetry_multiplicity
 _atom_site_fract_x
 _atom_site_fract_y
 _atom_site_fract_z
 _atom_site_occupancy
  Cd  Cd0  1  0.16105000  0.22595000  0.75020000  1
  Cd  Cd1  1  0.33895000  0.22595000  0.25020000  1
  Cd  Cd2  1  0.66105000  0.77405000  0.74980000  1
  Cd  Cd3  1  0.83895000  0.77405000  0.24980000  1
  H  H4  1  0.04110000  0.26130000  0.14950000  1
  H  H5  1  0.05350000  0.09230000  0.88260000  1
  H  H6  1  0.09170000  0.51140000  0.62370000  1
  H  H7  1  0.09200000  0.12770000  0.55890000  1
  H  H8  1  0.12240000  0.76180000  0.50180000  1
  H  H9  1  0.13430000  0.84670000  0.63620000  1
  H  H10  1  0.17500000  0.74750000  0.92600000  1
  H  H11  1  0.22040000  0.40760000  0.51460000  1
  H  H12  1  0.23960000  0.10320000  0.95630000  1
  H  H13  1  0.26040000  0.10320000  0.45630000  1
  H  H14  1  0.27960000  0.40760000  0.01460000  1
  H  H15  1  0.32500000  0.74750000  0.42600000  1
  H  H16  1  0.36570000  0.84670000  0.13620000  1
  H  H17  1  0.37760000  0.76180000  0.00180000  1
  H  H18  1  0.40800000  0.12770000  0.05890000  1
  H  H19  1  0.40830000  0.51140000  0.12370000  1
  H  H20  1  0.44650000  0.09230000  0.38260000  1
  H  H21  1  0.45890000  0.26130000  0.64950000  1
  H  H22  1  0.54110000  0.73870000  0.35050000  1
  H  H23  1  0.55350000  0.90770000  0.61740000  1
  H  H24  1  0.59170000  0.48860000  0.87630000  1
  H  H25  1  0.59200000  0.87230000  0.94110000  1
  H  H26  1  0.62240000  0.23820000  0.99820000  1
  H  H27  1  0.63430000  0.15330000  0.86380000  1
  H  H28  1  0.67500000  0.25250000  0.57400000  1
  H  H29  1  0.72040000  0.59240000  0.98540000  1
  H  H30  1  0.73960000  0.89680000  0.54370000  1
  H  H31  1  0.76040000  0.89680000  0.04370000  1
  H  H32  1  0.77960000  0.59240000  0.48540000  1
  H  H33  1  0.82500000  0.25250000  0.07400000  1
  H  H34  1  0.86570000  0.15330000  0.36380000  1
  H  H35  1  0.87760000  0.23820000  0.49820000  1
  H  H36  1  0.90800000  0.87230000  0.44110000  1
  H  H37  1  0.90830000  0.48860000  0.37630000  1
  H  H38  1  0.94650000  0.90770000  0.11740000  1
  H  H39  1  0.95890000  0.73870000  0.85050000  1
  C  C40  1  0.03290000  0.87770000  0.09398000  1
  C  C41  1  0.03840000  0.82600000  0.01355000  1
  C  C42  1  0.05470000  0.50680000  0.57403000  1
  C  C43  1  0.07720000  0.43780000  0.43414000  1
  C  C44  1  0.08940000  0.18190000  0.03465000  1
  C  C45  1  0.11090000  0.22490000  0.11339000  1
  C  C46  1  0.13200000  0.44470000  0.50871000  1
  C  C47  1  0.14380000  0.93300000  0.22564000  1
  C  C48  1  0.15490000  0.88510000  0.14003000  1
  C  C49  1  0.16030000  0.36810000  0.36347000  1
  C  C50  1  0.16930000  0.78240000  0.97960000  1
  C  C51  1  0.18740000  0.15200000  0.56425000  1
  C  C52  1  0.20910000  0.79060000  0.52516000  1
  C  C53  1  0.21590000  0.84180000  0.60577000  1
  C  C54  1  0.28410000  0.84180000  0.10577000  1
  C  C55  1  0.29090000  0.79060000  0.02516000  1
  C  C56  1  0.31260000  0.15200000  0.06425000  1
  C  C57  1  0.33070000  0.78240000  0.47960000  1
  C  C58  1  0.33970000  0.36810000  0.86347000  1
  C  C59  1  0.34510000  0.88510000  0.64003000  1
  C  C60  1  0.35620000  0.93300000  0.72564000  1
  C  C61  1  0.36800000  0.44470000  0.00871000  1
  C  C62  1  0.38910000  0.22490000  0.61339000  1
  C  C63  1  0.41060000  0.18190000  0.53465000  1
  C  C64  1  0.42280000  0.43780000  0.93414000  1
  C  C65  1  0.44530000  0.50680000  0.07403000  1
  C  C66  1  0.46160000  0.82600000  0.51355000  1
  C  C67  1  0.46710000  0.87770000  0.59398000  1
  C  C68  1  0.53290000  0.12230000  0.40602000  1
  C  C69  1  0.53840000  0.17400000  0.48645000  1
  C  C70  1  0.55470000  0.49320000  0.92597000  1
  C  C71  1  0.57720000  0.56220000  0.06586000  1
  C  C72  1  0.58940000  0.81810000  0.46535000  1
  C  C73  1  0.61090000  0.77510000  0.38661000  1
  C  C74  1  0.63200000  0.55530000  0.99129000  1
  C  C75  1  0.64380000  0.06700000  0.27436000  1
  C  C76  1  0.65490000  0.11490000  0.35997000  1
  C  C77  1  0.66030000  0.63190000  0.13653000  1
  C  C78  1  0.66930000  0.21760000  0.52040000  1
  C  C79  1  0.68740000  0.84800000  0.93575000  1
  C  C80  1  0.70910000  0.20940000  0.97484000  1
  C  C81  1  0.71590000  0.15820000  0.89423000  1
  C  C82  1  0.78410000  0.15820000  0.39423000  1
  C  C83  1  0.79090000  0.20940000  0.47484000  1
  C  C84  1  0.81260000  0.84800000  0.43575000  1
  C  C85  1  0.83070000  0.21760000  0.02040000  1
  C  C86  1  0.83970000  0.63190000  0.63653000  1
  C  C87  1  0.84510000  0.11490000  0.85997000  1
  C  C88  1  0.85620000  0.06700000  0.77436000  1
  C  C89  1  0.86800000  0.55530000  0.49129000  1
  C  C90  1  0.88910000  0.77510000  0.88661000  1
  C  C91  1  0.91060000  0.81810000  0.96535000  1
  C  C92  1  0.92280000  0.56220000  0.56586000  1
  C  C93  1  0.94530000  0.49320000  0.42597000  1
  C  C94  1  0.96160000  0.17400000  0.98645000  1
  C  C95  1  0.96710000  0.12230000  0.90602000  1
  N  N96  1  0.04890000  0.88490000  0.26934000  1
  N  N97  1  0.07870000  0.94470000  0.34451000  1
  N  N98  1  0.18510000  0.02430000  0.34519000  1
  N  N99  1  0.22040000  0.13620000  0.00477000  1
  N  N100  1  0.22900000  0.02040000  0.27079000  1
  N  N101  1  0.24890000  0.20650000  0.63149000  1
  N  N102  1  0.25110000  0.20650000  0.13149000  1
  N  N103  1  0.27100000  0.02040000  0.77079000  1
  N  N104  1  0.27960000  0.13620000  0.50477000  1
  N  N105  1  0.31490000  0.02430000  0.84519000  1
  N  N106  1  0.42130000  0.94470000  0.84451000  1
  N  N107  1  0.45110000  0.88490000  0.76934000  1
  N  N108  1  0.54890000  0.11510000  0.23066000  1
  N  N109  1  0.57870000  0.05530000  0.15549000  1
  N  N110  1  0.68510000  0.97570000  0.15481000  1
  N  N111  1  0.72040000  0.86380000  0.49523000  1
  N  N112  1  0.72900000  0.97960000  0.22921000  1
  N  N113  1  0.74890000  0.79350000  0.86851000  1
  N  N114  1  0.75110000  0.79350000  0.36851000  1
  N  N115  1  0.77100000  0.97960000  0.72921000  1
  N  N116  1  0.77960000  0.86380000  0.99523000  1
  N  N117  1  0.81490000  0.97570000  0.65481000  1
  N  N118  1  0.92130000  0.05530000  0.65549000  1
  N  N119  1  0.95110000  0.11510000  0.73066000  1
  O  O120  1  0.11010000  0.35950000  0.29744000  1
  O  O121  1  0.21840000  0.32260000  0.87395000  1
  O  O122  1  0.28160000  0.32260000  0.37395000  1
  O  O123  1  0.38990000  0.35950000  0.79744000  1
  O  O124  1  0.61010000  0.64050000  0.20256000  1
  O  O125  1  0.71840000  0.67740000  0.62605000  1
  O  O126  1  0.78160000  0.67740000  0.12605000  1
  O  O127  1  0.88990000  0.64050000  0.70256000  1
