# generated using pymatgen
data_ZnH6C2N5F
_symmetry_space_group_name_H-M   'P 1'
_cell_length_a   9.91680000
_cell_length_b   11.18405575
_cell_length_c   11.18405575
_cell_angle_alpha   111.65169058
_cell_angle_beta   107.19133755
_cell_angle_gamma   107.19133755
_symmetry_Int_Tables_number   1
_chemical_formula_structural   ZnH6C2N5F
_chemical_formula_sum   'Zn6 H36 C12 N30 F6'
_cell_volume   980.39560035
_cell_formula_units_Z   6
loop_
 _symmetry_equiv_pos_site_id
 _symmetry_equiv_pos_as_xyz
  1  'x, y, z'
loop_
 _atom_site_type_symbol
 _atom_site_label
 _atom_site_symmetry_multiplicity
 _atom_site_fract_x
 _atom_site_fract_y
 _atom_site_fract_z
 _atom_site_occupancy
  C  C0  1  0.20336000  0.58744000  0.53009000  1
  C  C1  1  0.70336000  0.53009000  0.58744000  1
  C  C2  1  0.61592000  0.94265000  0.41256000  1
  C  C3  1  0.11592000  0.41256000  0.94265000  1
  C  C4  1  0.82673000  0.94265000  0.53009000  1
  C  C5  1  0.32673000  0.53009000  0.94265000  1
  C  C6  1  0.17327000  0.05735000  0.46991000  1
  C  C7  1  0.67327000  0.46991000  0.05735000  1
  C  C8  1  0.38408000  0.05735000  0.58744000  1
  C  C9  1  0.88408000  0.58744000  0.05735000  1
  C  C10  1  0.29664000  0.46991000  0.41256000  1
  C  C11  1  0.79664000  0.41256000  0.46991000  1
  F  F12  1  0.25000000  0.74556000  0.25444000  1
  F  F13  1  0.75000000  0.25444000  0.74556000  1
  F  F14  1  0.99556000  0.74556000  0.49112000  1
  F  F15  1  0.49556000  0.49112000  0.74556000  1
  F  F16  1  0.50444000  0.50888000  0.25444000  1
  F  F17  1  0.00444000  0.25444000  0.50888000  1
  H  H18  1  0.42590000  0.93150000  0.27680000  1
  H  H19  1  0.92590000  0.27680000  0.93150000  1
  H  H20  1  0.16370000  0.62070000  0.59430000  1
  H  H21  1  0.66370000  0.59430000  0.62070000  1
  H  H22  1  0.96120000  0.91640000  0.30540000  1
  H  H23  1  0.46120000  0.30540000  0.91640000  1
  H  H24  1  0.65580000  0.69460000  0.61100000  1
  H  H25  1  0.15580000  0.61100000  0.69460000  1
  H  H26  1  0.54300000  0.97360000  0.37930000  1
  H  H27  1  0.04300000  0.37930000  0.97360000  1
  H  H28  1  0.14910000  0.72320000  0.65470000  1
  H  H29  1  0.64910000  0.65470000  0.72320000  1
  H  H30  1  0.99440000  0.06850000  0.34530000  1
  H  H31  1  0.49440000  0.34530000  0.06850000  1
  H  H32  1  0.06940000  0.02640000  0.40570000  1
  H  H33  1  0.56940000  0.40570000  0.02640000  1
  H  H34  1  0.54480000  0.08360000  0.38900000  1
  H  H35  1  0.04480000  0.38900000  0.08360000  1
  H  H36  1  0.45520000  0.91640000  0.61100000  1
  H  H37  1  0.95520000  0.61100000  0.91640000  1
  H  H38  1  0.93060000  0.97360000  0.59430000  1
  H  H39  1  0.43060000  0.59430000  0.97360000  1
  H  H40  1  0.00560000  0.93150000  0.65470000  1
  H  H41  1  0.50560000  0.65470000  0.93150000  1
  H  H42  1  0.35090000  0.34530000  0.27680000  1
  H  H43  1  0.85090000  0.27680000  0.34530000  1
  H  H44  1  0.45700000  0.02640000  0.62070000  1
  H  H45  1  0.95700000  0.62070000  0.02640000  1
  H  H46  1  0.84420000  0.38900000  0.30540000  1
  H  H47  1  0.34420000  0.30540000  0.38900000  1
  H  H48  1  0.03880000  0.08360000  0.69460000  1
  H  H49  1  0.53880000  0.69460000  0.08360000  1
  H  H50  1  0.33630000  0.40570000  0.37930000  1
  H  H51  1  0.83630000  0.37930000  0.40570000  1
  H  H52  1  0.57410000  0.06850000  0.72320000  1
  H  H53  1  0.07410000  0.72320000  0.06850000  1
  N  N54  1  0.75000000  0.51647000  0.48353000  1
  N  N55  1  0.25000000  0.48353000  0.51647000  1
  N  N56  1  0.21901000  0.63573000  0.44142000  1
  N  N57  1  0.71901000  0.44142000  0.63573000  1
  N  N58  1  0.58328000  0.80569000  0.36427000  1
  N  N59  1  0.08328000  0.36427000  0.80569000  1
  N  N60  1  0.72241000  0.80569000  0.44142000  1
  N  N61  1  0.22241000  0.44142000  0.80569000  1
  N  N62  1  0.16450000  0.64840000  0.64070000  1
  N  N63  1  0.66450000  0.64070000  0.64840000  1
  N  N64  1  0.51610000  0.99230000  0.35160000  1
  N  N65  1  0.01610000  0.35160000  0.99230000  1
  N  N66  1  0.02380000  0.00770000  0.35930000  1
  N  N67  1  0.52380000  0.35930000  0.00770000  1
  N  N68  1  0.23353000  0.96706000  0.48353000  1
  N  N69  1  0.73353000  0.48353000  0.96706000  1
  N  N70  1  0.76647000  0.03294000  0.51647000  1
  N  N71  1  0.26647000  0.51647000  0.03294000  1
  N  N72  1  0.97620000  0.99230000  0.64070000  1
  N  N73  1  0.47620000  0.64070000  0.99230000  1
  N  N74  1  0.48390000  0.00770000  0.64840000  1
  N  N75  1  0.98390000  0.64840000  0.00770000  1
  N  N76  1  0.33550000  0.35930000  0.35160000  1
  N  N77  1  0.83550000  0.35160000  0.35930000  1
  N  N78  1  0.27759000  0.19431000  0.55858000  1
  N  N79  1  0.77759000  0.55858000  0.19431000  1
  N  N80  1  0.41672000  0.19431000  0.63573000  1
  N  N81  1  0.91672000  0.63573000  0.19431000  1
  N  N82  1  0.28099000  0.55858000  0.36427000  1
  N  N83  1  0.78099000  0.36427000  0.55858000  1
  Zn  Zn84  1  0.75000000  0.62446333  0.37553667  1
  Zn  Zn85  1  0.25000000  0.37553667  0.62446333  1
  Zn  Zn86  1  0.12553667  0.75107333  0.37553667  1
  Zn  Zn87  1  0.62553667  0.37553667  0.75107333  1
  Zn  Zn88  1  0.87446333  0.24892667  0.62446333  1
  Zn  Zn89  1  0.37446333  0.62446333  0.24892667  1
