# generated using pymatgen
data_CuH8(C5N3)2
_symmetry_space_group_name_H-M   'P 1'
_cell_length_a   7.14420000
_cell_length_b   17.31140000
_cell_length_c   19.43870000
_cell_angle_alpha   90.00000000
_cell_angle_beta   90.00000000
_cell_angle_gamma   90.00000000
_symmetry_Int_Tables_number   1
_chemical_formula_structural   CuH8(C5N3)2
_chemical_formula_sum   'Cu4 H32 C40 N24'
_cell_volume   2404.10268049
_cell_formula_units_Z   4
loop_
 _symmetry_equiv_pos_site_id
 _symmetry_equiv_pos_as_xyz
  1  'x, y, z'
loop_
 _atom_site_type_symbol
 _atom_site_label
 _atom_site_symmetry_multiplicity
 _atom_site_fract_x
 _atom_site_fract_y
 _atom_site_fract_z
 _atom_site_occupancy
  Cu  Cu0  1  0.78460000  0.74560000  0.25000000  1
  Cu  Cu1  1  0.71540000  0.24560000  0.75000000  1
  Cu  Cu2  1  0.28460000  0.75440000  0.25000000  1
  Cu  Cu3  1  0.21540000  0.25440000  0.75000000  1
  H  H4  1  0.80150000  0.00080000  0.40620000  1
  H  H5  1  0.80150000  0.00080000  0.09380000  1
  H  H6  1  0.79740000  0.63230000  0.38110000  1
  H  H7  1  0.79740000  0.63230000  0.11890000  1
  H  H8  1  0.78130000  0.09790000  0.48810000  1
  H  H9  1  0.78130000  0.09790000  0.01190000  1
  H  H10  1  0.75490000  0.35710000  0.88000000  1
  H  H11  1  0.75490000  0.35710000  0.62000000  1
  H  H12  1  0.74510000  0.85710000  0.38000000  1
  H  H13  1  0.74510000  0.85710000  0.12000000  1
  H  H14  1  0.71870000  0.59790000  0.98810000  1
  H  H15  1  0.71870000  0.59790000  0.51190000  1
  H  H16  1  0.70260000  0.13230000  0.88110000  1
  H  H17  1  0.70260000  0.13230000  0.61890000  1
  H  H18  1  0.69850000  0.50080000  0.90620000  1
  H  H19  1  0.69850000  0.50080000  0.59380000  1
  H  H20  1  0.30150000  0.49920000  0.40620000  1
  H  H21  1  0.30150000  0.49920000  0.09380000  1
  H  H22  1  0.29740000  0.86770000  0.38110000  1
  H  H23  1  0.29740000  0.86770000  0.11890000  1
  H  H24  1  0.28130000  0.40210000  0.48810000  1
  H  H25  1  0.28130000  0.40210000  0.01190000  1
  H  H26  1  0.25490000  0.14290000  0.88000000  1
  H  H27  1  0.25490000  0.14290000  0.62000000  1
  H  H28  1  0.24510000  0.64290000  0.38000000  1
  H  H29  1  0.24510000  0.64290000  0.12000000  1
  H  H30  1  0.21870000  0.90210000  0.98810000  1
  H  H31  1  0.21870000  0.90210000  0.51190000  1
  H  H32  1  0.20260000  0.36770000  0.88110000  1
  H  H33  1  0.20260000  0.36770000  0.61890000  1
  H  H34  1  0.19850000  0.99920000  0.90620000  1
  H  H35  1  0.19850000  0.99920000  0.59380000  1
  C  C36  1  0.99020000  0.05727000  0.95240000  1
  C  C37  1  0.99020000  0.05727000  0.54760000  1
  C  C38  1  0.88070000  0.00070000  0.44420000  1
  C  C39  1  0.88070000  0.00070000  0.05580000  1
  C  C40  1  0.87040000  0.84848000  0.36954000  1
  C  C41  1  0.87040000  0.84848000  0.13046000  1
  C  C42  1  0.86920000  0.05860000  0.49260000  1
  C  C43  1  0.86920000  0.05860000  0.00740000  1
  C  C44  1  0.82510000  0.14561000  0.87003000  1
  C  C45  1  0.82510000  0.14561000  0.62997000  1
  C  C46  1  0.67490000  0.64561000  0.37003000  1
  C  C47  1  0.67490000  0.64561000  0.12997000  1
  C  C48  1  0.63080000  0.55860000  0.99260000  1
  C  C49  1  0.63080000  0.55860000  0.50740000  1
  C  C50  1  0.62960000  0.34848000  0.86954000  1
  C  C51  1  0.62960000  0.34848000  0.63046000  1
  C  C52  1  0.61930000  0.50070000  0.94420000  1
  C  C53  1  0.61930000  0.50070000  0.55580000  1
  C  C54  1  0.50980000  0.55727000  0.45240000  1
  C  C55  1  0.50980000  0.55727000  0.04760000  1
  C  C56  1  0.49020000  0.44273000  0.95240000  1
  C  C57  1  0.49020000  0.44273000  0.54760000  1
  C  C58  1  0.38070000  0.49930000  0.44420000  1
  C  C59  1  0.38070000  0.49930000  0.05580000  1
  C  C60  1  0.37040000  0.65152000  0.36954000  1
  C  C61  1  0.37040000  0.65152000  0.13046000  1
  C  C62  1  0.36920000  0.44140000  0.49260000  1
  C  C63  1  0.36920000  0.44140000  0.00740000  1
  C  C64  1  0.32510000  0.35439000  0.87003000  1
  C  C65  1  0.32510000  0.35439000  0.62997000  1
  C  C66  1  0.17490000  0.85439000  0.37003000  1
  C  C67  1  0.17490000  0.85439000  0.12997000  1
  C  C68  1  0.13080000  0.94140000  0.99260000  1
  C  C69  1  0.13080000  0.94140000  0.50740000  1
  C  C70  1  0.12960000  0.15152000  0.86954000  1
  C  C71  1  0.12960000  0.15152000  0.63046000  1
  C  C72  1  0.11930000  0.99930000  0.94420000  1
  C  C73  1  0.11930000  0.99930000  0.55580000  1
  C  C74  1  0.00980000  0.94273000  0.45240000  1
  C  C75  1  0.00980000  0.94273000  0.04760000  1
  N  N76  1  0.98130000  0.11729000  0.90081000  1
  N  N77  1  0.98130000  0.11729000  0.59919000  1
  N  N78  1  0.93340000  0.80124000  0.32204000  1
  N  N79  1  0.93340000  0.80124000  0.17796000  1
  N  N80  1  0.87460000  0.19458000  0.82240000  1
  N  N81  1  0.87460000  0.19458000  0.67760000  1
  N  N82  1  0.62540000  0.69458000  0.32240000  1
  N  N83  1  0.62540000  0.69458000  0.17760000  1
  N  N84  1  0.56660000  0.30124000  0.82204000  1
  N  N85  1  0.56660000  0.30124000  0.67796000  1
  N  N86  1  0.51870000  0.61729000  0.40081000  1
  N  N87  1  0.51870000  0.61729000  0.09919000  1
  N  N88  1  0.48130000  0.38271000  0.90081000  1
  N  N89  1  0.48130000  0.38271000  0.59919000  1
  N  N90  1  0.43340000  0.69876000  0.32204000  1
  N  N91  1  0.43340000  0.69876000  0.17796000  1
  N  N92  1  0.37460000  0.30542000  0.82240000  1
  N  N93  1  0.37460000  0.30542000  0.67760000  1
  N  N94  1  0.12540000  0.80542000  0.32240000  1
  N  N95  1  0.12540000  0.80542000  0.17760000  1
  N  N96  1  0.06660000  0.19876000  0.82204000  1
  N  N97  1  0.06660000  0.19876000  0.67796000  1
  N  N98  1  0.01870000  0.88271000  0.40081000  1
  N  N99  1  0.01870000  0.88271000  0.09919000  1
