# generated using pymatgen
data_ErAgH8C18(NO2)4
_symmetry_space_group_name_H-M   'P 1'
_cell_length_a   8.47590000
_cell_length_b   17.76500000
_cell_length_c   25.28500000
_cell_angle_alpha   90.00000000
_cell_angle_beta   90.00000000
_cell_angle_gamma   90.00000000
_symmetry_Int_Tables_number   1
_chemical_formula_structural   ErAgH8C18(NO2)4
_chemical_formula_sum   'Er8 Ag8 H64 C144 N32 O64'
_cell_volume   3807.27278110
_cell_formula_units_Z   8
loop_
 _symmetry_equiv_pos_site_id
 _symmetry_equiv_pos_as_xyz
  1  'x, y, z'
loop_
 _atom_site_type_symbol
 _atom_site_label
 _atom_site_symmetry_multiplicity
 _atom_site_fract_x
 _atom_site_fract_y
 _atom_site_fract_z
 _atom_site_occupancy
  Er  Er0  1  0.83331000  0.71763000  0.97675000  1
  Er  Er1  1  0.83331000  0.21763000  0.52325000  1
  Er  Er2  1  0.66666667  0.21763000  0.97675000  1
  Er  Er3  1  0.66666667  0.71763000  0.52325000  1
  Er  Er4  1  0.33333333  0.28237000  0.47675000  1
  Er  Er5  1  0.33333333  0.78237000  0.02325000  1
  Er  Er6  1  0.16669000  0.78237000  0.47675000  1
  Er  Er7  1  0.16669000  0.28237000  0.02325000  1
  Ag  Ag8  1  0.96143000  0.04787000  0.27233000  1
  Ag  Ag9  1  0.96143000  0.54787000  0.22767000  1
  Ag  Ag10  1  0.53857000  0.54787000  0.27233000  1
  Ag  Ag11  1  0.53857000  0.04787000  0.22767000  1
  Ag  Ag12  1  0.46143000  0.95213000  0.77233000  1
  Ag  Ag13  1  0.46143000  0.45213000  0.72767000  1
  Ag  Ag14  1  0.03857000  0.45213000  0.77233000  1
  Ag  Ag15  1  0.03857000  0.95213000  0.72767000  1
  H  H16  1  0.96600000  0.99160000  0.95490000  1
  H  H17  1  0.96600000  0.49160000  0.54510000  1
  H  H18  1  0.94090000  0.10140000  0.79440000  1
  H  H19  1  0.94090000  0.60140000  0.70560000  1
  H  H20  1  0.93970000  0.64230000  0.40340000  1
  H  H21  1  0.93970000  0.14230000  0.09660000  1
  H  H22  1  0.89960000  0.91710000  0.35940000  1
  H  H23  1  0.89960000  0.41710000  0.14060000  1
  H  H24  1  0.88650000  0.49660000  0.93270000  1
  H  H25  1  0.88650000  0.99660000  0.56730000  1
  H  H26  1  0.81430000  0.84090000  0.79820000  1
  H  H27  1  0.81430000  0.34090000  0.70180000  1
  H  H28  1  0.77710000  0.10660000  0.86950000  1
  H  H29  1  0.77710000  0.60660000  0.63050000  1
  H  H30  1  0.75600000  0.67210000  0.33630000  1
  H  H31  1  0.75600000  0.17210000  0.16370000  1
  H  H32  1  0.74400000  0.17210000  0.33630000  1
  H  H33  1  0.74400000  0.67210000  0.16370000  1
  H  H34  1  0.72290000  0.60660000  0.86950000  1
  H  H35  1  0.72290000  0.10660000  0.63050000  1
  H  H36  1  0.68570000  0.34090000  0.79820000  1
  H  H37  1  0.68570000  0.84090000  0.70180000  1
  H  H38  1  0.61350000  0.99660000  0.93270000  1
  H  H39  1  0.61350000  0.49660000  0.56730000  1
  H  H40  1  0.60040000  0.41710000  0.35940000  1
  H  H41  1  0.60040000  0.91710000  0.14060000  1
  H  H42  1  0.56030000  0.14230000  0.40340000  1
  H  H43  1  0.56030000  0.64230000  0.09660000  1
  H  H44  1  0.55910000  0.60140000  0.79440000  1
  H  H45  1  0.55910000  0.10140000  0.70560000  1
  H  H46  1  0.53400000  0.49160000  0.95490000  1
  H  H47  1  0.53400000  0.99160000  0.54510000  1
  H  H48  1  0.46600000  0.00840000  0.45490000  1
  H  H49  1  0.46600000  0.50840000  0.04510000  1
  H  H50  1  0.44090000  0.89860000  0.29440000  1
  H  H51  1  0.44090000  0.39860000  0.20560000  1
  H  H52  1  0.43970000  0.35770000  0.90340000  1
  H  H53  1  0.43970000  0.85770000  0.59660000  1
  H  H54  1  0.39960000  0.08290000  0.85940000  1
  H  H55  1  0.39960000  0.58290000  0.64060000  1
  H  H56  1  0.38650000  0.50340000  0.43270000  1
  H  H57  1  0.38650000  0.00340000  0.06730000  1
  H  H58  1  0.31430000  0.15910000  0.29820000  1
  H  H59  1  0.31430000  0.65910000  0.20180000  1
  H  H60  1  0.27710000  0.89340000  0.36950000  1
  H  H61  1  0.27710000  0.39340000  0.13050000  1
  H  H62  1  0.25600000  0.32790000  0.83630000  1
  H  H63  1  0.25600000  0.82790000  0.66370000  1
  H  H64  1  0.24400000  0.82790000  0.83630000  1
  H  H65  1  0.24400000  0.32790000  0.66370000  1
  H  H66  1  0.22290000  0.39340000  0.36950000  1
  H  H67  1  0.22290000  0.89340000  0.13050000  1
  H  H68  1  0.18570000  0.65910000  0.29820000  1
  H  H69  1  0.18570000  0.15910000  0.20180000  1
  H  H70  1  0.11350000  0.00340000  0.43270000  1
  H  H71  1  0.11350000  0.50340000  0.06730000  1
  H  H72  1  0.10040000  0.58290000  0.85940000  1
  H  H73  1  0.10040000  0.08290000  0.64060000  1
  H  H74  1  0.06030000  0.85770000  0.90340000  1
  H  H75  1  0.06030000  0.35770000  0.59660000  1
  H  H76  1  0.05910000  0.39860000  0.29440000  1
  H  H77  1  0.05910000  0.89860000  0.20560000  1
  H  H78  1  0.03400000  0.50840000  0.45490000  1
  H  H79  1  0.03400000  0.00840000  0.04510000  1
  C  C80  1  0.98960000  0.37060000  0.48240000  1
  C  C81  1  0.98960000  0.87060000  0.01760000  1
  C  C82  1  0.95360000  0.35390000  0.95330000  1
  C  C83  1  0.95360000  0.85390000  0.54670000  1
  C  C84  1  0.94590000  0.49030000  0.43708000  1
  C  C85  1  0.94590000  0.99030000  0.06292000  1
  C  C86  1  0.89540000  0.41620000  0.44400000  1
  C  C87  1  0.89540000  0.91620000  0.05600000  1
  C  C88  1  0.89000000  0.06060000  0.80980000  1
  C  C89  1  0.89000000  0.56060000  0.69020000  1
  C  C90  1  0.86630000  0.38800000  0.90770000  1
  C  C91  1  0.86630000  0.88800000  0.59230000  1
  C  C92  1  0.86230000  0.53580000  0.40330000  1
  C  C93  1  0.86230000  0.03580000  0.09670000  1
  C  C94  1  0.84410000  0.46540000  0.90680000  1
  C  C95  1  0.84410000  0.96540000  0.59320000  1
  C  C96  1  0.84140000  0.25700000  0.86390000  1
  C  C97  1  0.84140000  0.75700000  0.63610000  1
  C  C98  1  0.81510000  0.93510000  0.37920000  1
  C  C99  1  0.81510000  0.43510000  0.12080000  1
  C  C100  1  0.81140000  0.81440000  0.42670000  1
  C  C101  1  0.81140000  0.31440000  0.07330000  1
  C  C102  1  0.80880000  0.34080000  0.86630000  1
  C  C103  1  0.80880000  0.84080000  0.63370000  1
  C  C104  1  0.80830000  0.94830000  0.82560000  1
  C  C105  1  0.80830000  0.44830000  0.67440000  1
  C  C106  1  0.77730000  0.87130000  0.82550000  1
  C  C107  1  0.77730000  0.37130000  0.67450000  1
  C  C108  1  0.76900000  0.62510000  0.35180000  1
  C  C109  1  0.76900000  0.12510000  0.14820000  1
  C  C110  1  0.75980000  0.00810000  0.37218000  1
  C  C111  1  0.75980000  0.50810000  0.12782000  1
  C  C112  1  0.75880000  0.38950000  0.41640000  1
  C  C113  1  0.75880000  0.88950000  0.08360000  1
  C  C114  1  0.75480000  0.49410000  0.86510000  1
  C  C115  1  0.75480000  0.99410000  0.63490000  1
  C  C116  1  0.74520000  0.99410000  0.86510000  1
  C  C117  1  0.74520000  0.49410000  0.63490000  1
  C  C118  1  0.74120000  0.88950000  0.41640000  1
  C  C119  1  0.74120000  0.38950000  0.08360000  1
  C  C120  1  0.74020000  0.50810000  0.37218000  1
  C  C121  1  0.74020000  0.00810000  0.12782000  1
  C  C122  1  0.73100000  0.12510000  0.35180000  1
  C  C123  1  0.73100000  0.62510000  0.14820000  1
  C  C124  1  0.72270000  0.37130000  0.82550000  1
  C  C125  1  0.72270000  0.87130000  0.67450000  1
  C  C126  1  0.69170000  0.44830000  0.82560000  1
  C  C127  1  0.69170000  0.94830000  0.67440000  1
  C  C128  1  0.69120000  0.84080000  0.86630000  1
  C  C129  1  0.69120000  0.34080000  0.63370000  1
  C  C130  1  0.68860000  0.31440000  0.42670000  1
  C  C131  1  0.68860000  0.81440000  0.07330000  1
  C  C132  1  0.68490000  0.43510000  0.37920000  1
  C  C133  1  0.68490000  0.93510000  0.12080000  1
  C  C134  1  0.65860000  0.75700000  0.86390000  1
  C  C135  1  0.65860000  0.25700000  0.63610000  1
  C  C136  1  0.65590000  0.96540000  0.90680000  1
  C  C137  1  0.65590000  0.46540000  0.59320000  1
  C  C138  1  0.63770000  0.03580000  0.40330000  1
  C  C139  1  0.63770000  0.53580000  0.09670000  1
  C  C140  1  0.63370000  0.88800000  0.90770000  1
  C  C141  1  0.63370000  0.38800000  0.59230000  1
  C  C142  1  0.61000000  0.56060000  0.80980000  1
  C  C143  1  0.61000000  0.06060000  0.69020000  1
  C  C144  1  0.60460000  0.91620000  0.44400000  1
  C  C145  1  0.60460000  0.41620000  0.05600000  1
  C  C146  1  0.55410000  0.99030000  0.43708000  1
  C  C147  1  0.55410000  0.49030000  0.06292000  1
  C  C148  1  0.54640000  0.85390000  0.95330000  1
  C  C149  1  0.54640000  0.35390000  0.54670000  1
  C  C150  1  0.51040000  0.87060000  0.48240000  1
  C  C151  1  0.51040000  0.37060000  0.01760000  1
  C  C152  1  0.48960000  0.62940000  0.98240000  1
  C  C153  1  0.48960000  0.12940000  0.51760000  1
  C  C154  1  0.45360000  0.64610000  0.45330000  1
  C  C155  1  0.45360000  0.14610000  0.04670000  1
  C  C156  1  0.44590000  0.50970000  0.93708000  1
  C  C157  1  0.44590000  0.00970000  0.56292000  1
  C  C158  1  0.39540000  0.58380000  0.94400000  1
  C  C159  1  0.39540000  0.08380000  0.55600000  1
  C  C160  1  0.39000000  0.93940000  0.30980000  1
  C  C161  1  0.39000000  0.43940000  0.19020000  1
  C  C162  1  0.36630000  0.61200000  0.40770000  1
  C  C163  1  0.36630000  0.11200000  0.09230000  1
  C  C164  1  0.36230000  0.46420000  0.90330000  1
  C  C165  1  0.36230000  0.96420000  0.59670000  1
  C  C166  1  0.34410000  0.53460000  0.40680000  1
  C  C167  1  0.34410000  0.03460000  0.09320000  1
  C  C168  1  0.34140000  0.74300000  0.36390000  1
  C  C169  1  0.34140000  0.24300000  0.13610000  1
  C  C170  1  0.31510000  0.06490000  0.87920000  1
  C  C171  1  0.31510000  0.56490000  0.62080000  1
  C  C172  1  0.31140000  0.18560000  0.92670000  1
  C  C173  1  0.31140000  0.68560000  0.57330000  1
  C  C174  1  0.30880000  0.65920000  0.36630000  1
  C  C175  1  0.30880000  0.15920000  0.13370000  1
  C  C176  1  0.30830000  0.05170000  0.32560000  1
  C  C177  1  0.30830000  0.55170000  0.17440000  1
  C  C178  1  0.27730000  0.12870000  0.32550000  1
  C  C179  1  0.27730000  0.62870000  0.17450000  1
  C  C180  1  0.26900000  0.37490000  0.85180000  1
  C  C181  1  0.26900000  0.87490000  0.64820000  1
  C  C182  1  0.25980000  0.99190000  0.87218000  1
  C  C183  1  0.25980000  0.49190000  0.62782000  1
  C  C184  1  0.25880000  0.61050000  0.91640000  1
  C  C185  1  0.25880000  0.11050000  0.58360000  1
  C  C186  1  0.25480000  0.50590000  0.36510000  1
  C  C187  1  0.25480000  0.00590000  0.13490000  1
  C  C188  1  0.24520000  0.00590000  0.36510000  1
  C  C189  1  0.24520000  0.50590000  0.13490000  1
  C  C190  1  0.24120000  0.11050000  0.91640000  1
  C  C191  1  0.24120000  0.61050000  0.58360000  1
  C  C192  1  0.24020000  0.49190000  0.87218000  1
  C  C193  1  0.24020000  0.99190000  0.62782000  1
  C  C194  1  0.23100000  0.87490000  0.85180000  1
  C  C195  1  0.23100000  0.37490000  0.64820000  1
  C  C196  1  0.22270000  0.62870000  0.32550000  1
  C  C197  1  0.22270000  0.12870000  0.17450000  1
  C  C198  1  0.19170000  0.55170000  0.32560000  1
  C  C199  1  0.19170000  0.05170000  0.17440000  1
  C  C200  1  0.19120000  0.15920000  0.36630000  1
  C  C201  1  0.19120000  0.65920000  0.13370000  1
  C  C202  1  0.18860000  0.68560000  0.92670000  1
  C  C203  1  0.18860000  0.18560000  0.57330000  1
  C  C204  1  0.18490000  0.56490000  0.87920000  1
  C  C205  1  0.18490000  0.06490000  0.62080000  1
  C  C206  1  0.15860000  0.24300000  0.36390000  1
  C  C207  1  0.15860000  0.74300000  0.13610000  1
  C  C208  1  0.15590000  0.03460000  0.40680000  1
  C  C209  1  0.15590000  0.53460000  0.09320000  1
  C  C210  1  0.13770000  0.96420000  0.90330000  1
  C  C211  1  0.13770000  0.46420000  0.59670000  1
  C  C212  1  0.13370000  0.11200000  0.40770000  1
  C  C213  1  0.13370000  0.61200000  0.09230000  1
  C  C214  1  0.11000000  0.43940000  0.30980000  1
  C  C215  1  0.11000000  0.93940000  0.19020000  1
  C  C216  1  0.10460000  0.08380000  0.94400000  1
  C  C217  1  0.10460000  0.58380000  0.55600000  1
  C  C218  1  0.05410000  0.00970000  0.93708000  1
  C  C219  1  0.05410000  0.50970000  0.56292000  1
  C  C220  1  0.04640000  0.14610000  0.45330000  1
  C  C221  1  0.04640000  0.64610000  0.04670000  1
  C  C222  1  0.01040000  0.12940000  0.98240000  1
  C  C223  1  0.01040000  0.62940000  0.51760000  1
  N  N224  1  0.90020000  0.99100000  0.79167000  1
  N  N225  1  0.90020000  0.49100000  0.70833000  1
  N  N226  1  0.87500000  0.61040000  0.38982000  1
  N  N227  1  0.87500000  0.11040000  0.11018000  1
  N  N228  1  0.81460000  0.06520000  0.33873000  1
  N  N229  1  0.81460000  0.56520000  0.16127000  1
  N  N230  1  0.79890000  0.06590000  0.85262000  1
  N  N231  1  0.79890000  0.56590000  0.64738000  1
  N  N232  1  0.70110000  0.56590000  0.85262000  1
  N  N233  1  0.70110000  0.06590000  0.64738000  1
  N  N234  1  0.68540000  0.56520000  0.33873000  1
  N  N235  1  0.68540000  0.06520000  0.16127000  1
  N  N236  1  0.62500000  0.11040000  0.38982000  1
  N  N237  1  0.62500000  0.61040000  0.11018000  1
  N  N238  1  0.59980000  0.49100000  0.79167000  1
  N  N239  1  0.59980000  0.99100000  0.70833000  1
  N  N240  1  0.40020000  0.00900000  0.29167000  1
  N  N241  1  0.40020000  0.50900000  0.20833000  1
  N  N242  1  0.37500000  0.38960000  0.88982000  1
  N  N243  1  0.37500000  0.88960000  0.61018000  1
  N  N244  1  0.31460000  0.93480000  0.83873000  1
  N  N245  1  0.31460000  0.43480000  0.66127000  1
  N  N246  1  0.29890000  0.93410000  0.35262000  1
  N  N247  1  0.29890000  0.43410000  0.14738000  1
  N  N248  1  0.20110000  0.43410000  0.35262000  1
  N  N249  1  0.20110000  0.93410000  0.14738000  1
  N  N250  1  0.18540000  0.43480000  0.83873000  1
  N  N251  1  0.18540000  0.93480000  0.66127000  1
  N  N252  1  0.12500000  0.88960000  0.88982000  1
  N  N253  1  0.12500000  0.38960000  0.61018000  1
  N  N254  1  0.09980000  0.50900000  0.29167000  1
  N  N255  1  0.09980000  0.00900000  0.20833000  1
  O  O256  1  0.95970000  0.80910000  0.42090000  1
  O  O257  1  0.95970000  0.30910000  0.07910000  1
  O  O258  1  0.94570000  0.23390000  0.83570000  1
  O  O259  1  0.94570000  0.73390000  0.66430000  1
  O  O260  1  0.93340000  0.11260000  0.47445000  1
  O  O261  1  0.93340000  0.61260000  0.02555000  1
  O  O262  1  0.92020000  0.83850000  0.97880000  1
  O  O263  1  0.92020000  0.33850000  0.52120000  1
  O  O264  1  0.91260000  0.28812000  0.96930000  1
  O  O265  1  0.91260000  0.78812000  0.53070000  1
  O  O266  1  0.86470000  0.12910000  0.97632000  1
  O  O267  1  0.86470000  0.62910000  0.52368000  1
  O  O268  1  0.77460000  0.25950000  0.43990000  1
  O  O269  1  0.77460000  0.75950000  0.06010000  1
  O  O270  1  0.75140000  0.71429000  0.88984000  1
  O  O271  1  0.75140000  0.21429000  0.61016000  1
  O  O272  1  0.74860000  0.21429000  0.88984000  1
  O  O273  1  0.74860000  0.71429000  0.61016000  1
  O  O274  1  0.72540000  0.75950000  0.43990000  1
  O  O275  1  0.72540000  0.25950000  0.06010000  1
  O  O276  1  0.63530000  0.62910000  0.97632000  1
  O  O277  1  0.63530000  0.12910000  0.52368000  1
  O  O278  1  0.58740000  0.78812000  0.96930000  1
  O  O279  1  0.58740000  0.28812000  0.53070000  1
  O  O280  1  0.57980000  0.33850000  0.97880000  1
  O  O281  1  0.57980000  0.83850000  0.52120000  1
  O  O282  1  0.56660000  0.61260000  0.47445000  1
  O  O283  1  0.56660000  0.11260000  0.02555000  1
  O  O284  1  0.55430000  0.73390000  0.83570000  1
  O  O285  1  0.55430000  0.23390000  0.66430000  1
  O  O286  1  0.54030000  0.30910000  0.42090000  1
  O  O287  1  0.54030000  0.80910000  0.07910000  1
  O  O288  1  0.45970000  0.19090000  0.92090000  1
  O  O289  1  0.45970000  0.69090000  0.57910000  1
  O  O290  1  0.44570000  0.76610000  0.33570000  1
  O  O291  1  0.44570000  0.26610000  0.16430000  1
  O  O292  1  0.43340000  0.88740000  0.97445000  1
  O  O293  1  0.43340000  0.38740000  0.52555000  1
  O  O294  1  0.42020000  0.16150000  0.47880000  1
  O  O295  1  0.42020000  0.66150000  0.02120000  1
  O  O296  1  0.41260000  0.71188000  0.46930000  1
  O  O297  1  0.41260000  0.21188000  0.03070000  1
  O  O298  1  0.36470000  0.87090000  0.47632000  1
  O  O299  1  0.36470000  0.37090000  0.02368000  1
  O  O300  1  0.27460000  0.74050000  0.93990000  1
  O  O301  1  0.27460000  0.24050000  0.56010000  1
  O  O302  1  0.25140000  0.28571000  0.38984000  1
  O  O303  1  0.25140000  0.78571000  0.11016000  1
  O  O304  1  0.24860000  0.78571000  0.38984000  1
  O  O305  1  0.24860000  0.28571000  0.11016000  1
  O  O306  1  0.22540000  0.24050000  0.93990000  1
  O  O307  1  0.22540000  0.74050000  0.56010000  1
  O  O308  1  0.13530000  0.37090000  0.47632000  1
  O  O309  1  0.13530000  0.87090000  0.02368000  1
  O  O310  1  0.08740000  0.21188000  0.46930000  1
  O  O311  1  0.08740000  0.71188000  0.03070000  1
  O  O312  1  0.07980000  0.66150000  0.47880000  1
  O  O313  1  0.07980000  0.16150000  0.02120000  1
  O  O314  1  0.06660000  0.38740000  0.97445000  1
  O  O315  1  0.06660000  0.88740000  0.52555000  1
  O  O316  1  0.05430000  0.26610000  0.33570000  1
  O  O317  1  0.05430000  0.76610000  0.16430000  1
  O  O318  1  0.04030000  0.69090000  0.92090000  1
  O  O319  1  0.04030000  0.19090000  0.57910000  1
