# generated using pymatgen
data_Cu3H34C40(N3O4)2
_symmetry_space_group_name_H-M   'P 1'
_cell_length_a   9.20910000
_cell_length_b   22.75320000
_cell_length_c   23.09020000
_cell_angle_alpha   90.00000000
_cell_angle_beta   90.00000000
_cell_angle_gamma   90.00000000
_symmetry_Int_Tables_number   1
_chemical_formula_structural   Cu3H34C40(N3O4)2
_chemical_formula_sum   'Cu12 H136 C160 N24 O32'
_cell_volume   4838.23955653
_cell_formula_units_Z   4
loop_
 _symmetry_equiv_pos_site_id
 _symmetry_equiv_pos_as_xyz
  1  'x, y, z'
loop_
 _atom_site_type_symbol
 _atom_site_label
 _atom_site_symmetry_multiplicity
 _atom_site_fract_x
 _atom_site_fract_y
 _atom_site_fract_z
 _atom_site_occupancy
  Cu  Cu0  1  0.11116000  0.53282000  0.03264000  1
  Cu  Cu1  1  0.11116000  0.96718000  0.03264000  1
  Cu  Cu2  1  0.23518000  0.75000000  0.02734000  1
  Cu  Cu3  1  0.26482000  0.25000000  0.52734000  1
  Cu  Cu4  1  0.38884000  0.03282000  0.53264000  1
  Cu  Cu5  1  0.38884000  0.46718000  0.53264000  1
  Cu  Cu6  1  0.61116000  0.53282000  0.46736000  1
  Cu  Cu7  1  0.61116000  0.96718000  0.46736000  1
  Cu  Cu8  1  0.73518000  0.75000000  0.47266000  1
  Cu  Cu9  1  0.76482000  0.25000000  0.97266000  1
  Cu  Cu10  1  0.88884000  0.03282000  0.96736000  1
  Cu  Cu11  1  0.88884000  0.46718000  0.96736000  1
  H  H12  1  0.01160000  0.53080000  0.60060000  1
  H  H13  1  0.01160000  0.96920000  0.60060000  1
  H  H14  1  0.01310000  0.03350000  0.69250000  1
  H  H15  1  0.01310000  0.46650000  0.69250000  1
  H  H16  1  0.03850000  0.59910000  0.30680000  1
  H  H17  1  0.03850000  0.90090000  0.30680000  1
  H  H18  1  0.04190000  0.25000000  0.72090000  1
  H  H19  1  0.04260000  0.63640000  0.10090000  1
  H  H20  1  0.04260000  0.86360000  0.10090000  1
  H  H21  1  0.05090000  0.52840000  0.87780000  1
  H  H22  1  0.05090000  0.97160000  0.87780000  1
  H  H23  1  0.05960000  0.15870000  0.81180000  1
  H  H24  1  0.05960000  0.34130000  0.81180000  1
  H  H25  1  0.09040000  0.16060000  0.11390000  1
  H  H26  1  0.09040000  0.33940000  0.11390000  1
  H  H27  1  0.10150000  0.12120000  0.61430000  1
  H  H28  1  0.10150000  0.37880000  0.61430000  1
  H  H29  1  0.11130000  0.62930000  0.44790000  1
  H  H30  1  0.11130000  0.87070000  0.44790000  1
  H  H31  1  0.15230000  0.50840000  0.78980000  1
  H  H32  1  0.15230000  0.99160000  0.78980000  1
  H  H33  1  0.16050000  0.06890000  0.45820000  1
  H  H34  1  0.16050000  0.43110000  0.45820000  1
  H  H35  1  0.16710000  0.25000000  0.15330000  1
  H  H36  1  0.17810000  0.05960000  0.61670000  1
  H  H37  1  0.17810000  0.44040000  0.61670000  1
  H  H38  1  0.18870000  0.75000000  0.31400000  1
  H  H39  1  0.18960000  0.12980000  0.72500000  1
  H  H40  1  0.18960000  0.37020000  0.72500000  1
  H  H41  1  0.21790000  0.08730000  0.00510000  1
  H  H42  1  0.21790000  0.41270000  0.00510000  1
  H  H43  1  0.24110000  0.75000000  0.40860000  1
  H  H44  1  0.24940000  0.06540000  0.72030000  1
  H  H45  1  0.24940000  0.43460000  0.72030000  1
  H  H46  1  0.25060000  0.56540000  0.22030000  1
  H  H47  1  0.25060000  0.93460000  0.22030000  1
  H  H48  1  0.25890000  0.25000000  0.90860000  1
  H  H49  1  0.28210000  0.58730000  0.50510000  1
  H  H50  1  0.28210000  0.91270000  0.50510000  1
  H  H51  1  0.31040000  0.62980000  0.22500000  1
  H  H52  1  0.31040000  0.87020000  0.22500000  1
  H  H53  1  0.31130000  0.25000000  0.81400000  1
  H  H54  1  0.32190000  0.55960000  0.11670000  1
  H  H55  1  0.32190000  0.94040000  0.11670000  1
  H  H56  1  0.33290000  0.75000000  0.65330000  1
  H  H57  1  0.33950000  0.56890000  0.95820000  1
  H  H58  1  0.33950000  0.93110000  0.95820000  1
  H  H59  1  0.34770000  0.00840000  0.28980000  1
  H  H60  1  0.34770000  0.49160000  0.28980000  1
  H  H61  1  0.38870000  0.12930000  0.94790000  1
  H  H62  1  0.38870000  0.37070000  0.94790000  1
  H  H63  1  0.39850000  0.62120000  0.11430000  1
  H  H64  1  0.39850000  0.87880000  0.11430000  1
  H  H65  1  0.40960000  0.66060000  0.61390000  1
  H  H66  1  0.40960000  0.83940000  0.61390000  1
  H  H67  1  0.44040000  0.65870000  0.31180000  1
  H  H68  1  0.44040000  0.84130000  0.31180000  1
  H  H69  1  0.44910000  0.02840000  0.37780000  1
  H  H70  1  0.44910000  0.47160000  0.37780000  1
  H  H71  1  0.45740000  0.13640000  0.60090000  1
  H  H72  1  0.45740000  0.36360000  0.60090000  1
  H  H73  1  0.45810000  0.75000000  0.22090000  1
  H  H74  1  0.46150000  0.09910000  0.80680000  1
  H  H75  1  0.46150000  0.40090000  0.80680000  1
  H  H76  1  0.48690000  0.53350000  0.19250000  1
  H  H77  1  0.48690000  0.96650000  0.19250000  1
  H  H78  1  0.48840000  0.03080000  0.10060000  1
  H  H79  1  0.48840000  0.46920000  0.10060000  1
  H  H80  1  0.51160000  0.53080000  0.89940000  1
  H  H81  1  0.51160000  0.96920000  0.89940000  1
  H  H82  1  0.51310000  0.03350000  0.80750000  1
  H  H83  1  0.51310000  0.46650000  0.80750000  1
  H  H84  1  0.53850000  0.59910000  0.19320000  1
  H  H85  1  0.53850000  0.90090000  0.19320000  1
  H  H86  1  0.54190000  0.25000000  0.77910000  1
  H  H87  1  0.54260000  0.63640000  0.39910000  1
  H  H88  1  0.54260000  0.86360000  0.39910000  1
  H  H89  1  0.55090000  0.52840000  0.62220000  1
  H  H90  1  0.55090000  0.97160000  0.62220000  1
  H  H91  1  0.55960000  0.15870000  0.68820000  1
  H  H92  1  0.55960000  0.34130000  0.68820000  1
  H  H93  1  0.59040000  0.16060000  0.38610000  1
  H  H94  1  0.59040000  0.33940000  0.38610000  1
  H  H95  1  0.60150000  0.12120000  0.88570000  1
  H  H96  1  0.60150000  0.37880000  0.88570000  1
  H  H97  1  0.61130000  0.62930000  0.05210000  1
  H  H98  1  0.61130000  0.87070000  0.05210000  1
  H  H99  1  0.65230000  0.50840000  0.71020000  1
  H  H100  1  0.65230000  0.99160000  0.71020000  1
  H  H101  1  0.66050000  0.06890000  0.04180000  1
  H  H102  1  0.66050000  0.43110000  0.04180000  1
  H  H103  1  0.66710000  0.25000000  0.34670000  1
  H  H104  1  0.67810000  0.05960000  0.88330000  1
  H  H105  1  0.67810000  0.44040000  0.88330000  1
  H  H106  1  0.68870000  0.75000000  0.18600000  1
  H  H107  1  0.68960000  0.12980000  0.77500000  1
  H  H108  1  0.68960000  0.37020000  0.77500000  1
  H  H109  1  0.71790000  0.08730000  0.49490000  1
  H  H110  1  0.71790000  0.41270000  0.49490000  1
  H  H111  1  0.74110000  0.75000000  0.09140000  1
  H  H112  1  0.74940000  0.06540000  0.77970000  1
  H  H113  1  0.74940000  0.43460000  0.77970000  1
  H  H114  1  0.75060000  0.56540000  0.27970000  1
  H  H115  1  0.75060000  0.93460000  0.27970000  1
  H  H116  1  0.75890000  0.25000000  0.59140000  1
  H  H117  1  0.78210000  0.58730000  0.99490000  1
  H  H118  1  0.78210000  0.91270000  0.99490000  1
  H  H119  1  0.81040000  0.62980000  0.27500000  1
  H  H120  1  0.81040000  0.87020000  0.27500000  1
  H  H121  1  0.81130000  0.25000000  0.68600000  1
  H  H122  1  0.82190000  0.55960000  0.38330000  1
  H  H123  1  0.82190000  0.94040000  0.38330000  1
  H  H124  1  0.83290000  0.75000000  0.84670000  1
  H  H125  1  0.83950000  0.56890000  0.54180000  1
  H  H126  1  0.83950000  0.93110000  0.54180000  1
  H  H127  1  0.84770000  0.00840000  0.21020000  1
  H  H128  1  0.84770000  0.49160000  0.21020000  1
  H  H129  1  0.88870000  0.12930000  0.55210000  1
  H  H130  1  0.88870000  0.37070000  0.55210000  1
  H  H131  1  0.89850000  0.62120000  0.38570000  1
  H  H132  1  0.89850000  0.87880000  0.38570000  1
  H  H133  1  0.90960000  0.66060000  0.88610000  1
  H  H134  1  0.90960000  0.83940000  0.88610000  1
  H  H135  1  0.94040000  0.65870000  0.18820000  1
  H  H136  1  0.94040000  0.84130000  0.18820000  1
  H  H137  1  0.94910000  0.02840000  0.12220000  1
  H  H138  1  0.94910000  0.47160000  0.12220000  1
  H  H139  1  0.95740000  0.13640000  0.89910000  1
  H  H140  1  0.95740000  0.36360000  0.89910000  1
  H  H141  1  0.95810000  0.75000000  0.27910000  1
  H  H142  1  0.96150000  0.09910000  0.69320000  1
  H  H143  1  0.96150000  0.40090000  0.69320000  1
  H  H144  1  0.98690000  0.53350000  0.30750000  1
  H  H145  1  0.98690000  0.96650000  0.30750000  1
  H  H146  1  0.98840000  0.03080000  0.39940000  1
  H  H147  1  0.98840000  0.46920000  0.39940000  1
  C  C148  1  0.00350000  0.60610000  0.12320000  1
  C  C149  1  0.00350000  0.89390000  0.12320000  1
  C  C150  1  0.02400000  0.25000000  0.68120000  1
  C  C151  1  0.02700000  0.75000000  0.43590000  1
  C  C152  1  0.02830000  0.55480000  0.41650000  1
  C  C153  1  0.02830000  0.94520000  0.41650000  1
  C  C154  1  0.03600000  0.69780000  0.94600000  1
  C  C155  1  0.03600000  0.80220000  0.94600000  1
  C  C156  1  0.04200000  0.75000000  0.50030000  1
  C  C157  1  0.04410000  0.07370000  0.68580000  1
  C  C158  1  0.04410000  0.42630000  0.68580000  1
  C  C159  1  0.04730000  0.00570000  0.42080000  1
  C  C160  1  0.04730000  0.49430000  0.42080000  1
  C  C161  1  0.05060000  0.01010000  0.86440000  1
  C  C162  1  0.05060000  0.48990000  0.86440000  1
  C  C163  1  0.05720000  0.11980000  0.82410000  1
  C  C164  1  0.05720000  0.38020000  0.82410000  1
  C  C165  1  0.05770000  0.19610000  0.09880000  1
  C  C166  1  0.05770000  0.30390000  0.09880000  1
  C  C167  1  0.08700000  0.07990000  0.62320000  1
  C  C168  1  0.08700000  0.42010000  0.62320000  1
  C  C169  1  0.09450000  0.64420000  0.97660000  1
  C  C170  1  0.09450000  0.85580000  0.97660000  1
  C  C171  1  0.10390000  0.25000000  0.12190000  1
  C  C172  1  0.11180000  0.02220000  0.81110000  1
  C  C173  1  0.11180000  0.47780000  0.81110000  1
  C  C174  1  0.11200000  0.75000000  0.34030000  1
  C  C175  1  0.11430000  0.07660000  0.78920000  1
  C  C176  1  0.11430000  0.42340000  0.78920000  1
  C  C177  1  0.11920000  0.58860000  0.44910000  1
  C  C178  1  0.11920000  0.91140000  0.44910000  1
  C  C179  1  0.13940000  0.25000000  0.64020000  1
  C  C180  1  0.14500000  0.75000000  0.39600000  1
  C  C181  1  0.15070000  0.02820000  0.45590000  1
  C  C182  1  0.15070000  0.47180000  0.45590000  1
  C  C183  1  0.16380000  0.08870000  0.72870000  1
  C  C184  1  0.16380000  0.41130000  0.72870000  1
  C  C185  1  0.20600000  0.75000000  0.14950000  1
  C  C186  1  0.22170000  0.56300000  0.48350000  1
  C  C187  1  0.22170000  0.93700000  0.48350000  1
  C  C188  1  0.27830000  0.06300000  0.98350000  1
  C  C189  1  0.27830000  0.43700000  0.98350000  1
  C  C190  1  0.29400000  0.25000000  0.64950000  1
  C  C191  1  0.33620000  0.58870000  0.22870000  1
  C  C192  1  0.33620000  0.91130000  0.22870000  1
  C  C193  1  0.34930000  0.52820000  0.95590000  1
  C  C194  1  0.34930000  0.97180000  0.95590000  1
  C  C195  1  0.35500000  0.25000000  0.89600000  1
  C  C196  1  0.36060000  0.75000000  0.14020000  1
  C  C197  1  0.38080000  0.08860000  0.94910000  1
  C  C198  1  0.38080000  0.41140000  0.94910000  1
  C  C199  1  0.38570000  0.57660000  0.28920000  1
  C  C200  1  0.38570000  0.92340000  0.28920000  1
  C  C201  1  0.38800000  0.25000000  0.84030000  1
  C  C202  1  0.38820000  0.52220000  0.31110000  1
  C  C203  1  0.38820000  0.97780000  0.31110000  1
  C  C204  1  0.39610000  0.75000000  0.62190000  1
  C  C205  1  0.40550000  0.14420000  0.47660000  1
  C  C206  1  0.40550000  0.35580000  0.47660000  1
  C  C207  1  0.41300000  0.57990000  0.12320000  1
  C  C208  1  0.41300000  0.92010000  0.12320000  1
  C  C209  1  0.44230000  0.69610000  0.59880000  1
  C  C210  1  0.44230000  0.80390000  0.59880000  1
  C  C211  1  0.44280000  0.61980000  0.32410000  1
  C  C212  1  0.44280000  0.88020000  0.32410000  1
  C  C213  1  0.44940000  0.51010000  0.36440000  1
  C  C214  1  0.44940000  0.98990000  0.36440000  1
  C  C215  1  0.45270000  0.50570000  0.92080000  1
  C  C216  1  0.45270000  0.99430000  0.92080000  1
  C  C217  1  0.45590000  0.57370000  0.18580000  1
  C  C218  1  0.45590000  0.92630000  0.18580000  1
  C  C219  1  0.45800000  0.25000000  0.00030000  1
  C  C220  1  0.46400000  0.19780000  0.44600000  1
  C  C221  1  0.46400000  0.30220000  0.44600000  1
  C  C222  1  0.47170000  0.05480000  0.91650000  1
  C  C223  1  0.47170000  0.44520000  0.91650000  1
  C  C224  1  0.47300000  0.25000000  0.93590000  1
  C  C225  1  0.47600000  0.75000000  0.18120000  1
  C  C226  1  0.49650000  0.10610000  0.62320000  1
  C  C227  1  0.49650000  0.39390000  0.62320000  1
  C  C228  1  0.50350000  0.60610000  0.37680000  1
  C  C229  1  0.50350000  0.89390000  0.37680000  1
  C  C230  1  0.52400000  0.25000000  0.81880000  1
  C  C231  1  0.52700000  0.75000000  0.06410000  1
  C  C232  1  0.52830000  0.55480000  0.08350000  1
  C  C233  1  0.52830000  0.94520000  0.08350000  1
  C  C234  1  0.53600000  0.69780000  0.55400000  1
  C  C235  1  0.53600000  0.80220000  0.55400000  1
  C  C236  1  0.54200000  0.75000000  0.99970000  1
  C  C237  1  0.54410000  0.07370000  0.81420000  1
  C  C238  1  0.54410000  0.42630000  0.81420000  1
  C  C239  1  0.54730000  0.00570000  0.07920000  1
  C  C240  1  0.54730000  0.49430000  0.07920000  1
  C  C241  1  0.55060000  0.01010000  0.63560000  1
  C  C242  1  0.55060000  0.48990000  0.63560000  1
  C  C243  1  0.55720000  0.11980000  0.67590000  1
  C  C244  1  0.55720000  0.38020000  0.67590000  1
  C  C245  1  0.55770000  0.19610000  0.40120000  1
  C  C246  1  0.55770000  0.30390000  0.40120000  1
  C  C247  1  0.58700000  0.07990000  0.87680000  1
  C  C248  1  0.58700000  0.42010000  0.87680000  1
  C  C249  1  0.59450000  0.64420000  0.52340000  1
  C  C250  1  0.59450000  0.85580000  0.52340000  1
  C  C251  1  0.60390000  0.25000000  0.37810000  1
  C  C252  1  0.61180000  0.02220000  0.68890000  1
  C  C253  1  0.61180000  0.47780000  0.68890000  1
  C  C254  1  0.61200000  0.75000000  0.15970000  1
  C  C255  1  0.61430000  0.07660000  0.71080000  1
  C  C256  1  0.61430000  0.42340000  0.71080000  1
  C  C257  1  0.61920000  0.58860000  0.05090000  1
  C  C258  1  0.61920000  0.91140000  0.05090000  1
  C  C259  1  0.63940000  0.25000000  0.85980000  1
  C  C260  1  0.64500000  0.75000000  0.10400000  1
  C  C261  1  0.65070000  0.02820000  0.04410000  1
  C  C262  1  0.65070000  0.47180000  0.04410000  1
  C  C263  1  0.66380000  0.08870000  0.77130000  1
  C  C264  1  0.66380000  0.41130000  0.77130000  1
  C  C265  1  0.70600000  0.75000000  0.35050000  1
  C  C266  1  0.72170000  0.56300000  0.01650000  1
  C  C267  1  0.72170000  0.93700000  0.01650000  1
  C  C268  1  0.77830000  0.06300000  0.51650000  1
  C  C269  1  0.77830000  0.43700000  0.51650000  1
  C  C270  1  0.79400000  0.25000000  0.85050000  1
  C  C271  1  0.83620000  0.58870000  0.27130000  1
  C  C272  1  0.83620000  0.91130000  0.27130000  1
  C  C273  1  0.84930000  0.52820000  0.54410000  1
  C  C274  1  0.84930000  0.97180000  0.54410000  1
  C  C275  1  0.85500000  0.25000000  0.60400000  1
  C  C276  1  0.86060000  0.75000000  0.35980000  1
  C  C277  1  0.88080000  0.08860000  0.55090000  1
  C  C278  1  0.88080000  0.41140000  0.55090000  1
  C  C279  1  0.88570000  0.57660000  0.21080000  1
  C  C280  1  0.88570000  0.92340000  0.21080000  1
  C  C281  1  0.88800000  0.25000000  0.65970000  1
  C  C282  1  0.88820000  0.52220000  0.18890000  1
  C  C283  1  0.88820000  0.97780000  0.18890000  1
  C  C284  1  0.89610000  0.75000000  0.87810000  1
  C  C285  1  0.90550000  0.14420000  0.02340000  1
  C  C286  1  0.90550000  0.35580000  0.02340000  1
  C  C287  1  0.91300000  0.57990000  0.37680000  1
  C  C288  1  0.91300000  0.92010000  0.37680000  1
  C  C289  1  0.94230000  0.69610000  0.90120000  1
  C  C290  1  0.94230000  0.80390000  0.90120000  1
  C  C291  1  0.94280000  0.61980000  0.17590000  1
  C  C292  1  0.94280000  0.88020000  0.17590000  1
  C  C293  1  0.94940000  0.51010000  0.13560000  1
  C  C294  1  0.94940000  0.98990000  0.13560000  1
  C  C295  1  0.95270000  0.50570000  0.57920000  1
  C  C296  1  0.95270000  0.99430000  0.57920000  1
  C  C297  1  0.95590000  0.57370000  0.31420000  1
  C  C298  1  0.95590000  0.92630000  0.31420000  1
  C  C299  1  0.95800000  0.25000000  0.49970000  1
  C  C300  1  0.96400000  0.19780000  0.05400000  1
  C  C301  1  0.96400000  0.30220000  0.05400000  1
  C  C302  1  0.97170000  0.05480000  0.58350000  1
  C  C303  1  0.97170000  0.44520000  0.58350000  1
  C  C304  1  0.97300000  0.25000000  0.56410000  1
  C  C305  1  0.97600000  0.75000000  0.31880000  1
  C  C306  1  0.99650000  0.10610000  0.87680000  1
  C  C307  1  0.99650000  0.39390000  0.87680000  1
  N  N308  1  0.00870000  0.55180000  0.10270000  1
  N  N309  1  0.00870000  0.94820000  0.10270000  1
  N  N310  1  0.08280000  0.75000000  0.96720000  1
  N  N311  1  0.10750000  0.25000000  0.58330000  1
  N  N312  1  0.24010000  0.50570000  0.48780000  1
  N  N313  1  0.24010000  0.99430000  0.48780000  1
  N  N314  1  0.25990000  0.00570000  0.98780000  1
  N  N315  1  0.25990000  0.49430000  0.98780000  1
  N  N316  1  0.39250000  0.75000000  0.08330000  1
  N  N317  1  0.41720000  0.25000000  0.46720000  1
  N  N318  1  0.49130000  0.05180000  0.60270000  1
  N  N319  1  0.49130000  0.44820000  0.60270000  1
  N  N320  1  0.50870000  0.55180000  0.39730000  1
  N  N321  1  0.50870000  0.94820000  0.39730000  1
  N  N322  1  0.58280000  0.75000000  0.53280000  1
  N  N323  1  0.60750000  0.25000000  0.91670000  1
  N  N324  1  0.74010000  0.50570000  0.01220000  1
  N  N325  1  0.74010000  0.99430000  0.01220000  1
  N  N326  1  0.75990000  0.00570000  0.51220000  1
  N  N327  1  0.75990000  0.49430000  0.51220000  1
  N  N328  1  0.89250000  0.75000000  0.41670000  1
  N  N329  1  0.91720000  0.25000000  0.03280000  1
  N  N330  1  0.99130000  0.05180000  0.89730000  1
  N  N331  1  0.99130000  0.44820000  0.89730000  1
  O  O332  1  0.03740000  0.59720000  0.96270000  1
  O  O333  1  0.03740000  0.90280000  0.96270000  1
  O  O334  1  0.08420000  0.25000000  0.47380000  1
  O  O335  1  0.11680000  0.75000000  0.10380000  1
  O  O336  1  0.15180000  0.75000000  0.19910000  1
  O  O337  1  0.15680000  0.75000000  0.52400000  1
  O  O338  1  0.19270000  0.65130000  0.01190000  1
  O  O339  1  0.19270000  0.84870000  0.01190000  1
  O  O340  1  0.30730000  0.15130000  0.51190000  1
  O  O341  1  0.30730000  0.34870000  0.51190000  1
  O  O342  1  0.34320000  0.25000000  0.02400000  1
  O  O343  1  0.34820000  0.25000000  0.69910000  1
  O  O344  1  0.38320000  0.25000000  0.60380000  1
  O  O345  1  0.41580000  0.75000000  0.97380000  1
  O  O346  1  0.46260000  0.09720000  0.46270000  1
  O  O347  1  0.46260000  0.40280000  0.46270000  1
  O  O348  1  0.53740000  0.59720000  0.53730000  1
  O  O349  1  0.53740000  0.90280000  0.53730000  1
  O  O350  1  0.58420000  0.25000000  0.02620000  1
  O  O351  1  0.61680000  0.75000000  0.39620000  1
  O  O352  1  0.65180000  0.75000000  0.30090000  1
  O  O353  1  0.65680000  0.75000000  0.97600000  1
  O  O354  1  0.69270000  0.65130000  0.48810000  1
  O  O355  1  0.69270000  0.84870000  0.48810000  1
  O  O356  1  0.80730000  0.15130000  0.98810000  1
  O  O357  1  0.80730000  0.34870000  0.98810000  1
  O  O358  1  0.84320000  0.25000000  0.47600000  1
  O  O359  1  0.84820000  0.25000000  0.80090000  1
  O  O360  1  0.88320000  0.25000000  0.89620000  1
  O  O361  1  0.91580000  0.75000000  0.52620000  1
  O  O362  1  0.96260000  0.09720000  0.03730000  1
  O  O363  1  0.96260000  0.40280000  0.03730000  1
