# generated using pymatgen
data_HoH4(CO2)4
_symmetry_space_group_name_H-M   'P 1'
_cell_length_a   6.66670000
_cell_length_b   8.44680000
_cell_length_c   9.78901620
_cell_angle_alpha   90.00000000
_cell_angle_beta   109.90852235
_cell_angle_gamma   90.00000000
_symmetry_Int_Tables_number   1
_chemical_formula_structural   HoH4(CO2)4
_chemical_formula_sum   'Ho2 H8 C8 O16'
_cell_volume   518.29823948
_cell_formula_units_Z   2
loop_
 _symmetry_equiv_pos_site_id
 _symmetry_equiv_pos_as_xyz
  1  'x, y, z'
loop_
 _atom_site_type_symbol
 _atom_site_label
 _atom_site_symmetry_multiplicity
 _atom_site_fract_x
 _atom_site_fract_y
 _atom_site_fract_z
 _atom_site_occupancy
  C  C0  1  0.87440000  0.75000000  0.74880000  1
  C  C1  1  0.12560000  0.25000000  0.25120000  1
  C  C2  1  0.42530000  0.50000000  0.00000000  1
  C  C3  1  0.50750000  0.97480000  0.48680000  1
  C  C4  1  0.02070000  0.02520000  0.51320000  1
  C  C5  1  0.49250000  0.47480000  0.51320000  1
  C  C6  1  0.97930000  0.52520000  0.48680000  1
  C  C7  1  0.57470000  1.00000000  1.00000000  1
  H  H8  1  0.82380000  0.75000000  0.64760000  1
  H  H9  1  0.17620000  0.25000000  0.35240000  1
  H  H10  1  0.28580000  0.50000000  0.00000000  1
  H  H11  1  0.56490000  0.04470000  0.56380000  1
  H  H12  1  0.00110000  0.95530000  0.43620000  1
  H  H13  1  0.43510000  0.54470000  0.43620000  1
  H  H14  1  0.99890000  0.45530000  0.56380000  1
  H  H15  1  0.71420000  0.00000000  1.00000000  1
  Ho  Ho16  1  0.64269000  0.25000000  0.28538000  1
  Ho  Ho17  1  0.35731000  0.75000000  0.71462000  1
  O  O18  1  0.53710000  0.06960000  0.09960000  1
  O  O19  1  0.43750000  0.93040000  0.90040000  1
  O  O20  1  0.74060000  0.77170000  0.81080000  1
  O  O21  1  0.92980000  0.22830000  0.18920000  1
  O  O22  1  0.50830000  0.01820000  0.36680000  1
  O  O23  1  0.14150000  0.98180000  0.63320000  1
  O  O24  1  0.56180000  0.34780000  0.48440000  1
  O  O25  1  0.07740000  0.65220000  0.51560000  1
  O  O26  1  0.43820000  0.84780000  0.51560000  1
  O  O27  1  0.92260000  0.15220000  0.48440000  1
  O  O28  1  0.49170000  0.51820000  0.63320000  1
  O  O29  1  0.85850000  0.48180000  0.36680000  1
  O  O30  1  0.25940000  0.27170000  0.18920000  1
  O  O31  1  0.07020000  0.72830000  0.81080000  1
  O  O32  1  0.46290000  0.56960000  0.90040000  1
  O  O33  1  0.56250000  0.43040000  0.09960000  1
