# generated using pymatgen
data_Zn5H36C72N6(O2F3)8
_symmetry_space_group_name_H-M   'P 1'
_cell_length_a   7.38720000
_cell_length_b   20.89600000
_cell_length_c   26.34189478
_cell_angle_alpha   96.10788483
_cell_angle_beta   90.00000000
_cell_angle_gamma   90.00000000
_symmetry_Int_Tables_number   1
_chemical_formula_structural   Zn5H36C72N6(O2F3)8
_chemical_formula_sum   'Zn10 H72 C144 N12 O32 F48'
_cell_volume   4043.12947004
_cell_formula_units_Z   2
loop_
 _symmetry_equiv_pos_site_id
 _symmetry_equiv_pos_as_xyz
  1  'x, y, z'
loop_
 _atom_site_type_symbol
 _atom_site_label
 _atom_site_symmetry_multiplicity
 _atom_site_fract_x
 _atom_site_fract_y
 _atom_site_fract_z
 _atom_site_occupancy
  Zn  Zn0  1  0.18879000  0.91264000  0.59050000  1
  Zn  Zn1  1  0.81121000  0.41264000  0.09050000  1
  Zn  Zn2  1  0.44651000  0.48155000  0.15602000  1
  Zn  Zn3  1  0.55349000  0.98155000  0.65602000  1
  Zn  Zn4  1  0.00000000  0.50000000  1.00000000  1
  Zn  Zn5  1  0.00000000  1.00000000  0.50000000  1
  Zn  Zn6  1  0.44651000  0.01845000  0.34398000  1
  Zn  Zn7  1  0.55349000  0.51845000  0.84398000  1
  Zn  Zn8  1  0.18879000  0.58736000  0.90950000  1
  Zn  Zn9  1  0.81121000  0.08736000  0.40950000  1
  H  H10  1  0.43470000  0.13780000  0.06480000  1
  H  H11  1  0.56530000  0.63780000  0.56480000  1
  H  H12  1  0.00780000  0.71020000  0.63710000  1
  H  H13  1  0.23540000  0.37980000  0.30670000  1
  H  H14  1  0.76460000  0.87980000  0.80670000  1
  H  H15  1  0.99220000  0.21020000  0.13710000  1
  H  H16  1  0.22330000  0.94830000  0.87120000  1
  H  H17  1  0.77670000  0.44830000  0.37120000  1
  H  H18  1  0.12140000  0.39350000  0.22760000  1
  H  H19  1  0.87860000  0.89350000  0.72760000  1
  H  H20  1  0.33910000  0.96080000  0.79220000  1
  H  H21  1  0.66090000  0.46080000  0.29220000  1
  H  H22  1  0.44480000  0.74040000  0.56830000  1
  H  H23  1  0.55520000  0.24040000  0.06830000  1
  H  H24  1  0.11190000  0.31250000  0.14000000  1
  H  H25  1  0.88810000  0.81250000  0.64000000  1
  H  H26  1  0.28360000  0.18000000  0.95940000  1
  H  H27  1  0.71640000  0.68000000  0.45940000  1
  H  H28  1  0.12300000  0.25210000  0.01490000  1
  H  H29  1  0.87700000  0.75210000  0.51490000  1
  H  H30  1  0.00720000  0.61870000  0.35580000  1
  H  H31  1  0.99280000  0.11870000  0.85580000  1
  H  H32  1  0.19220000  0.57180000  0.29270000  1
  H  H33  1  0.80780000  0.07180000  0.79270000  1
  H  H34  1  0.36560000  0.15170000  0.75130000  1
  H  H35  1  0.63440000  0.65170000  0.25130000  1
  H  H36  1  0.36040000  0.39020000  0.98760000  1
  H  H37  1  0.63960000  0.89020000  0.48760000  1
  H  H38  1  0.17320000  0.10820000  0.68770000  1
  H  H39  1  0.82680000  0.60820000  0.18770000  1
  H  H40  1  0.08460000  0.26330000  0.84110000  1
  H  H41  1  0.91540000  0.76330000  0.34110000  1
  H  H42  1  0.05590000  0.83940000  0.39610000  1
  H  H43  1  0.94410000  0.33940000  0.89610000  1
  H  H44  1  0.41160000  0.89810000  0.42050000  1
  H  H45  1  0.58840000  0.39810000  0.92050000  1
  H  H46  1  0.41160000  0.60190000  0.07950000  1
  H  H47  1  0.58840000  0.10190000  0.57950000  1
  H  H48  1  0.05590000  0.66060000  0.10390000  1
  H  H49  1  0.94410000  0.16060000  0.60390000  1
  H  H50  1  0.08460000  0.23670000  0.65890000  1
  H  H51  1  0.91540000  0.73670000  0.15890000  1
  H  H52  1  0.17320000  0.39180000  0.81230000  1
  H  H53  1  0.82680000  0.89180000  0.31230000  1
  H  H54  1  0.36040000  0.10980000  0.51240000  1
  H  H55  1  0.63960000  0.60980000  0.01240000  1
  H  H56  1  0.36560000  0.34830000  0.74870000  1
  H  H57  1  0.63440000  0.84830000  0.24870000  1
  H  H58  1  0.19220000  0.92820000  0.20730000  1
  H  H59  1  0.80780000  0.42820000  0.70730000  1
  H  H60  1  0.00720000  0.88130000  0.14420000  1
  H  H61  1  0.99280000  0.38130000  0.64420000  1
  H  H62  1  0.12300000  0.24790000  0.48510000  1
  H  H63  1  0.87700000  0.74790000  0.98510000  1
  H  H64  1  0.28360000  0.32000000  0.54060000  1
  H  H65  1  0.71640000  0.82000000  0.04060000  1
  H  H66  1  0.11190000  0.18750000  0.36000000  1
  H  H67  1  0.88810000  0.68750000  0.86000000  1
  H  H68  1  0.44480000  0.75960000  0.93170000  1
  H  H69  1  0.55520000  0.25960000  0.43170000  1
  H  H70  1  0.33910000  0.53920000  0.70780000  1
  H  H71  1  0.66090000  0.03920000  0.20780000  1
  H  H72  1  0.12140000  0.10650000  0.27240000  1
  H  H73  1  0.87860000  0.60650000  0.77240000  1
  H  H74  1  0.22330000  0.55170000  0.62880000  1
  H  H75  1  0.77670000  0.05170000  0.12880000  1
  H  H76  1  0.00780000  0.78980000  0.86290000  1
  H  H77  1  0.23540000  0.12020000  0.19330000  1
  H  H78  1  0.76460000  0.62020000  0.69330000  1
  H  H79  1  0.99220000  0.28980000  0.36290000  1
  H  H80  1  0.43470000  0.36220000  0.43520000  1
  H  H81  1  0.56530000  0.86220000  0.93520000  1
  C  C82  1  0.10850000  0.40420000  0.40020000  1
  C  C83  1  0.89150000  0.90420000  0.90020000  1
  C  C84  1  0.03150000  0.59180000  0.55590000  1
  C  C85  1  0.96850000  0.09180000  0.05590000  1
  C  C86  1  0.24310000  0.46080000  0.41150000  1
  C  C87  1  0.75690000  0.96080000  0.91150000  1
  C  C88  1  0.20020000  0.16280000  0.10110000  1
  C  C89  1  0.79980000  0.66280000  0.60110000  1
  C  C90  1  0.02010000  0.41260000  0.34780000  1
  C  C91  1  0.97990000  0.91260000  0.84780000  1
  C  C92  1  0.11940000  0.39640000  0.30410000  1
  C  C93  1  0.88060000  0.89640000  0.80410000  1
  C  C94  1  0.36950000  0.17260000  0.08020000  1
  C  C95  1  0.63050000  0.67260000  0.58020000  1
  C  C96  1  0.10610000  0.21590000  0.12320000  1
  C  C97  1  0.89390000  0.71590000  0.62320000  1
  C  C98  1  0.15330000  0.93690000  0.84230000  1
  C  C99  1  0.84670000  0.43690000  0.34230000  1
  C  C100  1  0.05070000  0.40410000  0.25650000  1
  C  C101  1  0.94930000  0.90410000  0.75650000  1
  C  C102  1  0.22300000  0.94430000  0.79500000  1
  C  C103  1  0.77700000  0.44430000  0.29500000  1
  C  C104  1  0.44170000  0.23430000  0.08230000  1
  C  C105  1  0.55830000  0.73430000  0.58230000  1
  C  C106  1  0.17760000  0.27750000  0.12520000  1
  C  C107  1  0.82240000  0.77750000  0.62520000  1
  C  C108  1  0.12170000  0.92740000  0.75160000  1
  C  C109  1  0.87830000  0.42740000  0.25160000  1
  C  C110  1  0.34640000  0.28640000  0.10500000  1
  C  C111  1  0.65360000  0.78640000  0.60500000  1
  C  C112  1  0.20020000  0.93400000  0.69990000  1
  C  C113  1  0.79980000  0.43400000  0.19990000  1
  C  C114  1  0.40740000  0.11320000  0.87870000  1
  C  C115  1  0.59260000  0.61320000  0.37870000  1
  C  C116  1  0.43060000  0.35270000  0.10870000  1
  C  C117  1  0.56940000  0.85270000  0.60870000  1
  C  C118  1  0.21450000  0.21170000  0.94650000  1
  C  C119  1  0.78550000  0.71170000  0.44650000  1
  C  C120  1  0.11990000  0.25570000  0.98000000  1
  C  C121  1  0.88010000  0.75570000  0.48000000  1
  C  C122  1  0.03070000  0.11650000  0.82200000  1
  C  C123  1  0.96930000  0.61650000  0.32200000  1
  C  C124  1  0.08120000  0.58870000  0.28410000  1
  C  C125  1  0.91880000  0.08870000  0.78410000  1
  C  C126  1  0.31990000  0.17140000  0.85540000  1
  C  C127  1  0.68010000  0.67140000  0.35540000  1
  C  C128  1  0.20710000  0.21470000  0.89450000  1
  C  C129  1  0.79290000  0.71470000  0.39450000  1
  C  C130  1  0.20000000  0.14170000  0.81090000  1
  C  C131  1  0.80000000  0.64170000  0.31090000  1
  C  C132  1  0.02120000  0.30460000  0.96160000  1
  C  C133  1  0.97880000  0.80460000  0.46160000  1
  C  C134  1  0.03000000  0.58560000  0.23330000  1
  C  C135  1  0.97000000  0.08560000  0.73330000  1
  C  C136  1  0.05940000  0.85670000  0.49790000  1
  C  C137  1  0.94060000  0.35670000  0.99790000  1
  C  C138  1  0.15150000  0.55620000  0.19200000  1
  C  C139  1  0.84850000  0.05620000  0.69200000  1
  C  C140  1  0.47460000  0.21400000  0.83820000  1
  C  C141  1  0.52540000  0.71400000  0.33820000  1
  C  C142  1  0.25220000  0.13680000  0.75990000  1
  C  C143  1  0.74780000  0.63680000  0.25990000  1
  C  C144  1  0.09780000  0.26230000  0.87610000  1
  C  C145  1  0.90220000  0.76230000  0.37610000  1
  C  C146  1  0.13710000  0.10990000  0.72170000  1
  C  C147  1  0.86290000  0.60990000  0.22170000  1
  C  C148  1  0.01090000  0.30710000  0.90900000  1
  C  C149  1  0.98910000  0.80710000  0.40900000  1
  C  C150  1  0.36490000  0.42160000  0.96510000  1
  C  C151  1  0.63510000  0.92160000  0.46510000  1
  C  C152  1  0.49140000  0.42600000  0.92780000  1
  C  C153  1  0.50860000  0.92600000  0.42780000  1
  C  C154  1  0.49140000  0.07400000  0.57220000  1
  C  C155  1  0.50860000  0.57400000  0.07220000  1
  C  C156  1  0.36490000  0.07840000  0.53490000  1
  C  C157  1  0.63510000  0.57840000  0.03490000  1
  C  C158  1  0.01090000  0.19290000  0.59100000  1
  C  C159  1  0.98910000  0.69290000  0.09100000  1
  C  C160  1  0.13710000  0.39010000  0.77830000  1
  C  C161  1  0.86290000  0.89010000  0.27830000  1
  C  C162  1  0.09780000  0.23770000  0.62390000  1
  C  C163  1  0.90220000  0.73770000  0.12390000  1
  C  C164  1  0.25220000  0.36320000  0.74010000  1
  C  C165  1  0.74780000  0.86320000  0.24010000  1
  C  C166  1  0.47460000  0.28600000  0.66180000  1
  C  C167  1  0.52540000  0.78600000  0.16180000  1
  C  C168  1  0.15150000  0.94380000  0.30800000  1
  C  C169  1  0.84850000  0.44380000  0.80800000  1
  C  C170  1  0.05940000  0.64330000  0.00210000  1
  C  C171  1  0.94060000  0.14330000  0.50210000  1
  C  C172  1  0.03000000  0.91440000  0.26670000  1
  C  C173  1  0.97000000  0.41440000  0.76670000  1
  C  C174  1  0.02120000  0.19540000  0.53840000  1
  C  C175  1  0.97880000  0.69540000  0.03840000  1
  C  C176  1  0.20000000  0.35830000  0.68910000  1
  C  C177  1  0.80000000  0.85830000  0.18910000  1
  C  C178  1  0.20710000  0.28530000  0.60550000  1
  C  C179  1  0.79290000  0.78530000  0.10550000  1
  C  C180  1  0.31990000  0.32860000  0.64460000  1
  C  C181  1  0.68010000  0.82860000  0.14460000  1
  C  C182  1  0.08120000  0.91130000  0.21590000  1
  C  C183  1  0.91880000  0.41130000  0.71590000  1
  C  C184  1  0.03070000  0.38350000  0.67800000  1
  C  C185  1  0.96930000  0.88350000  0.17800000  1
  C  C186  1  0.11990000  0.24430000  0.52000000  1
  C  C187  1  0.88010000  0.74430000  0.02000000  1
  C  C188  1  0.21450000  0.28830000  0.55350000  1
  C  C189  1  0.78550000  0.78830000  0.05350000  1
  C  C190  1  0.43060000  0.14730000  0.39130000  1
  C  C191  1  0.56940000  0.64730000  0.89130000  1
  C  C192  1  0.40740000  0.38680000  0.62130000  1
  C  C193  1  0.59260000  0.88680000  0.12130000  1
  C  C194  1  0.20020000  0.56600000  0.80010000  1
  C  C195  1  0.79980000  0.06600000  0.30010000  1
  C  C196  1  0.34640000  0.21360000  0.39500000  1
  C  C197  1  0.65360000  0.71360000  0.89500000  1
  C  C198  1  0.12170000  0.57260000  0.74840000  1
  C  C199  1  0.87830000  0.07260000  0.24840000  1
  C  C200  1  0.17760000  0.22250000  0.37480000  1
  C  C201  1  0.82240000  0.72250000  0.87480000  1
  C  C202  1  0.44170000  0.26570000  0.41770000  1
  C  C203  1  0.55830000  0.76570000  0.91770000  1
  C  C204  1  0.22300000  0.55570000  0.70500000  1
  C  C205  1  0.77700000  0.05570000  0.20500000  1
  C  C206  1  0.05070000  0.09590000  0.24350000  1
  C  C207  1  0.94930000  0.59590000  0.74350000  1
  C  C208  1  0.15330000  0.56310000  0.65770000  1
  C  C209  1  0.84670000  0.06310000  0.15770000  1
  C  C210  1  0.10610000  0.28410000  0.37680000  1
  C  C211  1  0.89390000  0.78410000  0.87680000  1
  C  C212  1  0.36950000  0.32740000  0.41980000  1
  C  C213  1  0.63050000  0.82740000  0.91980000  1
  C  C214  1  0.11940000  0.10360000  0.19590000  1
  C  C215  1  0.88060000  0.60360000  0.69590000  1
  C  C216  1  0.02010000  0.08740000  0.15220000  1
  C  C217  1  0.97990000  0.58740000  0.65220000  1
  C  C218  1  0.20020000  0.33720000  0.39890000  1
  C  C219  1  0.79980000  0.83720000  0.89890000  1
  C  C220  1  0.24310000  0.03920000  0.08850000  1
  C  C221  1  0.75690000  0.53920000  0.58850000  1
  C  C222  1  0.03150000  0.90820000  0.94410000  1
  C  C223  1  0.96850000  0.40820000  0.44410000  1
  C  C224  1  0.10850000  0.09580000  0.09980000  1
  C  C225  1  0.89150000  0.59580000  0.59980000  1
  N  N226  1  0.30430000  0.99610000  0.57400000  1
  N  N227  1  0.69570000  0.49610000  0.07400000  1
  N  N228  1  0.45170000  0.02260000  0.59640000  1
  N  N229  1  0.54830000  0.52260000  0.09640000  1
  N  N230  1  0.24820000  0.02970000  0.53680000  1
  N  N231  1  0.75180000  0.52970000  0.03680000  1
  N  N232  1  0.24820000  0.47030000  0.96320000  1
  N  N233  1  0.75180000  0.97030000  0.46320000  1
  N  N234  1  0.45170000  0.47740000  0.90360000  1
  N  N235  1  0.54830000  0.97740000  0.40360000  1
  N  N236  1  0.30430000  0.50390000  0.92600000  1
  N  N237  1  0.69570000  0.00390000  0.42600000  1
  O  O238  1  0.10770000  0.91510000  0.66100000  1
  O  O239  1  0.89230000  0.41510000  0.16100000  1
  O  O240  1  0.35600000  0.95810000  0.69900000  1
  O  O241  1  0.64400000  0.45810000  0.19900000  1
  O  O242  1  0.40970000  0.85650000  0.59340000  1
  O  O243  1  0.59030000  0.35650000  0.09340000  1
  O  O244  1  0.33360000  0.39990000  0.12600000  1
  O  O245  1  0.66640000  0.89990000  0.62600000  1
  O  O246  1  0.06790000  0.84681000  0.54441000  1
  O  O247  1  0.93210000  0.34681000  0.04441000  1
  O  O248  1  0.28930000  0.52710000  0.20610000  1
  O  O249  1  0.71070000  0.02710000  0.70610000  1
  O  O250  1  0.11350000  0.56120000  0.14680000  1
  O  O251  1  0.88650000  0.06120000  0.64680000  1
  O  O252  1  0.10890000  0.90844000  0.48094000  1
  O  O253  1  0.89110000  0.40844000  0.98094000  1
  O  O254  1  0.10890000  0.59156000  0.01906000  1
  O  O255  1  0.89110000  0.09156000  0.51906000  1
  O  O256  1  0.11350000  0.93880000  0.35320000  1
  O  O257  1  0.88650000  0.43880000  0.85320000  1
  O  O258  1  0.28930000  0.97290000  0.29390000  1
  O  O259  1  0.71070000  0.47290000  0.79390000  1
  O  O260  1  0.06790000  0.65319000  0.95559000  1
  O  O261  1  0.93210000  0.15319000  0.45559000  1
  O  O262  1  0.33360000  0.10010000  0.37400000  1
  O  O263  1  0.66640000  0.60010000  0.87400000  1
  O  O264  1  0.40970000  0.64350000  0.90660000  1
  O  O265  1  0.59030000  0.14350000  0.40660000  1
  O  O266  1  0.35600000  0.54190000  0.80100000  1
  O  O267  1  0.64400000  0.04190000  0.30100000  1
  O  O268  1  0.10770000  0.58490000  0.83900000  1
  O  O269  1  0.89230000  0.08490000  0.33900000  1
  F  F270  1  0.30790000  0.46580000  0.45870000  1
  F  F271  1  0.69210000  0.96580000  0.95870000  1
  F  F272  1  0.10420000  0.96634000  0.95444000  1
  F  F273  1  0.89580000  0.46634000  0.45444000  1
  F  F274  1  0.16850000  0.63312000  0.56682000  1
  F  F275  1  0.83150000  0.13312000  0.06682000  1
  F  F276  1  0.38580000  0.45330000  0.37990000  1
  F  F277  1  0.61420000  0.95330000  0.87990000  1
  F  F278  1  0.04200000  0.10793000  0.01253000  1
  F  F279  1  0.95800000  0.60793000  0.51253000  1
  F  F280  1  0.16660000  0.51640000  0.40470000  1
  F  F281  1  0.83340000  0.01640000  0.90470000  1
  F  F282  1  0.28610000  0.08006000  0.90236000  1
  F  F283  1  0.71390000  0.58006000  0.40236000  1
  F  F284  1  0.46230000  0.63110000  0.41260000  1
  F  F285  1  0.53770000  0.13110000  0.91260000  1
  F  F286  1  0.48270000  0.07200000  0.84230000  1
  F  F287  1  0.51730000  0.57200000  0.34230000  1
  F  F288  1  0.44500000  0.74680000  0.37820000  1
  F  F289  1  0.55500000  0.24680000  0.87820000  1
  F  F290  1  0.39750000  0.68150000  0.31150000  1
  F  F291  1  0.60250000  0.18150000  0.81150000  1
  F  F292  1  0.41210000  0.25761000  0.80941000  1
  F  F293  1  0.58790000  0.75761000  0.30941000  1
  F  F294  1  0.41210000  0.24239000  0.69059000  1
  F  F295  1  0.58790000  0.74239000  0.19059000  1
  F  F296  1  0.39750000  0.81850000  0.18850000  1
  F  F297  1  0.60250000  0.31850000  0.68850000  1
  F  F298  1  0.44500000  0.75320000  0.12180000  1
  F  F299  1  0.55500000  0.25320000  0.62180000  1
  F  F300  1  0.48270000  0.42800000  0.65770000  1
  F  F301  1  0.51730000  0.92800000  0.15770000  1
  F  F302  1  0.46230000  0.86890000  0.08740000  1
  F  F303  1  0.53770000  0.36890000  0.58740000  1
  F  F304  1  0.28610000  0.41994000  0.59764000  1
  F  F305  1  0.71390000  0.91994000  0.09764000  1
  F  F306  1  0.16660000  0.98360000  0.09530000  1
  F  F307  1  0.83340000  0.48360000  0.59530000  1
  F  F308  1  0.04200000  0.39207000  0.48747000  1
  F  F309  1  0.95800000  0.89207000  0.98747000  1
  F  F310  1  0.38580000  0.04670000  0.12010000  1
  F  F311  1  0.61420000  0.54670000  0.62010000  1
  F  F312  1  0.16850000  0.86688000  0.93318000  1
  F  F313  1  0.83150000  0.36688000  0.43318000  1
  F  F314  1  0.10420000  0.53366000  0.54556000  1
  F  F315  1  0.89580000  0.03366000  0.04556000  1
  F  F316  1  0.30790000  0.03420000  0.04130000  1
  F  F317  1  0.69210000  0.53420000  0.54130000  1
