# generated using pymatgen
data_CoH18(C10N3)2
_symmetry_space_group_name_H-M   'P 1'
_cell_length_a   15.16400000
_cell_length_b   16.99200000
_cell_length_c   17.48900000
_cell_angle_alpha   90.00000000
_cell_angle_beta   90.00000000
_cell_angle_gamma   90.00000000
_symmetry_Int_Tables_number   1
_chemical_formula_structural   CoH18(C10N3)2
_chemical_formula_sum   'Co8 H144 C160 N48'
_cell_volume   4506.33270643
_cell_formula_units_Z   8
loop_
 _symmetry_equiv_pos_site_id
 _symmetry_equiv_pos_as_xyz
  1  'x, y, z'
loop_
 _atom_site_type_symbol
 _atom_site_label
 _atom_site_symmetry_multiplicity
 _atom_site_fract_x
 _atom_site_fract_y
 _atom_site_fract_z
 _atom_site_occupancy
  Co  Co0  1  0.01304000  0.18284000  0.45184000  1
  Co  Co1  1  0.01304000  0.68284000  0.04816000  1
  Co  Co2  1  0.48696000  0.18284000  0.95184000  1
  Co  Co3  1  0.48696000  0.68284000  0.54816000  1
  Co  Co4  1  0.51304000  0.31716000  0.45184000  1
  Co  Co5  1  0.51304000  0.81716000  0.04816000  1
  Co  Co6  1  0.98696000  0.31716000  0.95184000  1
  Co  Co7  1  0.98696000  0.81716000  0.54816000  1
  H  H8  1  0.02480000  0.31010000  0.58840000  1
  H  H9  1  0.02480000  0.81010000  0.91160000  1
  H  H10  1  0.04840000  0.28380000  0.31270000  1
  H  H11  1  0.04840000  0.78380000  0.18730000  1
  H  H12  1  0.05010000  0.13860000  0.62660000  1
  H  H13  1  0.05010000  0.63860000  0.87340000  1
  H  H14  1  0.05200000  0.14940000  0.19310000  1
  H  H15  1  0.05200000  0.64940000  0.30690000  1
  H  H16  1  0.09910000  0.17240000  0.91930000  1
  H  H17  1  0.09910000  0.67240000  0.58070000  1
  H  H18  1  0.10210000  0.37420000  0.81470000  1
  H  H19  1  0.10210000  0.87420000  0.68530000  1
  H  H20  1  0.11270000  0.39840000  0.27390000  1
  H  H21  1  0.11270000  0.89840000  0.22610000  1
  H  H22  1  0.14480000  0.06140000  0.69580000  1
  H  H23  1  0.14480000  0.56140000  0.80420000  1
  H  H24  1  0.15180000  0.30330000  0.51540000  1
  H  H25  1  0.15180000  0.80330000  0.98460000  1
  H  H26  1  0.16450000  0.32890000  0.02570000  1
  H  H27  1  0.16450000  0.82890000  0.47430000  1
  H  H28  1  0.17700000  0.15300000  0.26100000  1
  H  H29  1  0.17700000  0.65300000  0.23900000  1
  H  H30  1  0.19810000  0.05110000  0.01100000  1
  H  H31  1  0.19810000  0.55110000  0.48900000  1
  H  H32  1  0.20110000  0.12740000  0.44740000  1
  H  H33  1  0.20110000  0.62740000  0.05260000  1
  H  H34  1  0.20200000  0.00300000  0.20140000  1
  H  H35  1  0.20200000  0.50300000  0.29860000  1
  H  H36  1  0.20520000  0.12380000  0.84040000  1
  H  H37  1  0.20520000  0.62380000  0.65960000  1
  H  H38  1  0.21190000  0.33410000  0.73450000  1
  H  H39  1  0.21190000  0.83410000  0.76550000  1
  H  H40  1  0.22050000  0.41920000  0.48330000  1
  H  H41  1  0.22050000  0.91920000  0.01670000  1
  H  H42  1  0.24740000  0.29530000  0.12880000  1
  H  H43  1  0.24740000  0.79530000  0.37120000  1
  H  H44  1  0.25260000  0.29530000  0.62880000  1
  H  H45  1  0.25260000  0.79530000  0.87120000  1
  H  H46  1  0.27950000  0.41920000  0.98330000  1
  H  H47  1  0.27950000  0.91920000  0.51670000  1
  H  H48  1  0.28810000  0.33410000  0.23450000  1
  H  H49  1  0.28810000  0.83410000  0.26550000  1
  H  H50  1  0.29480000  0.12380000  0.34040000  1
  H  H51  1  0.29480000  0.62380000  0.15960000  1
  H  H52  1  0.29800000  0.00300000  0.70140000  1
  H  H53  1  0.29800000  0.50300000  0.79860000  1
  H  H54  1  0.29890000  0.12740000  0.94740000  1
  H  H55  1  0.29890000  0.62740000  0.55260000  1
  H  H56  1  0.30190000  0.05110000  0.51100000  1
  H  H57  1  0.30190000  0.55110000  0.98900000  1
  H  H58  1  0.32300000  0.15300000  0.76100000  1
  H  H59  1  0.32300000  0.65300000  0.73900000  1
  H  H60  1  0.33550000  0.32890000  0.52570000  1
  H  H61  1  0.33550000  0.82890000  0.97430000  1
  H  H62  1  0.34820000  0.30330000  0.01540000  1
  H  H63  1  0.34820000  0.80330000  0.48460000  1
  H  H64  1  0.35520000  0.06140000  0.19580000  1
  H  H65  1  0.35520000  0.56140000  0.30420000  1
  H  H66  1  0.38730000  0.39840000  0.77390000  1
  H  H67  1  0.38730000  0.89840000  0.72610000  1
  H  H68  1  0.39790000  0.37420000  0.31470000  1
  H  H69  1  0.39790000  0.87420000  0.18530000  1
  H  H70  1  0.40090000  0.17240000  0.41930000  1
  H  H71  1  0.40090000  0.67240000  0.08070000  1
  H  H72  1  0.44800000  0.14940000  0.69310000  1
  H  H73  1  0.44800000  0.64940000  0.80690000  1
  H  H74  1  0.44990000  0.13860000  0.12660000  1
  H  H75  1  0.44990000  0.63860000  0.37340000  1
  H  H76  1  0.45160000  0.28380000  0.81270000  1
  H  H77  1  0.45160000  0.78380000  0.68730000  1
  H  H78  1  0.47520000  0.31010000  0.08840000  1
  H  H79  1  0.47520000  0.81010000  0.41160000  1
  H  H80  1  0.52480000  0.18990000  0.58840000  1
  H  H81  1  0.52480000  0.68990000  0.91160000  1
  H  H82  1  0.54840000  0.21620000  0.31270000  1
  H  H83  1  0.54840000  0.71620000  0.18730000  1
  H  H84  1  0.55010000  0.36140000  0.62660000  1
  H  H85  1  0.55010000  0.86140000  0.87340000  1
  H  H86  1  0.55200000  0.35060000  0.19310000  1
  H  H87  1  0.55200000  0.85060000  0.30690000  1
  H  H88  1  0.59910000  0.32760000  0.91930000  1
  H  H89  1  0.59910000  0.82760000  0.58070000  1
  H  H90  1  0.60210000  0.12580000  0.81470000  1
  H  H91  1  0.60210000  0.62580000  0.68530000  1
  H  H92  1  0.61270000  0.10160000  0.27390000  1
  H  H93  1  0.61270000  0.60160000  0.22610000  1
  H  H94  1  0.64480000  0.43860000  0.69580000  1
  H  H95  1  0.64480000  0.93860000  0.80420000  1
  H  H96  1  0.65180000  0.19670000  0.51540000  1
  H  H97  1  0.65180000  0.69670000  0.98460000  1
  H  H98  1  0.66450000  0.17110000  0.02570000  1
  H  H99  1  0.66450000  0.67110000  0.47430000  1
  H  H100  1  0.67700000  0.34700000  0.26100000  1
  H  H101  1  0.67700000  0.84700000  0.23900000  1
  H  H102  1  0.69810000  0.44890000  0.01100000  1
  H  H103  1  0.69810000  0.94890000  0.48900000  1
  H  H104  1  0.70110000  0.37260000  0.44740000  1
  H  H105  1  0.70110000  0.87260000  0.05260000  1
  H  H106  1  0.70200000  0.49700000  0.20140000  1
  H  H107  1  0.70200000  0.99700000  0.29860000  1
  H  H108  1  0.70520000  0.37620000  0.84040000  1
  H  H109  1  0.70520000  0.87620000  0.65960000  1
  H  H110  1  0.71190000  0.16590000  0.73450000  1
  H  H111  1  0.71190000  0.66590000  0.76550000  1
  H  H112  1  0.72050000  0.08080000  0.48330000  1
  H  H113  1  0.72050000  0.58080000  0.01670000  1
  H  H114  1  0.74740000  0.20470000  0.12880000  1
  H  H115  1  0.74740000  0.70470000  0.37120000  1
  H  H116  1  0.75260000  0.20470000  0.62880000  1
  H  H117  1  0.75260000  0.70470000  0.87120000  1
  H  H118  1  0.77950000  0.08080000  0.98330000  1
  H  H119  1  0.77950000  0.58080000  0.51670000  1
  H  H120  1  0.78810000  0.16590000  0.23450000  1
  H  H121  1  0.78810000  0.66590000  0.26550000  1
  H  H122  1  0.79480000  0.37620000  0.34040000  1
  H  H123  1  0.79480000  0.87620000  0.15960000  1
  H  H124  1  0.79800000  0.49700000  0.70140000  1
  H  H125  1  0.79800000  0.99700000  0.79860000  1
  H  H126  1  0.79890000  0.37260000  0.94740000  1
  H  H127  1  0.79890000  0.87260000  0.55260000  1
  H  H128  1  0.80190000  0.44890000  0.51100000  1
  H  H129  1  0.80190000  0.94890000  0.98900000  1
  H  H130  1  0.82300000  0.34700000  0.76100000  1
  H  H131  1  0.82300000  0.84700000  0.73900000  1
  H  H132  1  0.83550000  0.17110000  0.52570000  1
  H  H133  1  0.83550000  0.67110000  0.97430000  1
  H  H134  1  0.84820000  0.19670000  0.01540000  1
  H  H135  1  0.84820000  0.69670000  0.48460000  1
  H  H136  1  0.85520000  0.43860000  0.19580000  1
  H  H137  1  0.85520000  0.93860000  0.30420000  1
  H  H138  1  0.88730000  0.10160000  0.77390000  1
  H  H139  1  0.88730000  0.60160000  0.72610000  1
  H  H140  1  0.89790000  0.12580000  0.31470000  1
  H  H141  1  0.89790000  0.62580000  0.18530000  1
  H  H142  1  0.90090000  0.32760000  0.41930000  1
  H  H143  1  0.90090000  0.82760000  0.08070000  1
  H  H144  1  0.94800000  0.35060000  0.69310000  1
  H  H145  1  0.94800000  0.85060000  0.80690000  1
  H  H146  1  0.94990000  0.36140000  0.12660000  1
  H  H147  1  0.94990000  0.86140000  0.37340000  1
  H  H148  1  0.95160000  0.21620000  0.81270000  1
  H  H149  1  0.95160000  0.71620000  0.68730000  1
  H  H150  1  0.97520000  0.18990000  0.08840000  1
  H  H151  1  0.97520000  0.68990000  0.41160000  1
  C  C152  1  0.03050000  0.21190000  0.09710000  1
  C  C153  1  0.03050000  0.71190000  0.40290000  1
  C  C154  1  0.07600000  0.18710000  0.16070000  1
  C  C155  1  0.07600000  0.68710000  0.33930000  1
  C  C156  1  0.08220000  0.31180000  0.34780000  1
  C  C157  1  0.08220000  0.81180000  0.15220000  1
  C  C158  1  0.10080000  0.11980000  0.60280000  1
  C  C159  1  0.10080000  0.61980000  0.89720000  1
  C  C160  1  0.12090000  0.38080000  0.32380000  1
  C  C161  1  0.12090000  0.88080000  0.17620000  1
  C  C162  1  0.12200000  0.20520000  0.88160000  1
  C  C163  1  0.12200000  0.70520000  0.61840000  1
  C  C164  1  0.12430000  0.32360000  0.82060000  1
  C  C165  1  0.12430000  0.82360000  0.67940000  1
  C  C166  1  0.14090000  0.29330000  0.06050000  1
  C  C167  1  0.14090000  0.79330000  0.43950000  1
  C  C168  1  0.14300000  0.32340000  0.46650000  1
  C  C169  1  0.14300000  0.82340000  0.03350000  1
  C  C170  1  0.15700000  0.07300000  0.64490000  1
  C  C171  1  0.15700000  0.57300000  0.85510000  1
  C  C172  1  0.15950000  0.21960000  0.17580000  1
  C  C173  1  0.15950000  0.71960000  0.32420000  1
  C  C174  1  0.17290000  0.42460000  0.37460000  1
  C  C175  1  0.17290000  0.92460000  0.12540000  1
  C  C176  1  0.18500000  0.39350000  0.44780000  1
  C  C177  1  0.18500000  0.89350000  0.05220000  1
  C  C178  1  0.18660000  0.17570000  0.83500000  1
  C  C179  1  0.18660000  0.67570000  0.66500000  1
  C  C180  1  0.18950000  0.11340000  0.49780000  1
  C  C181  1  0.18950000  0.61340000  0.00220000  1
  C  C182  1  0.19050000  0.30000000  0.77170000  1
  C  C183  1  0.19050000  0.80000000  0.72830000  1
  C  C184  1  0.19170000  0.27320000  0.12250000  1
  C  C185  1  0.19170000  0.77320000  0.37750000  1
  C  C186  1  0.22470000  0.22430000  0.77880000  1
  C  C187  1  0.22470000  0.72430000  0.72120000  1
  C  C188  1  0.23200000  0.04340000  0.60990000  1
  C  C189  1  0.23200000  0.54340000  0.89010000  1
  C  C190  1  0.24990000  0.06670000  0.03520000  1
  C  C191  1  0.24990000  0.56670000  0.46480000  1
  C  C192  1  0.25010000  0.06670000  0.53520000  1
  C  C193  1  0.25010000  0.56670000  0.96480000  1
  C  C194  1  0.26800000  0.04340000  0.10990000  1
  C  C195  1  0.26800000  0.54340000  0.39010000  1
  C  C196  1  0.27530000  0.22430000  0.27880000  1
  C  C197  1  0.27530000  0.72430000  0.22120000  1
  C  C198  1  0.30830000  0.27320000  0.62250000  1
  C  C199  1  0.30830000  0.77320000  0.87750000  1
  C  C200  1  0.30950000  0.30000000  0.27170000  1
  C  C201  1  0.30950000  0.80000000  0.22830000  1
  C  C202  1  0.31050000  0.11340000  0.99780000  1
  C  C203  1  0.31050000  0.61340000  0.50220000  1
  C  C204  1  0.31340000  0.17570000  0.33500000  1
  C  C205  1  0.31340000  0.67570000  0.16500000  1
  C  C206  1  0.31500000  0.39350000  0.94780000  1
  C  C207  1  0.31500000  0.89350000  0.55220000  1
  C  C208  1  0.32710000  0.42460000  0.87460000  1
  C  C209  1  0.32710000  0.92460000  0.62540000  1
  C  C210  1  0.34050000  0.21960000  0.67580000  1
  C  C211  1  0.34050000  0.71960000  0.82420000  1
  C  C212  1  0.34300000  0.07300000  0.14490000  1
  C  C213  1  0.34300000  0.57300000  0.35510000  1
  C  C214  1  0.35700000  0.32340000  0.96650000  1
  C  C215  1  0.35700000  0.82340000  0.53350000  1
  C  C216  1  0.35910000  0.29330000  0.56050000  1
  C  C217  1  0.35910000  0.79330000  0.93950000  1
  C  C218  1  0.37570000  0.32360000  0.32060000  1
  C  C219  1  0.37570000  0.82360000  0.17940000  1
  C  C220  1  0.37800000  0.20520000  0.38160000  1
  C  C221  1  0.37800000  0.70520000  0.11840000  1
  C  C222  1  0.37910000  0.38080000  0.82380000  1
  C  C223  1  0.37910000  0.88080000  0.67620000  1
  C  C224  1  0.39920000  0.11980000  0.10280000  1
  C  C225  1  0.39920000  0.61980000  0.39720000  1
  C  C226  1  0.41780000  0.31180000  0.84780000  1
  C  C227  1  0.41780000  0.81180000  0.65220000  1
  C  C228  1  0.42400000  0.18710000  0.66070000  1
  C  C229  1  0.42400000  0.68710000  0.83930000  1
  C  C230  1  0.46950000  0.21190000  0.59710000  1
  C  C231  1  0.46950000  0.71190000  0.90290000  1
  C  C232  1  0.53050000  0.28810000  0.09710000  1
  C  C233  1  0.53050000  0.78810000  0.40290000  1
  C  C234  1  0.57600000  0.31290000  0.16070000  1
  C  C235  1  0.57600000  0.81290000  0.33930000  1
  C  C236  1  0.58220000  0.18820000  0.34780000  1
  C  C237  1  0.58220000  0.68820000  0.15220000  1
  C  C238  1  0.60080000  0.38020000  0.60280000  1
  C  C239  1  0.60080000  0.88020000  0.89720000  1
  C  C240  1  0.62090000  0.11920000  0.32380000  1
  C  C241  1  0.62090000  0.61920000  0.17620000  1
  C  C242  1  0.62200000  0.29480000  0.88160000  1
  C  C243  1  0.62200000  0.79480000  0.61840000  1
  C  C244  1  0.62430000  0.17640000  0.82060000  1
  C  C245  1  0.62430000  0.67640000  0.67940000  1
  C  C246  1  0.64090000  0.20670000  0.06050000  1
  C  C247  1  0.64090000  0.70670000  0.43950000  1
  C  C248  1  0.64300000  0.17660000  0.46650000  1
  C  C249  1  0.64300000  0.67660000  0.03350000  1
  C  C250  1  0.65700000  0.42700000  0.64490000  1
  C  C251  1  0.65700000  0.92700000  0.85510000  1
  C  C252  1  0.65950000  0.28040000  0.17580000  1
  C  C253  1  0.65950000  0.78040000  0.32420000  1
  C  C254  1  0.67290000  0.07540000  0.37460000  1
  C  C255  1  0.67290000  0.57540000  0.12540000  1
  C  C256  1  0.68500000  0.10650000  0.44780000  1
  C  C257  1  0.68500000  0.60650000  0.05220000  1
  C  C258  1  0.68660000  0.32430000  0.83500000  1
  C  C259  1  0.68660000  0.82430000  0.66500000  1
  C  C260  1  0.68950000  0.38660000  0.49780000  1
  C  C261  1  0.68950000  0.88660000  0.00220000  1
  C  C262  1  0.69050000  0.20000000  0.77170000  1
  C  C263  1  0.69050000  0.70000000  0.72830000  1
  C  C264  1  0.69170000  0.22680000  0.12250000  1
  C  C265  1  0.69170000  0.72680000  0.37750000  1
  C  C266  1  0.72470000  0.27570000  0.77880000  1
  C  C267  1  0.72470000  0.77570000  0.72120000  1
  C  C268  1  0.73200000  0.45660000  0.60990000  1
  C  C269  1  0.73200000  0.95660000  0.89010000  1
  C  C270  1  0.74990000  0.43330000  0.03520000  1
  C  C271  1  0.74990000  0.93330000  0.46480000  1
  C  C272  1  0.75010000  0.43330000  0.53520000  1
  C  C273  1  0.75010000  0.93330000  0.96480000  1
  C  C274  1  0.76800000  0.45660000  0.10990000  1
  C  C275  1  0.76800000  0.95660000  0.39010000  1
  C  C276  1  0.77530000  0.27570000  0.27880000  1
  C  C277  1  0.77530000  0.77570000  0.22120000  1
  C  C278  1  0.80830000  0.22680000  0.62250000  1
  C  C279  1  0.80830000  0.72680000  0.87750000  1
  C  C280  1  0.80950000  0.20000000  0.27170000  1
  C  C281  1  0.80950000  0.70000000  0.22830000  1
  C  C282  1  0.81050000  0.38660000  0.99780000  1
  C  C283  1  0.81050000  0.88660000  0.50220000  1
  C  C284  1  0.81340000  0.32430000  0.33500000  1
  C  C285  1  0.81340000  0.82430000  0.16500000  1
  C  C286  1  0.81500000  0.10650000  0.94780000  1
  C  C287  1  0.81500000  0.60650000  0.55220000  1
  C  C288  1  0.82710000  0.07540000  0.87460000  1
  C  C289  1  0.82710000  0.57540000  0.62540000  1
  C  C290  1  0.84050000  0.28040000  0.67580000  1
  C  C291  1  0.84050000  0.78040000  0.82420000  1
  C  C292  1  0.84300000  0.42700000  0.14490000  1
  C  C293  1  0.84300000  0.92700000  0.35510000  1
  C  C294  1  0.85700000  0.17660000  0.96650000  1
  C  C295  1  0.85700000  0.67660000  0.53350000  1
  C  C296  1  0.85910000  0.20670000  0.56050000  1
  C  C297  1  0.85910000  0.70670000  0.93950000  1
  C  C298  1  0.87570000  0.17640000  0.32060000  1
  C  C299  1  0.87570000  0.67640000  0.17940000  1
  C  C300  1  0.87800000  0.29480000  0.38160000  1
  C  C301  1  0.87800000  0.79480000  0.11840000  1
  C  C302  1  0.87910000  0.11920000  0.82380000  1
  C  C303  1  0.87910000  0.61920000  0.67620000  1
  C  C304  1  0.89920000  0.38020000  0.10280000  1
  C  C305  1  0.89920000  0.88020000  0.39720000  1
  C  C306  1  0.91780000  0.18820000  0.84780000  1
  C  C307  1  0.91780000  0.68820000  0.65220000  1
  C  C308  1  0.92400000  0.31290000  0.66070000  1
  C  C309  1  0.92400000  0.81290000  0.83930000  1
  C  C310  1  0.96950000  0.28810000  0.59710000  1
  C  C311  1  0.96950000  0.78810000  0.90290000  1
  N  N312  1  0.05960000  0.26540000  0.04650000  1
  N  N313  1  0.05960000  0.76540000  0.45350000  1
  N  N314  1  0.08970000  0.27860000  0.87630000  1
  N  N315  1  0.08970000  0.77860000  0.62370000  1
  N  N316  1  0.09040000  0.28253000  0.41900000  1
  N  N317  1  0.09040000  0.78253000  0.08100000  1
  N  N318  1  0.11480000  0.13990000  0.52970000  1
  N  N319  1  0.11480000  0.63990000  0.97030000  1
  N  N320  1  0.20460000  0.19340000  0.23960000  1
  N  N321  1  0.20460000  0.69340000  0.26040000  1
  N  N322  1  0.21210000  0.49240000  0.34840000  1
  N  N323  1  0.21210000  0.99240000  0.15160000  1
  N  N324  1  0.28790000  0.49240000  0.84840000  1
  N  N325  1  0.28790000  0.99240000  0.65160000  1
  N  N326  1  0.29540000  0.19340000  0.73960000  1
  N  N327  1  0.29540000  0.69340000  0.76040000  1
  N  N328  1  0.38520000  0.13990000  0.02970000  1
  N  N329  1  0.38520000  0.63990000  0.47030000  1
  N  N330  1  0.40960000  0.28253000  0.91900000  1
  N  N331  1  0.40960000  0.78253000  0.58100000  1
  N  N332  1  0.41030000  0.27860000  0.37630000  1
  N  N333  1  0.41030000  0.77860000  0.12370000  1
  N  N334  1  0.44040000  0.26540000  0.54650000  1
  N  N335  1  0.44040000  0.76540000  0.95350000  1
  N  N336  1  0.55960000  0.23460000  0.04650000  1
  N  N337  1  0.55960000  0.73460000  0.45350000  1
  N  N338  1  0.58970000  0.22140000  0.87630000  1
  N  N339  1  0.58970000  0.72140000  0.62370000  1
  N  N340  1  0.59040000  0.21747000  0.41900000  1
  N  N341  1  0.59040000  0.71747000  0.08100000  1
  N  N342  1  0.61480000  0.36010000  0.52970000  1
  N  N343  1  0.61480000  0.86010000  0.97030000  1
  N  N344  1  0.70460000  0.30660000  0.23960000  1
  N  N345  1  0.70460000  0.80660000  0.26040000  1
  N  N346  1  0.71210000  0.00760000  0.34840000  1
  N  N347  1  0.71210000  0.50760000  0.15160000  1
  N  N348  1  0.78790000  0.00760000  0.84840000  1
  N  N349  1  0.78790000  0.50760000  0.65160000  1
  N  N350  1  0.79540000  0.30660000  0.73960000  1
  N  N351  1  0.79540000  0.80660000  0.76040000  1
  N  N352  1  0.88520000  0.36010000  0.02970000  1
  N  N353  1  0.88520000  0.86010000  0.47030000  1
  N  N354  1  0.90960000  0.21747000  0.91900000  1
  N  N355  1  0.90960000  0.71747000  0.58100000  1
  N  N356  1  0.91030000  0.22140000  0.37630000  1
  N  N357  1  0.91030000  0.72140000  0.12370000  1
  N  N358  1  0.94040000  0.23460000  0.54650000  1
  N  N359  1  0.94040000  0.73460000  0.95350000  1
