# generated using pymatgen
data_Li2H8C15NO4
_symmetry_space_group_name_H-M   'P 1'
_cell_length_a   12.91500000
_cell_length_b   21.26420000
_cell_length_c   21.26420698
_cell_angle_alpha   84.74141168
_cell_angle_beta   72.32124099
_cell_angle_gamma   72.32130000
_symmetry_Int_Tables_number   1
_chemical_formula_structural   Li2H8C15NO4
_chemical_formula_sum   'Li16 H64 C120 N8 O32'
_cell_volume   5301.18082495
_cell_formula_units_Z   8
loop_
 _symmetry_equiv_pos_site_id
 _symmetry_equiv_pos_as_xyz
  1  'x, y, z'
loop_
 _atom_site_type_symbol
 _atom_site_label
 _atom_site_symmetry_multiplicity
 _atom_site_fract_x
 _atom_site_fract_y
 _atom_site_fract_z
 _atom_site_occupancy
  Li  Li0  1  0.95930000  0.69410000  0.99050000  1
  Li  Li1  1  0.43420000  0.95557000  0.47783000  1
  Li  Li2  1  0.93420000  0.47783000  0.95557000  1
  Li  Li3  1  0.22050000  0.95085000  0.51755000  1
  Li  Li4  1  0.72050000  0.51755000  0.95085000  1
  Li  Li5  1  0.64390000  0.30590000  0.00950000  1
  Li  Li6  1  0.58075000  0.43825000  0.00405000  1
  Li  Li7  1  0.08075000  0.00405000  0.43825000  1
  Li  Li8  1  0.14390000  0.00950000  0.30590000  1
  Li  Li9  1  0.36760000  0.52217000  0.04443000  1
  Li  Li10  1  0.86760000  0.04443000  0.52217000  1
  Li  Li11  1  0.18890000  0.48245000  0.04915000  1
  Li  Li12  1  0.68890000  0.04915000  0.48245000  1
  Li  Li13  1  0.45930000  0.99050000  0.69410000  1
  Li  Li14  1  0.52305000  0.99595000  0.56175000  1
  Li  Li15  1  0.02305000  0.56175000  0.99595000  1
  H  H16  1  0.62020000  0.25590000  0.34710000  1
  H  H17  1  0.63990000  0.76320000  0.31880000  1
  H  H18  1  0.28740000  0.10940000  0.65100000  1
  H  H19  1  0.13990000  0.31880000  0.76320000  1
  H  H20  1  0.78740000  0.65100000  0.10940000  1
  H  H21  1  0.50290000  0.84720000  0.38980000  1
  H  H22  1  0.48470000  0.19620000  0.39620000  1
  H  H23  1  0.22320000  0.74410000  0.65290000  1
  H  H24  1  0.27510000  0.82910000  0.58870000  1
  H  H25  1  0.78870000  0.44000000  0.07200000  1
  H  H26  1  0.00290000  0.38980000  0.84720000  1
  H  H27  1  0.68270000  0.37230000  0.13310000  1
  H  H28  1  0.24390000  0.06460000  0.57080000  1
  H  H29  1  0.74390000  0.57080000  0.06460000  1
  H  H30  1  0.97590000  0.17980000  0.82800000  1
  H  H31  1  0.88730000  0.73160000  0.87460000  1
  H  H32  1  0.83640000  0.25190000  0.90970000  1
  H  H33  1  0.28870000  0.07200000  0.44000000  1
  H  H34  1  0.38900000  0.25040000  0.31940000  1
  H  H35  1  0.07710000  0.80380000  0.60380000  1
  H  H36  1  0.45780000  0.71500000  0.22060000  1
  H  H37  1  0.95780000  0.22060000  0.71500000  1
  H  H38  1  0.47590000  0.82800000  0.17980000  1
  H  H39  1  0.95880000  0.74960000  0.68060000  1
  H  H40  1  0.41790000  0.20500000  0.21360000  1
  H  H41  1  0.83650000  0.79500000  0.78640000  1
  H  H42  1  0.49350000  0.26840000  0.12540000  1
  H  H43  1  0.77510000  0.58870000  0.82910000  1
  H  H44  1  0.33640000  0.90970000  0.25190000  1
  H  H45  1  0.41590000  0.63820000  0.17140000  1
  H  H46  1  0.18270000  0.13310000  0.37230000  1
  H  H47  1  0.91590000  0.17140000  0.63820000  1
  H  H48  1  0.72320000  0.65290000  0.74410000  1
  H  H49  1  0.22190000  0.68120000  0.23680000  1
  H  H50  1  0.54780000  0.34900000  0.89060000  1
  H  H51  1  0.72190000  0.23680000  0.68120000  1
  H  H52  1  0.04780000  0.89060000  0.34900000  1
  H  H53  1  0.23990000  0.61020000  0.15280000  1
  H  H54  1  0.57710000  0.60380000  0.80380000  1
  H  H55  1  0.12020000  0.34710000  0.25590000  1
  H  H56  1  0.19290000  0.41130000  0.17090000  1
  H  H57  1  0.80070000  0.92800000  0.56000000  1
  H  H58  1  0.73990000  0.15280000  0.61020000  1
  H  H59  1  0.68810000  0.86690000  0.62770000  1
  H  H60  1  0.37930000  0.42920000  0.93540000  1
  H  H61  1  0.87930000  0.93540000  0.42920000  1
  H  H62  1  0.48370000  0.17200000  0.82020000  1
  H  H63  1  0.99350000  0.12540000  0.26840000  1
  H  H64  1  0.49800000  0.09030000  0.74810000  1
  H  H65  1  0.30070000  0.56000000  0.92800000  1
  H  H66  1  0.45880000  0.68060000  0.74960000  1
  H  H67  1  0.98470000  0.39620000  0.19620000  1
  H  H68  1  0.89340000  0.77940000  0.28500000  1
  H  H69  1  0.39340000  0.28500000  0.77940000  1
  H  H70  1  0.98370000  0.82020000  0.17200000  1
  H  H71  1  0.88900000  0.31940000  0.25040000  1
  H  H72  1  0.33650000  0.78640000  0.79500000  1
  H  H73  1  0.91790000  0.21360000  0.20500000  1
  H  H74  1  0.38730000  0.87460000  0.73160000  1
  H  H75  1  0.69290000  0.17090000  0.41130000  1
  H  H76  1  0.99800000  0.74810000  0.09030000  1
  H  H77  1  0.72550000  0.82860000  0.36180000  1
  H  H78  1  0.18810000  0.62770000  0.86690000  1
  H  H79  1  0.22550000  0.36180000  0.82860000  1
  C  C80  1  0.33500000  0.86247000  0.65373000  1
  C  C81  1  0.37381000  0.91483000  0.60995000  1
  C  C82  1  0.77640000  0.33769000  0.19711000  1
  C  C83  1  0.77250000  0.73590000  0.18610000  1
  C  C84  1  0.46736000  0.08812000  0.46756000  1
  C  C85  1  0.25620000  0.77086000  0.66934000  1
  C  C86  1  0.28680000  0.82159000  0.63101000  1
  C  C87  1  0.80800000  0.41670000  0.10910000  1
  C  C88  1  0.13520000  0.69370000  0.76910000  1
  C  C89  1  0.74660000  0.37523000  0.14477000  1
  C  C90  1  0.57875000  0.79225000  0.30505000  1
  C  C91  1  0.07875000  0.30505000  0.79225000  1
  C  C92  1  0.21166000  0.12264000  0.64844000  1
  C  C93  1  0.06940000  0.24380000  0.78680000  1
  C  C94  1  0.49581000  0.84209000  0.34749000  1
  C  C95  1  0.99581000  0.34749000  0.84209000  1
  C  C96  1  0.71166000  0.64844000  0.12264000  1
  C  C97  1  0.59800000  0.30630000  0.23090000  1
  C  C98  1  0.39881000  0.12794000  0.42444000  1
  C  C99  1  0.12668000  0.17002000  0.69302000  1
  C  C100  1  0.42600000  0.18163000  0.38977000  1
  C  C101  1  0.56940000  0.78680000  0.24380000  1
  C  C102  1  0.97977000  0.22323000  0.83123000  1
  C  C103  1  0.62668000  0.69302000  0.17002000  1
  C  C104  1  0.87381000  0.60995000  0.91483000  1
  C  C105  1  0.90424000  0.32929000  0.88383000  1
  C  C106  1  0.18486000  0.09554000  0.60114000  1
  C  C107  1  0.68486000  0.60114000  0.09554000  1
  C  C108  1  0.89670000  0.26590000  0.87990000  1
  C  C109  1  0.81362000  0.37937000  0.93079000  1
  C  C110  1  0.40424000  0.88383000  0.32929000  1
  C  C111  1  0.30800000  0.10910000  0.41670000  1
  C  C112  1  0.36670000  0.21504000  0.34496000  1
  C  C113  1  0.51637000  0.68663000  0.18783000  1
  C  C114  1  0.47977000  0.83123000  0.22323000  1
  C  C115  1  0.01637000  0.18783000  0.68663000  1
  C  C116  1  0.85330000  0.71519000  0.84841000  1
  C  C117  1  0.83500000  0.65373000  0.86247000  1
  C  C118  1  0.31362000  0.93079000  0.37937000  1
  C  C119  1  0.57474000  0.59599000  0.11173000  1
  C  C120  1  0.07474000  0.11173000  0.59599000  1
  C  C121  1  0.39670000  0.87990000  0.26590000  1
  C  C122  1  0.49193000  0.64037000  0.15897000  1
  C  C123  1  0.99193000  0.15897000  0.64037000  1
  C  C124  1  0.54407000  0.54633000  0.08133000  1
  C  C125  1  0.24660000  0.14477000  0.37523000  1
  C  C126  1  0.82230000  0.75329000  0.79571000  1
  C  C127  1  0.27640000  0.19711000  0.33769000  1
  C  C128  1  0.78680000  0.63101000  0.82159000  1
  C  C129  1  0.99740000  0.81837000  0.61023000  1
  C  C130  1  0.04407000  0.08133000  0.54633000  1
  C  C131  1  0.92670000  0.78496000  0.65504000  1
  C  C132  1  0.37130000  0.24671000  0.20429000  1
  C  C133  1  0.41690000  0.28481000  0.15159000  1
  C  C134  1  0.02304000  0.91188000  0.53244000  1
  C  C135  1  0.77230000  0.73118000  0.75782000  1
  C  C136  1  0.75620000  0.66934000  0.77086000  1
  C  C137  1  0.95119000  0.87206000  0.57556000  1
  C  C138  1  0.69450000  0.26410000  0.81390000  1
  C  C139  1  0.26130000  0.26882000  0.24218000  1
  C  C140  1  0.35120000  0.34627000  0.13753000  1
  C  C141  1  0.39859000  0.39005000  0.08517000  1
  C  C142  1  0.81120000  0.80289000  0.66231000  1
  C  C143  1  0.19450000  0.81390000  0.26410000  1
  C  C144  1  0.52304000  0.53244000  0.91188000  1
  C  C145  1  0.19640000  0.33066000  0.22914000  1
  C  C146  1  0.23940000  0.36899000  0.17841000  1
  C  C147  1  0.83380000  0.89090000  0.58330000  1
  C  C148  1  0.09800000  0.23090000  0.30630000  1
  C  C149  1  0.76660000  0.85523000  0.62477000  1
  C  C150  1  0.17605000  0.69495000  0.20775000  1
  C  C151  1  0.67605000  0.20775000  0.69495000  1
  C  C152  1  0.48274000  0.35156000  0.87736000  1
  C  C153  1  0.60000000  0.21320000  0.75620000  1
  C  C154  1  0.18539000  0.65251000  0.15791000  1
  C  C155  1  0.68539000  0.15791000  0.65251000  1
  C  C156  1  0.98274000  0.87736000  0.35156000  1
  C  C157  1  0.63520000  0.76910000  0.69370000  1
  C  C158  1  0.45119000  0.57556000  0.87206000  1
  C  C159  1  0.48972000  0.30698000  0.82998000  1
  C  C160  1  0.49740000  0.61023000  0.81837000  1
  C  C161  1  0.10000000  0.75620000  0.21320000  1
  C  C162  1  0.53423000  0.16877000  0.77677000  1
  C  C163  1  0.98972000  0.82998000  0.30698000  1
  C  C164  1  0.89859000  0.08517000  0.39005000  1
  C  C165  1  0.61736000  0.11617000  0.67071000  1
  C  C166  1  0.38154000  0.39886000  0.90446000  1
  C  C167  1  0.88154000  0.90446000  0.39886000  1
  C  C168  1  0.54250000  0.12010000  0.73410000  1
  C  C169  1  0.62378000  0.06921000  0.62063000  1
  C  C170  1  0.11736000  0.67071000  0.11617000  1
  C  C171  1  0.33380000  0.58330000  0.89090000  1
  C  C172  1  0.42670000  0.65504000  0.78496000  1
  C  C173  1  0.89083000  0.81217000  0.31337000  1
  C  C174  1  0.03423000  0.77677000  0.16877000  1
  C  C175  1  0.39083000  0.31337000  0.81217000  1
  C  C176  1  0.91690000  0.15159000  0.28481000  1
  C  C177  1  0.85120000  0.13753000  0.34627000  1
  C  C178  1  0.12378000  0.62063000  0.06921000  1
  C  C179  1  0.78246000  0.88827000  0.40401000  1
  C  C180  1  0.28246000  0.40401000  0.88827000  1
  C  C181  1  0.04250000  0.73410000  0.12010000  1
  C  C182  1  0.79127000  0.84103000  0.35963000  1
  C  C183  1  0.29127000  0.35963000  0.84103000  1
  C  C184  1  0.67173000  0.91867000  0.45367000  1
  C  C185  1  0.26660000  0.62477000  0.85523000  1
  C  C186  1  0.87130000  0.20429000  0.24671000  1
  C  C187  1  0.31120000  0.66231000  0.80289000  1
  C  C188  1  0.73940000  0.17841000  0.36899000  1
  C  C189  1  0.92600000  0.38977000  0.18163000  1
  C  C190  1  0.17173000  0.45367000  0.91867000  1
  C  C191  1  0.86670000  0.34496000  0.21504000  1
  C  C192  1  0.32230000  0.79571000  0.75329000  1
  C  C193  1  0.35330000  0.84841000  0.71519000  1
  C  C194  1  0.96736000  0.46756000  0.08812000  1
  C  C195  1  0.76130000  0.24218000  0.26882000  1
  C  C196  1  0.69640000  0.22914000  0.33066000  1
  C  C197  1  0.89881000  0.42444000  0.12794000  1
  C  C198  1  0.27250000  0.18610000  0.73590000  1
  C  C199  1  0.27230000  0.75782000  0.73118000  1
  N  N200  1  0.71400000  0.29448000  0.23132000  1
  N  N201  1  0.15453000  0.19707000  0.74027000  1
  N  N202  1  0.65453000  0.74027000  0.19707000  1
  N  N203  1  0.21400000  0.23132000  0.29448000  1
  N  N204  1  0.73980000  0.76868000  0.70552000  1
  N  N205  1  0.59187000  0.25973000  0.80293000  1
  N  N206  1  0.09187000  0.80293000  0.25973000  1
  N  N207  1  0.23980000  0.70552000  0.76868000  1
  O  O208  1  0.08693000  0.45470000  0.90104000  1
  O  O209  1  0.93830000  0.49849000  0.04015000  1
  O  O210  1  0.43830000  0.04015000  0.49849000  1
  O  O211  1  0.33805000  0.93067000  0.56023000  1
  O  O212  1  0.94015000  0.62421000  0.94029000  1
  O  O213  1  0.83495000  0.43116000  0.94074000  1
  O  O214  1  0.83805000  0.56023000  0.93067000  1
  O  O215  1  0.33495000  0.94074000  0.43116000  1
  O  O216  1  0.71873000  0.36898000  0.95776000  1
  O  O217  1  0.62447000  0.50823000  0.03783000  1
  O  O218  1  0.12801000  0.89323000  0.52875000  1
  O  O219  1  0.12447000  0.03783000  0.50823000  1
  O  O220  1  0.21873000  0.95776000  0.36898000  1
  O  O221  1  0.50465000  0.37579000  0.05971000  1
  O  O222  1  0.44267000  0.54530000  0.09896000  1
  O  O223  1  0.62801000  0.52875000  0.89323000  1
  O  O224  1  0.94267000  0.09896000  0.54530000  1
  O  O225  1  0.97694000  0.95985000  0.50151000  1
  O  O226  1  0.47694000  0.50151000  0.95985000  1
  O  O227  1  0.32895000  0.43977000  0.06933000  1
  O  O228  1  0.00465000  0.05971000  0.37579000  1
  O  O229  1  0.70685000  0.05926000  0.56884000  1
  O  O230  1  0.82895000  0.06933000  0.43977000  1
  O  O231  1  0.20685000  0.56884000  0.05926000  1
  O  O232  1  0.54547000  0.04224000  0.63102000  1
  O  O233  1  0.67053000  0.96217000  0.49177000  1
  O  O234  1  0.04999000  0.47125000  0.10677000  1
  O  O235  1  0.17053000  0.49177000  0.96217000  1
  O  O236  1  0.04547000  0.63102000  0.04224000  1
  O  O237  1  0.44015000  0.94029000  0.62421000  1
  O  O238  1  0.58693000  0.90104000  0.45470000  1
  O  O239  1  0.54999000  0.10677000  0.47125000  1
