# generated using pymatgen
data_CuH6C10(NO)4
_symmetry_space_group_name_H-M   'P 1'
_cell_length_a   7.77190000
_cell_length_b   12.66130000
_cell_length_c   12.66125531
_cell_angle_alpha   115.92536567
_cell_angle_beta   101.80641735
_cell_angle_gamma   101.80700000
_symmetry_Int_Tables_number   1
_chemical_formula_structural   CuH6C10(NO)4
_chemical_formula_sum   'Cu3 H18 C30 N12 O12'
_cell_volume   1033.80800022
_cell_formula_units_Z   3
loop_
 _symmetry_equiv_pos_site_id
 _symmetry_equiv_pos_as_xyz
  1  'x, y, z'
loop_
 _atom_site_type_symbol
 _atom_site_label
 _atom_site_symmetry_multiplicity
 _atom_site_fract_x
 _atom_site_fract_y
 _atom_site_fract_z
 _atom_site_occupancy
  Cu  Cu0  1  0.50000000  0.00000000  0.50000000  1
  Cu  Cu1  1  0.00000000  0.50000000  0.50000000  1
  Cu  Cu2  1  0.50000000  0.50000000  0.00000000  1
  H  H3  1  0.46800000  0.38500000  0.39300000  1
  H  H4  1  0.07500000  0.60700000  0.99200000  1
  H  H5  1  0.76000000  0.48200000  0.64000000  1
  H  H6  1  0.72200000  0.84200000  0.48200000  1
  H  H7  1  0.12000000  0.36000000  0.84200000  1
  H  H8  1  0.43900000  0.74000000  0.15700000  1
  H  H9  1  0.71800000  0.15700000  0.41700000  1
  H  H10  1  0.69900000  0.41700000  0.26000000  1
  H  H11  1  0.08300000  0.00800000  0.61500000  1
  H  H12  1  0.91700000  0.99200000  0.38500000  1
  H  H13  1  0.30100000  0.58300000  0.74000000  1
  H  H14  1  0.28200000  0.84300000  0.58300000  1
  H  H15  1  0.56100000  0.26000000  0.84300000  1
  H  H16  1  0.88000000  0.64000000  0.15800000  1
  H  H17  1  0.27800000  0.15800000  0.51800000  1
  H  H18  1  0.24000000  0.51800000  0.36000000  1
  H  H19  1  0.92500000  0.39300000  0.00800000  1
  H  H20  1  0.53200000  0.61500000  0.60700000  1
  C  C21  1  0.47228000  0.32374000  0.41340000  1
  C  C22  1  0.88288000  0.54030000  0.82254000  1
  C  C23  1  0.65742000  0.71776000  0.54030000  1
  C  C24  1  0.64030000  0.81174000  0.51646000  1
  C  C25  1  0.29816000  0.48242000  0.15186000  1
  C  C26  1  0.05888000  0.58660000  0.91034000  1
  C  C27  1  0.87616000  0.51646000  0.70472000  1
  C  C28  1  0.85370000  0.15186000  0.66944000  1
  C  C29  1  0.61910000  0.18893000  0.42467000  1
  C  C30  1  0.81574000  0.66944000  0.51758000  1
  C  C31  1  0.06034000  0.17746000  0.71776000  1
  C  C32  1  0.17144000  0.29528000  0.81174000  1
  C  C33  1  0.56983000  0.76426000  0.18893000  1
  C  C34  1  0.19443000  0.57533000  0.76426000  1
  C  C35  1  0.14854000  0.08966000  0.67626000  1
  C  C36  1  0.85146000  0.91034000  0.32374000  1
  C  C37  1  0.80557000  0.42467000  0.23574000  1
  C  C38  1  0.43017000  0.23574000  0.81107000  1
  C  C39  1  0.82856000  0.70472000  0.18826000  1
  C  C40  1  0.93966000  0.82254000  0.28224000  1
  C  C41  1  0.18426000  0.33056000  0.48242000  1
  C  C42  1  0.38090000  0.81107000  0.57533000  1
  C  C43  1  0.14630000  0.84814000  0.33056000  1
  C  C44  1  0.12384000  0.48354000  0.29528000  1
  C  C45  1  0.94112000  0.41340000  0.08966000  1
  C  C46  1  0.70184000  0.51758000  0.84814000  1
  C  C47  1  0.35970000  0.18826000  0.48354000  1
  C  C48  1  0.34258000  0.28224000  0.45970000  1
  C  C49  1  0.11712000  0.45970000  0.17746000  1
  C  C50  1  0.52772000  0.67626000  0.58660000  1
  N  N51  1  0.49698000  0.14034000  0.46630000  1
  N  N52  1  0.61186000  0.27733000  0.39615000  1
  N  N53  1  0.21571000  0.60385000  0.88118000  1
  N  N54  1  0.03068000  0.53370000  0.67404000  1
  N  N55  1  0.66547000  0.88118000  0.27733000  1
  N  N56  1  0.35664000  0.32596000  0.85966000  1
  N  N57  1  0.64336000  0.67404000  0.14034000  1
  N  N58  1  0.33453000  0.11882000  0.72267000  1
  N  N59  1  0.96932000  0.46630000  0.32596000  1
  N  N60  1  0.78429000  0.39615000  0.11882000  1
  N  N61  1  0.38814000  0.72267000  0.60385000  1
  N  N62  1  0.50302000  0.85966000  0.53370000  1
  O  O63  1  0.78281000  0.22141000  0.73342000  1
  O  O64  1  0.76882000  0.05546000  0.56100000  1
  O  O65  1  0.43860000  0.48799000  0.22141000  1
  O  O66  1  0.28664000  0.49446000  0.05546000  1
  O  O67  1  0.79218000  0.56100000  0.50554000  1
  O  O68  1  0.95061000  0.73342000  0.51201000  1
  O  O69  1  0.04939000  0.26658000  0.48799000  1
  O  O70  1  0.20782000  0.43900000  0.49446000  1
  O  O71  1  0.71336000  0.50554000  0.94454000  1
  O  O72  1  0.56140000  0.51201000  0.77859000  1
  O  O73  1  0.23118000  0.94454000  0.43900000  1
  O  O74  1  0.21719000  0.77859000  0.26658000  1
