# generated using pymatgen
data_CdH9(C7O2)3
_symmetry_space_group_name_H-M   'P 1'
_cell_length_a   14.03060000
_cell_length_b   14.03060000
_cell_length_c   28.17800000
_cell_angle_alpha   90.00000000
_cell_angle_beta   90.00000000
_cell_angle_gamma   120.00000000
_symmetry_Int_Tables_number   1
_chemical_formula_structural   CdH9(C7O2)3
_chemical_formula_sum   'Cd6 H54 C126 O36'
_cell_volume   4803.89253385
_cell_formula_units_Z   6
loop_
 _symmetry_equiv_pos_site_id
 _symmetry_equiv_pos_as_xyz
  1  'x, y, z'
loop_
 _atom_site_type_symbol
 _atom_site_label
 _atom_site_symmetry_multiplicity
 _atom_site_fract_x
 _atom_site_fract_y
 _atom_site_fract_z
 _atom_site_occupancy
  Cd  Cd0  1  0.90917000  0.33907000  0.02472000  1
  Cd  Cd1  1  0.66093000  0.57010000  0.69138000  1
  Cd  Cd2  1  0.57010000  0.66093000  0.97528000  1
  Cd  Cd3  1  0.42990000  0.09083000  0.35805000  1
  Cd  Cd4  1  0.33907000  0.90917000  0.64195000  1
  Cd  Cd5  1  0.09083000  0.42990000  0.30862000  1
  H  H6  1  0.98470000  0.95020000  0.71767000  1
  H  H7  1  0.97280000  0.79090000  0.50723000  1
  H  H8  1  0.96550000  0.01530000  0.05100000  1
  H  H9  1  0.95020000  0.98470000  0.94900000  1
  H  H10  1  0.93040000  0.07020000  0.36133000  1
  H  H11  1  0.92980000  0.86020000  0.02800000  1
  H  H12  1  0.91760000  0.59540000  0.23063000  1
  H  H13  1  0.90510000  0.17270000  0.87527000  1
  H  H14  1  0.89600000  0.69320000  0.00290000  1
  H  H15  1  0.86520000  0.13900000  0.19823000  1
  H  H16  1  0.86100000  0.72620000  0.86490000  1
  H  H17  1  0.86020000  0.92980000  0.63867000  1
  H  H18  1  0.82730000  0.73240000  0.54193000  1
  H  H19  1  0.82400000  0.56920000  0.17213000  1
  H  H20  1  0.81810000  0.02720000  0.84057000  1
  H  H21  1  0.81520000  0.27370000  0.43667000  1
  H  H22  1  0.79720000  0.10400000  0.33623000  1
  H  H23  1  0.79090000  0.97280000  0.15943000  1
  H  H24  1  0.74520000  0.17600000  0.50547000  1
  H  H25  1  0.73240000  0.82730000  0.12473000  1
  H  H26  1  0.72630000  0.54150000  0.10333000  1
  H  H27  1  0.72620000  0.86100000  0.80177000  1
  H  H28  1  0.69320000  0.89600000  0.66377000  1
  H  H29  1  0.67780000  0.08240000  0.56397000  1
  H  H30  1  0.59540000  0.91760000  0.43603000  1
  H  H31  1  0.56920000  0.82400000  0.49453000  1
  H  H32  1  0.54150000  0.72630000  0.56333000  1
  H  H33  1  0.45850000  0.18480000  0.77000000  1
  H  H34  1  0.43080000  0.25480000  0.83880000  1
  H  H35  1  0.40460000  0.32220000  0.89730000  1
  H  H36  1  0.32220000  0.40460000  0.76937000  1
  H  H37  1  0.30680000  0.20280000  0.66957000  1
  H  H38  1  0.27380000  0.13480000  0.53157000  1
  H  H39  1  0.27370000  0.81520000  0.23000000  1
  H  H40  1  0.26760000  0.09490000  0.20860000  1
  H  H41  1  0.25480000  0.43080000  0.82787000  1
  H  H42  1  0.20910000  0.18190000  0.17390000  1
  H  H43  1  0.20280000  0.30680000  0.99710000  1
  H  H44  1  0.18480000  0.45850000  0.89667000  1
  H  H45  1  0.18190000  0.20910000  0.49277000  1
  H  H46  1  0.17600000  0.74520000  0.16120000  1
  H  H47  1  0.17270000  0.90510000  0.79140000  1
  H  H48  1  0.13980000  0.06960000  0.69467000  1
  H  H49  1  0.13900000  0.86520000  0.46843000  1
  H  H50  1  0.13480000  0.27380000  0.13510000  1
  H  H51  1  0.10400000  0.79720000  0.33043000  1
  H  H52  1  0.09490000  0.26760000  0.45807000  1
  H  H53  1  0.08240000  0.67780000  0.10270000  1
  H  H54  1  0.07020000  0.93040000  0.30533000  1
  H  H55  1  0.06960000  0.13980000  0.97200000  1
  H  H56  1  0.04980000  0.03450000  0.38433000  1
  H  H57  1  0.03450000  0.04980000  0.28233000  1
  H  H58  1  0.02720000  0.81810000  0.82610000  1
  H  H59  1  0.01530000  0.96550000  0.61567000  1
  C  C60  1  0.98840000  0.05910000  0.56817000  1
  C  C61  1  0.98790000  0.20760000  0.06480000  1
  C  C62  1  0.98740000  0.84000000  0.48233000  1
  C  C63  1  0.98560000  0.03360000  0.25723000  1
  C  C64  1  0.98510000  0.33290000  0.93917000  1
  C  C65  1  0.98430000  0.66980000  0.05210000  1
  C  C66  1  0.98090000  0.18050000  0.50507000  1
  C  C67  1  0.97700000  0.22330000  0.86657000  1
  C  C68  1  0.96800000  0.28390000  0.43977000  1
  C  C69  1  0.96640000  0.95200000  0.92390000  1
  C  C70  1  0.96500000  0.84470000  0.25273000  1
  C  C71  1  0.96340000  0.82610000  0.04340000  1
  C  C72  1  0.96250000  0.09520000  0.80197000  1
  C  C73  1  0.95940000  0.11130000  0.24343000  1
  C  C74  1  0.95240000  0.55200000  0.03830000  1
  C  C75  1  0.95200000  0.96640000  0.74277000  1
  C  C76  1  0.94850000  0.66390000  0.24533000  1
  C  C77  1  0.94140000  0.72540000  0.02910000  1
  C  C78  1  0.94090000  0.92930000  0.23483000  1
  C  C79  1  0.92930000  0.94090000  0.43183000  1
  C  C80  1  0.92110000  0.74500000  0.22793000  1
  C  C81  1  0.91240000  0.79750000  0.87390000  1
  C  C82  1  0.90480000  0.86730000  0.46863000  1
  C  C83  1  0.88870000  0.84810000  0.91010000  1
  C  C84  1  0.88510000  0.08760000  0.20723000  1
  C  C85  1  0.87970000  0.03500000  0.58607000  1
  C  C86  1  0.87290000  0.15270000  0.52047000  1
  C  C87  1  0.86730000  0.90480000  0.19803000  1
  C  C88  1  0.86270000  0.03660000  0.37673000  1
  C  C89  1  0.85720000  0.25250000  0.45457000  1
  C  C90  1  0.85260000  0.01260000  0.81567000  1
  C  C91  1  0.84810000  0.88870000  0.75657000  1
  C  C92  1  0.84730000  0.72020000  0.18713000  1
  C  C93  1  0.84470000  0.96500000  0.41393000  1
  C  C94  1  0.84000000  0.98740000  0.18433000  1
  C  C95  1  0.82610000  0.96340000  0.62327000  1
  C  C96  1  0.82390000  0.07890000  0.56127000  1
  C  C97  1  0.81950000  0.80040000  0.17173000  1
  C  C98  1  0.81430000  0.19160000  0.49487000  1
  C  C99  1  0.80840000  0.62270000  0.16153000  1
  C  C100  1  0.80040000  0.81950000  0.49493000  1
  C  C101  1  0.79750000  0.91240000  0.79277000  1
  C  C102  1  0.79240000  0.78030000  0.73147000  1
  C  C103  1  0.78400000  0.05860000  0.36243000  1
  C  C104  1  0.78030000  0.79240000  0.93520000  1
  C  C105  1  0.77670000  0.75370000  0.53323000  1
  C  C106  1  0.75370000  0.77670000  0.13343000  1
  C  C107  1  0.74750000  0.60470000  0.12123000  1
  C  C108  1  0.74500000  0.92110000  0.43873000  1
  C  C109  1  0.72540000  0.94140000  0.63757000  1
  C  C110  1  0.72020000  0.84730000  0.47953000  1
  C  C111  1  0.71610000  0.68410000  0.10643000  1
  C  C112  1  0.71540000  0.05150000  0.57867000  1
  C  C113  1  0.68550000  0.01570000  0.38543000  1
  C  C114  1  0.68410000  0.71610000  0.56023000  1
  C  C115  1  0.66980000  0.98430000  0.61457000  1
  C  C116  1  0.66710000  0.65220000  0.60583000  1
  C  C117  1  0.66390000  0.94850000  0.42133000  1
  C  C118  1  0.65220000  0.66710000  0.06083000  1
  C  C119  1  0.62270000  0.80840000  0.50513000  1
  C  C120  1  0.60470000  0.74750000  0.54543000  1
  C  C121  1  0.59960000  0.04760000  0.37163000  1
  C  C122  1  0.55200000  0.95240000  0.62837000  1
  C  C123  1  0.44800000  0.40040000  0.70497000  1
  C  C124  1  0.40040000  0.44800000  0.96170000  1
  C  C125  1  0.39530000  0.14280000  0.78790000  1
  C  C126  1  0.37730000  0.18570000  0.82820000  1
  C  C127  1  0.34780000  0.01490000  0.27250000  1
  C  C128  1  0.33610000  0.28460000  0.91200000  1
  C  C129  1  0.33290000  0.98510000  0.72750000  1
  C  C130  1  0.33020000  0.31450000  0.71877000  1
  C  C131  1  0.31590000  0.03200000  0.77310000  1
  C  C132  1  0.31450000  0.33020000  0.94790000  1
  C  C133  1  0.28460000  0.33610000  0.75467000  1
  C  C134  1  0.28390000  0.96800000  0.22690000  1
  C  C135  1  0.27980000  0.12710000  0.85380000  1
  C  C136  1  0.27460000  0.21600000  0.69577000  1
  C  C137  1  0.25500000  0.17610000  0.89460000  1
  C  C138  1  0.25250000  0.85720000  0.21210000  1
  C  C139  1  0.24630000  0.02300000  0.19990000  1
  C  C140  1  0.22330000  0.97700000  0.80010000  1
  C  C141  1  0.21970000  0.01210000  0.39813000  1
  C  C142  1  0.21600000  0.27460000  0.97090000  1
  C  C143  1  0.20760000  0.98790000  0.60187000  1
  C  C144  1  0.20250000  0.11490000  0.54057000  1
  C  C145  1  0.19960000  0.01910000  0.83840000  1
  C  C146  1  0.19160000  0.81430000  0.17180000  1
  C  C147  1  0.18570000  0.37730000  0.83847000  1
  C  C148  1  0.18050000  0.98090000  0.16160000  1
  C  C149  1  0.17610000  0.25500000  0.77207000  1
  C  C150  1  0.17390000  0.13730000  0.71007000  1
  C  C151  1  0.16000000  0.14740000  0.14900000  1
  C  C152  1  0.15530000  0.12030000  0.91940000  1
  C  C153  1  0.15270000  0.87290000  0.14620000  1
  C  C154  1  0.15190000  0.04060000  0.57677000  1
  C  C155  1  0.14740000  0.16000000  0.51767000  1
  C  C156  1  0.14280000  0.39530000  0.87877000  1
  C  C157  1  0.13730000  0.17390000  0.95660000  1
  C  C158  1  0.13270000  0.03750000  0.13530000  1
  C  C159  1  0.12710000  0.27980000  0.81287000  1
  C  C160  1  0.12030000  0.15530000  0.74727000  1
  C  C161  1  0.11490000  0.20250000  0.12610000  1
  C  C162  1  0.11130000  0.95940000  0.42323000  1
  C  C163  1  0.09520000  0.96250000  0.86470000  1
  C  C164  1  0.08760000  0.88510000  0.45943000  1
  C  C165  1  0.07890000  0.82390000  0.10540000  1
  C  C166  1  0.07070000  0.01160000  0.90150000  1
  C  C167  1  0.05910000  0.98840000  0.09850000  1
  C  C168  1  0.05860000  0.78400000  0.30423000  1
  C  C169  1  0.05150000  0.71540000  0.08800000  1
  C  C170  1  0.04800000  0.01440000  0.59057000  1
  C  C171  1  0.04760000  0.59960000  0.29503000  1
  C  C172  1  0.04060000  0.15190000  0.08990000  1
  C  C173  1  0.03750000  0.13270000  0.53137000  1
  C  C174  1  0.03660000  0.86270000  0.28993000  1
  C  C175  1  0.03500000  0.87970000  0.08060000  1
  C  C176  1  0.03360000  0.98560000  0.40943000  1
  C  C177  1  0.03200000  0.31590000  0.89357000  1
  C  C178  1  0.02300000  0.24630000  0.46677000  1
  C  C179  1  0.01910000  0.19960000  0.82827000  1
  C  C180  1  0.01570000  0.68550000  0.28123000  1
  C  C181  1  0.01490000  0.34780000  0.39417000  1
  C  C182  1  0.01440000  0.04800000  0.07610000  1
  C  C183  1  0.01260000  0.85260000  0.85100000  1
  C  C184  1  0.01210000  0.21970000  0.26853000  1
  C  C185  1  0.01160000  0.07070000  0.76517000  1
  O  O186  1  0.99840000  0.50900000  0.06090000  1
  O  O187  1  0.98840000  0.29090000  0.25363000  1
  O  O188  1  0.94850000  0.34810000  0.36447000  1
  O  O189  1  0.92780000  0.16550000  0.02993000  1
  O  O190  1  0.88660000  0.50520000  0.00670000  1
  O  O191  1  0.88220000  0.27970000  0.94507000  1
  O  O192  1  0.83450000  0.76230000  0.69660000  1
  O  O193  1  0.76230000  0.83450000  0.97007000  1
  O  O194  1  0.72030000  0.60250000  0.61173000  1
  O  O195  1  0.70910000  0.69750000  0.92030000  1
  O  O196  1  0.69750000  0.70910000  0.74637000  1
  O  O197  1  0.65190000  0.60040000  0.03113000  1
  O  O198  1  0.61860000  0.11340000  0.34003000  1
  O  O199  1  0.60250000  0.72030000  0.05493000  1
  O  O200  1  0.60040000  0.65190000  0.63553000  1
  O  O201  1  0.51060000  0.00160000  0.39423000  1
  O  O202  1  0.50900000  0.99840000  0.60577000  1
  O  O203  1  0.50520000  0.88660000  0.65997000  1
  O  O204  1  0.49480000  0.38140000  0.67337000  1
  O  O205  1  0.49100000  0.48940000  0.72757000  1
  O  O206  1  0.48940000  0.49100000  0.93910000  1
  O  O207  1  0.39960000  0.05150000  0.69780000  1
  O  O208  1  0.39750000  0.11780000  0.27840000  1
  O  O209  1  0.38140000  0.49480000  0.99330000  1
  O  O210  1  0.34810000  0.94850000  0.30220000  1
  O  O211  1  0.30250000  0.01160000  0.58697000  1
  O  O212  1  0.29090000  0.98840000  0.41303000  1
  O  O213  1  0.27970000  0.88220000  0.72160000  1
  O  O214  1  0.23770000  0.07220000  0.36326000  1
  O  O215  1  0.16550000  0.92780000  0.63674000  1
  O  O216  1  0.11780000  0.39750000  0.38827000  1
  O  O217  1  0.11340000  0.61860000  0.32663000  1
  O  O218  1  0.07220000  0.23770000  0.30340000  1
  O  O219  1  0.05150000  0.39960000  0.96887000  1
  O  O220  1  0.01160000  0.30250000  0.07970000  1
  O  O221  1  0.00160000  0.51060000  0.27243000  1
