# generated using pymatgen
data_CuH8C12(NO2)2
_symmetry_space_group_name_H-M   'P 1'
_cell_length_a   4.95790000
_cell_length_b   10.98810000
_cell_length_c   12.78189468
_cell_angle_alpha   88.44027104
_cell_angle_beta   78.81712054
_cell_angle_gamma   81.93220000
_symmetry_Int_Tables_number   1
_chemical_formula_structural   CuH8C12(NO2)2
_chemical_formula_sum   'Cu2 H16 C24 N4 O8'
_cell_volume   676.34871524
_cell_formula_units_Z   2
loop_
 _symmetry_equiv_pos_site_id
 _symmetry_equiv_pos_as_xyz
  1  'x, y, z'
loop_
 _atom_site_type_symbol
 _atom_site_label
 _atom_site_symmetry_multiplicity
 _atom_site_fract_x
 _atom_site_fract_y
 _atom_site_fract_z
 _atom_site_occupancy
  Cu  Cu0  1  0.82994000  0.78373000  0.22654000  1
  Cu  Cu1  1  0.05648000  0.28373000  0.77346000  1
  H  H2  1  0.93190000  0.07810000  0.13000000  1
  H  H3  1  0.64140000  0.38370000  0.45540000  1
  H  H4  1  0.64440000  0.12850000  0.48880000  1
  H  H5  1  0.86140000  0.02070000  0.33700000  1
  H  H6  1  0.51530000  0.09260000  0.80420000  1
  H  H7  1  0.71750000  0.28250000  0.61040000  1
  H  H8  1  0.31950000  0.59260000  0.19580000  1
  H  H9  1  0.65270000  0.95790000  0.93160000  1
  H  H10  1  0.09680000  0.88370000  0.54460000  1
  H  H11  1  0.13320000  0.62850000  0.51120000  1
  H  H12  1  0.58430000  0.45790000  0.06840000  1
  H  H13  1  0.32790000  0.78250000  0.38960000  1
  H  H14  1  0.82520000  0.21610000  0.00000000  1
  H  H15  1  0.82520000  0.71610000  1.00000000  1
  H  H16  1  0.19840000  0.52070000  0.66300000  1
  H  H17  1  0.06190000  0.57810000  0.87000000  1
  C  C18  1  0.57681000  0.05790000  0.47038000  1
  C  C19  1  0.12052000  0.58040000  0.93556000  1
  C  C20  1  0.70536000  0.99290000  0.37968000  1
  C  C21  1  0.05608000  0.08040000  0.06444000  1
  C  C22  1  0.82525000  0.58790000  0.36570000  1
  C  C23  1  0.75593000  0.41310000  0.49674000  1
  C  C24  1  0.39761000  0.09020000  0.87118000  1
  C  C25  1  0.35247000  0.50190000  0.95406000  1
  C  C26  1  0.88004000  0.51780000  0.46552000  1
  C  C27  1  0.30653000  0.00190000  0.04594000  1
  C  C28  1  0.51829000  0.41560000  0.86782000  1
  C  C29  1  0.80301000  0.35280000  0.58938000  1
  C  C30  1  0.26879000  0.59020000  0.12882000  1
  C  C31  1  0.48043000  0.00850000  0.94694000  1
  C  C32  1  0.42737000  0.50850000  0.05306000  1
  C  C33  1  0.38611000  0.91560000  0.13218000  1
  C  C34  1  0.04719000  0.55790000  0.52962000  1
  C  C35  1  0.08504000  0.49290000  0.62032000  1
  C  C36  1  0.25267000  0.91310000  0.50326000  1
  C  C37  1  0.39239000  0.85280000  0.41062000  1
  C  C38  1  0.19095000  0.08790000  0.63430000  1
  C  C39  1  0.34556000  0.01780000  0.53448000  1
  C  C40  1  0.99180000  0.16150000  0.98560000  1
  C  C41  1  0.97740000  0.66150000  0.01440000  1
  N  N42  1  0.15675000  0.16610000  0.88910000  1
  N  N43  1  0.04585000  0.66610000  0.11090000  1
  N  N44  1  0.96751000  0.39150000  0.65058000  1
  N  N45  1  0.61809000  0.89150000  0.34942000  1
  O  O46  1  0.40853000  0.38772000  0.79394000  1
  O  O47  1  0.95728000  0.67850000  0.34124000  1
  O  O48  1  0.20247000  0.88772000  0.20606000  1
  O  O49  1  0.76689000  0.37844000  0.87862000  1
  O  O50  1  0.97020000  0.05510000  0.68280000  1
  O  O51  1  0.64551000  0.87844000  0.12138000  1
  O  O52  1  0.29852000  0.17850000  0.65876000  1
  O  O53  1  0.65300000  0.55510000  0.31720000  1
