# generated using pymatgen
data_Co3H44C74(N4O3)4
_symmetry_space_group_name_H-M   'P 1'
_cell_length_a   15.28610000
_cell_length_b   17.50960000
_cell_length_c   19.00327761
_cell_angle_alpha   62.56783005
_cell_angle_beta   86.26848666
_cell_angle_gamma   81.87890000
_symmetry_Int_Tables_number   1
_chemical_formula_structural   Co3H44C74(N4O3)4
_chemical_formula_sum   'Co6 H88 C148 N32 O24'
_cell_volume   4469.10334675
_cell_formula_units_Z   2
loop_
 _symmetry_equiv_pos_site_id
 _symmetry_equiv_pos_as_xyz
  1  'x, y, z'
loop_
 _atom_site_type_symbol
 _atom_site_label
 _atom_site_symmetry_multiplicity
 _atom_site_fract_x
 _atom_site_fract_y
 _atom_site_fract_z
 _atom_site_occupancy
  Co  Co0  1  0.88907000  0.80726000  0.23532000  1
  Co  Co1  1  0.78171000  0.98170000  0.70824000  1
  Co  Co2  1  0.50082000  0.38467000  0.27250000  1
  Co  Co3  1  0.38907000  0.04258000  0.76468000  1
  Co  Co4  1  0.28171000  0.68994000  0.29176000  1
  Co  Co5  1  0.00082000  0.65717000  0.72750000  1
  H  H6  1  0.99030000  0.65260000  0.53220000  1
  H  H7  1  0.98930000  0.63740000  0.93600000  1
  H  H8  1  0.97500000  0.58000000  0.25980000  1
  H  H9  1  0.97280000  0.43770000  0.29480000  1
  H  H10  1  0.96930000  0.57220000  0.07160000  1
  H  H11  1  0.96400000  0.75590000  0.06980000  1
  H  H12  1  0.96130000  0.91120000  0.77600000  1
  H  H13  1  0.95990000  0.60360000  0.44280000  1
  H  H14  1  0.94080000  0.08540000  0.44100000  1
  H  H15  1  0.91230000  0.44130000  0.13640000  1
  H  H16  1  0.89040000  0.48120000  0.48360000  1
  H  H17  1  0.87770000  0.37010000  0.06820000  1
  H  H18  1  0.87570000  0.39060000  0.90940000  1
  H  H19  1  0.86970000  0.91780000  0.49120000  1
  H  H20  1  0.85880000  0.10010000  0.04260000  1
  H  H21  1  0.85810000  0.40710000  0.76340000  1
  H  H22  1  0.85100000  0.36770000  0.35720000  1
  H  H23  1  0.84920000  0.40330000  0.61520000  1
  H  H24  1  0.84330000  0.92560000  0.96260000  1
  H  H25  1  0.83770000  0.87470000  0.39880000  1
  H  H26  1  0.83040000  0.18070000  0.80940000  1
  H  H27  1  0.80830000  0.69700000  0.59460000  1
  H  H28  1  0.80100000  0.59420000  0.12740000  1
  H  H29  1  0.79820000  0.25510000  0.24880000  1
  H  H30  1  0.78470000  0.01590000  0.22960000  1
  H  H31  1  0.76660000  0.81100000  0.86020000  1
  H  H32  1  0.75520000  0.73160000  0.11400000  1
  H  H33  1  0.73150000  0.43900000  0.38980000  1
  H  H34  1  0.71440000  0.69830000  0.96900000  1
  H  H35  1  0.70720000  0.48770000  0.17520000  1
  H  H36  1  0.70070000  0.19940000  0.46740000  1
  H  H37  1  0.68570000  0.10570000  0.26820000  1
  H  H38  1  0.67420000  0.76190000  0.53300000  1
  H  H39  1  0.66940000  0.60820000  0.37340000  1
  H  H40  1  0.66120000  0.14530000  0.62560000  1
  H  H41  1  0.65620000  0.93740000  0.61540000  1
  H  H42  1  0.62710000  0.32330000  0.51340000  1
  H  H43  1  0.61350000  0.76650000  0.15380000  1
  H  H44  1  0.60720000  0.76000000  0.37780000  1
  H  H45  1  0.59830000  0.87940000  0.54420000  1
  H  H46  1  0.56700000  0.70880000  0.00660000  1
  H  H47  1  0.56470000  0.05580000  0.34380000  1
  H  H48  1  0.52980000  0.91440000  0.38460000  1
  H  H49  1  0.51100000  0.43280000  0.46600000  1
  H  H50  1  0.49030000  0.18480000  0.46780000  1
  H  H51  1  0.48930000  0.57340000  0.06400000  1
  H  H52  1  0.47500000  0.83980000  0.74020000  1
  H  H53  1  0.47280000  0.73250000  0.70520000  1
  H  H54  1  0.46930000  0.64380000  0.92840000  1
  H  H55  1  0.46400000  0.82570000  0.93020000  1
  H  H56  1  0.46130000  0.68720000  0.22400000  1
  H  H57  1  0.45990000  0.04640000  0.55720000  1
  H  H58  1  0.44080000  0.52640000  0.55900000  1
  H  H59  1  0.41230000  0.57770000  0.86360000  1
  H  H60  1  0.39040000  0.96480000  0.51640000  1
  H  H61  1  0.37770000  0.43830000  0.93180000  1
  H  H62  1  0.37570000  0.30000000  0.09060000  1
  H  H63  1  0.36970000  0.40900000  0.50880000  1
  H  H64  1  0.35880000  0.14270000  0.95740000  1
  H  H65  1  0.35810000  0.17050000  0.23660000  1
  H  H66  1  0.35100000  0.72490000  0.64280000  1
  H  H67  1  0.34920000  0.01850000  0.38480000  1
  H  H68  1  0.34330000  0.88820000  0.03740000  1
  H  H69  1  0.33770000  0.27350000  0.60120000  1
  H  H70  1  0.33040000  0.99010000  0.19060000  1
  H  H71  1  0.30830000  0.29160000  0.40540000  1
  H  H72  1  0.30100000  0.72160000  0.87260000  1
  H  H73  1  0.29820000  0.50390000  0.75120000  1
  H  H74  1  0.28470000  0.24550000  0.77040000  1
  H  H75  1  0.26660000  0.67120000  0.13980000  1
  H  H76  1  0.25520000  0.84560000  0.88600000  1
  H  H77  1  0.23150000  0.82880000  0.61020000  1
  H  H78  1  0.21440000  0.66730000  0.03100000  1
  H  H79  1  0.20720000  0.66290000  0.82480000  1
  H  H80  1  0.20070000  0.66680000  0.53260000  1
  H  H81  1  0.18570000  0.37390000  0.73180000  1
  H  H82  1  0.17420000  0.29490000  0.46700000  1
  H  H83  1  0.16940000  0.98160000  0.62660000  1
  H  H84  1  0.16120000  0.77090000  0.37440000  1
  H  H85  1  0.15620000  0.55280000  0.38460000  1
  H  H86  1  0.12710000  0.83670000  0.48660000  1
  H  H87  1  0.11350000  0.92030000  0.84620000  1
  H  H88  1  0.10720000  0.13780000  0.62220000  1
  H  H89  1  0.09830000  0.42360000  0.45580000  1
  H  H90  1  0.06700000  0.71540000  0.99340000  1
  H  H91  1  0.06470000  0.39960000  0.65620000  1
  H  H92  1  0.02980000  0.29900000  0.61540000  1
  H  H93  1  0.01100000  0.89880000  0.53400000  1
  C  C94  1  0.97130000  0.80890000  0.75340000  1
  C  C95  1  0.96710000  0.58440000  0.96160000  1
  C  C96  1  0.96580000  0.83130000  0.38520000  1
  C  C97  1  0.96290000  0.60300000  0.54880000  1
  C  C98  1  0.95470000  0.54530000  0.04240000  1
  C  C99  1  0.94860000  0.15230000  0.28440000  1
  C  C100  1  0.94530000  0.54250000  0.91860000  1
  C  C101  1  0.94420000  0.57360000  0.49580000  1
  C  C102  1  0.93930000  0.55580000  0.62780000  1
  C  C103  1  0.92590000  0.55290000  0.28540000  1
  C  C104  1  0.92420000  0.46860000  0.30600000  1
  C  C105  1  0.92070000  0.46560000  0.08180000  1
  C  C106  1  0.91900000  0.50113333  0.83220000  1
  C  C107  1  0.91730000  0.50510000  0.75380000  1
  C  C108  1  0.91510000  0.89270000  0.47060000  1
  C  C109  1  0.91180000  0.46260000  0.95940000  1
  C  C110  1  0.90200000  0.49940000  0.52060000  1
  C  C111  1  0.89950000  0.42330000  0.04180000  1
  C  C112  1  0.89580000  0.48210000  0.65280000  1
  C  C113  1  0.89550000  0.86770000  0.41540000  1
  C  C114  1  0.89420000  0.81420000  0.71300000  1
  C  C115  1  0.88940000  0.12270000  0.41900000  1
  C  C116  1  0.87940000  0.16820000  0.33680000  1
  C  C117  1  0.87720000  0.45260000  0.59900000  1
  C  C118  1  0.86370000  0.93100000  0.09900000  1
  C  C119  1  0.85340000  0.00360000  0.01480000  1
  C  C120  1  0.85320000  0.59920000  0.30280000  1
  C  C121  1  0.85290000  0.08810000  0.00040000  1
  C  C122  1  0.85000000  0.42580000  0.34460000  1
  C  C123  1  0.84390000  0.98270000  0.95280000  1
  C  C124  1  0.84370000  0.15640000  0.92320000  1
  C  C125  1  0.84060000  0.25020000  0.90400000  1
  C  C126  1  0.83570000  0.13650000  0.86120000  1
  C  C127  1  0.83540000  0.05010000  0.87620000  1
  C  C128  1  0.83060000  0.08130000  0.55560000  1
  C  C129  1  0.82160000  0.13360000  0.46820000  1
  C  C130  1  0.82020000  0.03780000  0.80340000  1
  C  C131  1  0.81390000  0.77640000  0.64560000  1
  C  C132  1  0.80400000  0.22520000  0.30360000  1
  C  C133  1  0.78210000  0.55460000  0.34120000  1
  C  C134  1  0.77970000  0.46700000  0.36340000  1
  C  C135  1  0.77830000  0.74420000  0.59980000  1
  C  C136  1  0.76860000  0.84800000  0.65100000  1
  C  C137  1  0.75740000  0.69050000  0.32040000  1
  C  C138  1  0.74530000  0.19180000  0.43460000  1
  C  C139  1  0.74400000  0.60660000  0.14280000  1
  C  C140  1  0.73580000  0.23860000  0.35200000  1
  C  C141  1  0.73550000  0.99590000  0.26080000  1
  C  C142  1  0.71930000  0.77470000  0.31760000  1
  C  C143  1  0.71650000  0.68990000  0.13520000  1
  C  C144  1  0.71640000  0.91120000  0.28800000  1
  C  C145  1  0.70700000  0.81350000  0.87340000  1
  C  C146  1  0.69840000  0.78340000  0.56300000  1
  C  C147  1  0.68910000  0.54190000  0.17260000  1
  C  C148  1  0.68610000  0.88920000  0.61200000  1
  C  C149  1  0.67610000  0.74770000  0.93840000  1
  C  C150  1  0.67560000  0.04900000  0.28380000  1
  C  C151  1  0.65320000  0.29970000  0.31860000  1
  C  C152  1  0.65260000  0.85470000  0.56940000  1
  C  C153  1  0.64620000  0.88640000  0.82580000  1
  C  C154  1  0.64060000  0.88130000  0.33300000  1
  C  C155  1  0.63240000  0.71120000  0.15900000  1
  C  C156  1  0.60320000  0.56230000  0.19900000  1
  C  C157  1  0.60200000  0.01850000  0.32940000  1
  C  C158  1  0.58550000  0.75370000  0.96020000  1
  C  C159  1  0.58030000  0.93360000  0.35520000  1
  C  C160  1  0.57870000  0.00880000  0.74160000  1
  C  C161  1  0.57720000  0.64420000  0.19180000  1
  C  C162  1  0.56990000  0.31340000  0.53200000  1
  C  C163  1  0.55650000  0.89140000  0.84620000  1
  C  C164  1  0.55200000  0.23290000  0.58960000  1
  C  C165  1  0.55160000  0.09790000  0.68000000  1
  C  C166  1  0.52330000  0.82340000  0.91580000  1
  C  C167  1  0.50040000  0.37760000  0.50380000  1
  C  C168  1  0.47130000  0.56230000  0.24660000  1
  C  C169  1  0.46710000  0.54600000  0.03840000  1
  C  C170  1  0.46580000  0.21650000  0.61480000  1
  C  C171  1  0.46290000  0.15180000  0.45120000  1
  C  C172  1  0.45470000  0.58770000  0.95760000  1
  C  C173  1  0.44860000  0.43670000  0.71560000  1
  C  C174  1  0.44530000  0.46110000  0.08140000  1
  C  C175  1  0.44420000  0.06940000  0.50420000  1
  C  C176  1  0.43930000  0.18360000  0.37220000  1
  C  C177  1  0.42590000  0.83830000  0.71460000  1
  C  C178  1  0.42420000  0.77460000  0.69400000  1
  C  C179  1  0.42070000  0.54740000  0.91820000  1
  C  C180  1  0.41900000  0.33330000  0.16780000  1
  C  C181  1  0.41730000  0.25890000  0.24620000  1
  C  C182  1  0.41510000  0.36330000  0.52940000  1
  C  C183  1  0.41180000  0.42200000  0.04060000  1
  C  C184  1  0.40200000  0.02000000  0.47940000  1
  C  C185  1  0.39950000  0.46510000  0.95820000  1
  C  C186  1  0.39580000  0.13490000  0.34720000  1
  C  C187  1  0.39550000  0.28310000  0.58460000  1
  C  C188  1  0.39420000  0.52720000  0.28700000  1
  C  C189  1  0.38940000  0.54170000  0.58100000  1
  C  C190  1  0.37940000  0.50500000  0.66320000  1
  C  C191  1  0.37720000  0.05160000  0.40100000  1
  C  C192  1  0.36370000  0.03000000  0.90100000  1
  C  C193  1  0.35340000  0.01840000  0.98520000  1
  C  C194  1  0.35320000  0.90200000  0.69720000  1
  C  C195  1  0.35290000  0.08850000  0.99960000  1
  C  C196  1  0.35000000  0.77040000  0.65540000  1
  C  C197  1  0.34390000  0.93550000  0.04720000  1
  C  C198  1  0.34370000  0.07960000  0.07680000  1
  C  C199  1  0.34060000  0.15420000  0.09600000  1
  C  C200  1  0.33570000  0.99770000  0.13880000  1
  C  C201  1  0.33540000  0.92630000  0.12380000  1
  C  C202  1  0.33060000  0.63690000  0.44440000  1
  C  C203  1  0.32160000  0.60180000  0.53180000  1
  C  C204  1  0.32020000  0.84120000  0.19660000  1
  C  C205  1  0.31390000  0.42200000  0.35440000  1
  C  C206  1  0.30400000  0.52880000  0.69640000  1
  C  C207  1  0.28210000  0.89580000  0.65880000  1
  C  C208  1  0.27970000  0.83040000  0.63660000  1
  C  C209  1  0.27830000  0.34400000  0.40020000  1
  C  C210  1  0.26860000  0.49900000  0.34900000  1
  C  C211  1  0.25740000  0.01090000  0.67960000  1
  C  C212  1  0.24530000  0.62640000  0.56540000  1
  C  C213  1  0.24400000  0.74940000  0.85720000  1
  C  C214  1  0.23580000  0.59060000  0.64800000  1
  C  C215  1  0.23550000  0.25670000  0.73920000  1
  C  C216  1  0.21930000  0.09230000  0.68240000  1
  C  C217  1  0.21650000  0.82510000  0.86480000  1
  C  C218  1  0.21640000  0.19920000  0.71200000  1
  C  C219  1  0.20700000  0.68690000  0.12660000  1
  C  C220  1  0.19840000  0.34640000  0.43700000  1
  C  C221  1  0.18910000  0.71450000  0.82740000  1
  C  C222  1  0.18610000  0.50120000  0.38800000  1
  C  C223  1  0.17610000  0.68610000  0.06160000  1
  C  C224  1  0.17560000  0.33280000  0.71620000  1
  C  C225  1  0.15320000  0.61830000  0.68140000  1
  C  C226  1  0.15260000  0.42410000  0.43060000  1
  C  C227  1  0.14620000  0.71220000  0.17420000  1
  C  C228  1  0.14060000  0.21430000  0.66700000  1
  C  C229  1  0.13240000  0.87020000  0.84100000  1
  C  C230  1  0.10320000  0.76130000  0.80100000  1
  C  C231  1  0.10200000  0.34790000  0.67060000  1
  C  C232  1  0.08550000  0.71390000  0.03980000  1
  C  C233  1  0.08030000  0.28880000  0.64480000  1
  C  C234  1  0.07870000  0.75040000  0.25840000  1
  C  C235  1  0.07720000  0.83600000  0.80820000  1
  C  C236  1  0.06990000  0.84540000  0.46800000  1
  C  C237  1  0.05650000  0.73760000  0.15380000  1
  C  C238  1  0.05200000  0.82250000  0.41040000  1
  C  C239  1  0.05160000  0.77790000  0.32000000  1
  C  C240  1  0.02330000  0.73920000  0.08420000  1
  C  C241  1  0.00040000  0.88140000  0.49620000  1
  N  N242  1  0.99370000  0.86570000  0.77860000  1
  N  N243  1  0.96860000  0.80280000  0.32600000  1
  N  N244  1  0.95240000  0.56930000  0.69360000  1
  N  N245  1  0.95050000  0.56450000  0.83760000  1
  N  N246  1  0.89590000  0.43720000  0.90180000  1
  N  N247  1  0.89350000  0.75490000  0.68580000  1
  N  N248  1  0.88320000  0.45190000  0.73240000  1
  N  N249  1  0.83580000  0.68460000  0.29060000  1
  N  N250  1  0.81960000  0.87380000  0.69340000  1
  N  N251  1  0.76540000  0.84170000  0.27800000  1
  N  N252  1  0.72050000  0.61630000  0.35160000  1
  N  N253  1  0.65970000  0.96240000  0.75800000  1
  N  N254  1  0.64510000  0.79470000  0.35060000  1
  N  N255  1  0.60500000  0.15520000  0.63060000  1
  N  N256  1  0.53700000  0.51140000  0.23420000  1
  N  N257  1  0.51340000  0.96920000  0.79200000  1
  N  N258  1  0.49370000  0.64430000  0.22140000  1
  N  N259  1  0.46860000  0.12880000  0.67400000  1
  N  N260  1  0.45240000  0.26290000  0.30640000  1
  N  N261  1  0.45050000  0.40210000  0.16240000  1
  N  N262  1  0.39590000  0.33900000  0.09820000  1
  N  N263  1  0.39350000  0.44070000  0.31420000  1
  N  N264  1  0.38320000  0.18430000  0.26760000  1
  N  N265  1  0.33580000  0.97520000  0.70940000  1
  N  N266  1  0.31960000  0.56720000  0.30660000  1
  N  N267  1  0.26540000  0.11970000  0.72200000  1
  N  N268  1  0.22050000  0.96790000  0.64840000  1
  N  N269  1  0.15970000  0.72040000  0.24200000  1
  N  N270  1  0.14510000  0.14530000  0.64940000  1
  N  N271  1  0.10500000  0.78580000  0.36940000  1
  N  N272  1  0.03700000  0.74560000  0.76580000  1
  N  N273  1  0.01340000  0.76120000  0.20800000  1
  O  O274  1  0.93610000  0.18200000  0.21040000  1
  O  O275  1  0.90370000  0.04320000  0.58780000  1
  O  O276  1  0.89460000  0.94490000  0.15160000  1
  O  O277  1  0.86020000  0.26920000  0.95700000  1
  O  O278  1  0.84960000  0.96400000  0.80720000  1
  O  O279  1  0.84450000  0.85790000  0.11440000  1
  O  O280  1  0.81870000  0.30660000  0.83420000  1
  O  O281  1  0.77870000  0.09530000  0.74460000  1
  O  O282  1  0.75980000  0.07410000  0.59700000  1
  O  O283  1  0.63510000  0.32981000  0.24578000  1
  O  O284  1  0.60050000  0.31890000  0.36300000  1
  O  O285  1  0.52070000  0.41800000  0.68480000  1
  O  O286  1  0.43610000  0.39240000  0.78960000  1
  O  O287  1  0.40370000  0.63100000  0.41220000  1
  O  O288  1  0.39460000  0.09650000  0.84840000  1
  O  O289  1  0.36020000  0.22620000  0.04300000  1
  O  O290  1  0.34960000  0.77120000  0.19280000  1
  O  O291  1  0.34450000  0.97230000  0.88560000  1
  O  O292  1  0.31870000  0.14080000  0.16580000  1
  O  O293  1  0.27870000  0.83990000  0.25540000  1
  O  O294  1  0.25980000  0.67110000  0.40300000  1
  O  O295  1  0.13510000  0.57559000  0.75422000  1
  O  O296  1  0.10050000  0.68190000  0.63700000  1
  O  O297  1  0.02070000  0.10280000  0.31520000  1
