# generated using pymatgen
data_CdH8C13N5O2
_symmetry_space_group_name_H-M   'P 1'
_cell_length_a   11.91700000
_cell_length_b   13.12200000
_cell_length_c   23.98400000
_cell_angle_alpha   90.00000000
_cell_angle_beta   90.00000000
_cell_angle_gamma   90.00000000
_symmetry_Int_Tables_number   1
_chemical_formula_structural   CdH8C13N5O2
_chemical_formula_sum   'Cd8 H64 C104 N40 O16'
_cell_volume   3750.49497802
_cell_formula_units_Z   8
loop_
 _symmetry_equiv_pos_site_id
 _symmetry_equiv_pos_as_xyz
  1  'x, y, z'
loop_
 _atom_site_type_symbol
 _atom_site_label
 _atom_site_symmetry_multiplicity
 _atom_site_fract_x
 _atom_site_fract_y
 _atom_site_fract_z
 _atom_site_occupancy
  Cd  Cd0  1  0.75000000  0.25000000  0.95754000  1
  Cd  Cd1  1  0.94882000  0.00000000  0.75000000  1
  Cd  Cd2  1  0.55118000  0.50000000  0.75000000  1
  Cd  Cd3  1  0.75000000  0.75000000  0.54246000  1
  Cd  Cd4  1  0.25000000  0.25000000  0.45754000  1
  Cd  Cd5  1  0.05118000  0.00000000  0.25000000  1
  Cd  Cd6  1  0.44882000  0.50000000  0.25000000  1
  Cd  Cd7  1  0.25000000  0.75000000  0.04246000  1
  H  H8  1  0.25280000  0.41990000  0.94930000  1
  H  H9  1  0.24720000  0.08010000  0.94930000  1
  H  H10  1  0.52860000  0.92010000  0.92810000  1
  H  H11  1  0.97140000  0.57990000  0.92810000  1
  H  H12  1  0.16900000  0.28000000  0.90810000  1
  H  H13  1  0.33100000  0.22000000  0.90810000  1
  H  H14  1  0.88730000  0.43990000  0.88620000  1
  H  H15  1  0.61270000  0.06010000  0.88620000  1
  H  H16  1  0.13700000  0.35560000  0.77660000  1
  H  H17  1  0.36300000  0.14440000  0.77660000  1
  H  H18  1  0.32830000  0.35960000  0.77590000  1
  H  H19  1  0.17170000  0.14040000  0.77590000  1
  H  H20  1  0.53690000  0.84820000  0.76140000  1
  H  H21  1  0.96310000  0.65180000  0.76140000  1
  H  H22  1  0.72910000  0.85260000  0.75810000  1
  H  H23  1  0.77090000  0.64740000  0.75810000  1
  H  H24  1  0.77090000  0.35260000  0.74190000  1
  H  H25  1  0.72910000  0.14740000  0.74190000  1
  H  H26  1  0.96310000  0.34820000  0.73860000  1
  H  H27  1  0.53690000  0.15180000  0.73860000  1
  H  H28  1  0.17170000  0.85960000  0.72410000  1
  H  H29  1  0.32830000  0.64040000  0.72410000  1
  H  H30  1  0.36300000  0.85560000  0.72340000  1
  H  H31  1  0.13700000  0.64440000  0.72340000  1
  H  H32  1  0.61270000  0.93990000  0.61380000  1
  H  H33  1  0.88730000  0.56010000  0.61380000  1
  H  H34  1  0.33100000  0.78000000  0.59190000  1
  H  H35  1  0.16900000  0.72000000  0.59190000  1
  H  H36  1  0.97140000  0.42010000  0.57190000  1
  H  H37  1  0.52860000  0.07990000  0.57190000  1
  H  H38  1  0.24720000  0.91990000  0.55070000  1
  H  H39  1  0.25280000  0.58010000  0.55070000  1
  H  H40  1  0.74720000  0.41990000  0.44930000  1
  H  H41  1  0.75280000  0.08010000  0.44930000  1
  H  H42  1  0.47140000  0.92010000  0.42810000  1
  H  H43  1  0.02860000  0.57990000  0.42810000  1
  H  H44  1  0.83100000  0.28000000  0.40810000  1
  H  H45  1  0.66900000  0.22000000  0.40810000  1
  H  H46  1  0.11270000  0.43990000  0.38620000  1
  H  H47  1  0.38730000  0.06010000  0.38620000  1
  H  H48  1  0.86300000  0.35560000  0.27660000  1
  H  H49  1  0.63700000  0.14440000  0.27660000  1
  H  H50  1  0.67170000  0.35960000  0.27590000  1
  H  H51  1  0.82830000  0.14040000  0.27590000  1
  H  H52  1  0.46310000  0.84820000  0.26140000  1
  H  H53  1  0.03690000  0.65180000  0.26140000  1
  H  H54  1  0.27090000  0.85260000  0.25810000  1
  H  H55  1  0.22910000  0.64740000  0.25810000  1
  H  H56  1  0.22910000  0.35260000  0.24190000  1
  H  H57  1  0.27090000  0.14740000  0.24190000  1
  H  H58  1  0.03690000  0.34820000  0.23860000  1
  H  H59  1  0.46310000  0.15180000  0.23860000  1
  H  H60  1  0.82830000  0.85960000  0.22410000  1
  H  H61  1  0.67170000  0.64040000  0.22410000  1
  H  H62  1  0.63700000  0.85560000  0.22340000  1
  H  H63  1  0.86300000  0.64440000  0.22340000  1
  H  H64  1  0.38730000  0.93990000  0.11380000  1
  H  H65  1  0.11270000  0.56010000  0.11380000  1
  H  H66  1  0.66900000  0.78000000  0.09190000  1
  H  H67  1  0.83100000  0.72000000  0.09190000  1
  H  H68  1  0.02860000  0.42010000  0.07190000  1
  H  H69  1  0.47140000  0.07990000  0.07190000  1
  H  H70  1  0.75280000  0.91990000  0.05070000  1
  H  H71  1  0.74720000  0.58010000  0.05070000  1
  C  C72  1  0.33060000  0.90110000  0.97821000  1
  C  C73  1  0.16940000  0.59890000  0.97821000  1
  C  C74  1  0.38100000  0.98720000  0.94506000  1
  C  C75  1  0.11900000  0.51280000  0.94506000  1
  C  C76  1  0.17860000  0.42390000  0.93740000  1
  C  C77  1  0.32140000  0.07610000  0.93740000  1
  C  C78  1  0.48890000  0.98090000  0.92472000  1
  C  C79  1  0.01110000  0.51910000  0.92472000  1
  C  C80  1  0.12860000  0.34020000  0.91210000  1
  C  C81  1  0.37140000  0.15980000  0.91210000  1
  C  C82  1  0.96070000  0.43530000  0.89911000  1
  C  C83  1  0.53930000  0.06470000  0.89911000  1
  C  C84  1  0.01990000  0.34540000  0.89293000  1
  C  C85  1  0.48010000  0.15460000  0.89293000  1
  C  C86  1  0.96770000  0.25370000  0.86892000  1
  C  C87  1  0.53230000  0.24630000  0.86892000  1
  C  C88  1  0.17380000  0.41480000  0.76570000  1
  C  C89  1  0.32620000  0.08520000  0.76570000  1
  C  C90  1  0.28940000  0.41780000  0.76520000  1
  C  C91  1  0.21060000  0.08220000  0.76520000  1
  C  C92  1  0.57370000  0.91000000  0.75638000  1
  C  C93  1  0.92630000  0.59000000  0.75638000  1
  C  C94  1  0.68970000  0.91360000  0.75517000  1
  C  C95  1  0.81030000  0.58640000  0.75517000  1
  C  C96  1  0.51260000  0.00000000  0.75000000  1
  C  C97  1  0.38780000  0.00000000  0.75000000  1
  C  C98  1  0.98740000  0.50000000  0.75000000  1
  C  C99  1  0.11220000  0.50000000  0.75000000  1
  C  C100  1  0.81030000  0.41360000  0.74483000  1
  C  C101  1  0.68970000  0.08640000  0.74483000  1
  C  C102  1  0.92630000  0.41000000  0.74362000  1
  C  C103  1  0.57370000  0.09000000  0.74362000  1
  C  C104  1  0.21060000  0.91780000  0.73480000  1
  C  C105  1  0.28940000  0.58220000  0.73480000  1
  C  C106  1  0.32620000  0.91480000  0.73430000  1
  C  C107  1  0.17380000  0.58520000  0.73430000  1
  C  C108  1  0.53230000  0.75370000  0.63108000  1
  C  C109  1  0.96770000  0.74630000  0.63108000  1
  C  C110  1  0.48010000  0.84540000  0.60707000  1
  C  C111  1  0.01990000  0.65460000  0.60707000  1
  C  C112  1  0.53930000  0.93530000  0.60089000  1
  C  C113  1  0.96070000  0.56470000  0.60089000  1
  C  C114  1  0.37140000  0.84020000  0.58790000  1
  C  C115  1  0.12860000  0.65980000  0.58790000  1
  C  C116  1  0.01110000  0.48090000  0.57528000  1
  C  C117  1  0.48890000  0.01910000  0.57528000  1
  C  C118  1  0.32140000  0.92390000  0.56260000  1
  C  C119  1  0.17860000  0.57610000  0.56260000  1
  C  C120  1  0.11900000  0.48720000  0.55494000  1
  C  C121  1  0.38100000  0.01280000  0.55494000  1
  C  C122  1  0.16940000  0.40110000  0.52179000  1
  C  C123  1  0.33060000  0.09890000  0.52179000  1
  C  C124  1  0.66940000  0.90110000  0.47821000  1
  C  C125  1  0.83060000  0.59890000  0.47821000  1
  C  C126  1  0.61900000  0.98720000  0.44506000  1
  C  C127  1  0.88100000  0.51280000  0.44506000  1
  C  C128  1  0.82140000  0.42390000  0.43740000  1
  C  C129  1  0.67860000  0.07610000  0.43740000  1
  C  C130  1  0.51110000  0.98090000  0.42472000  1
  C  C131  1  0.98890000  0.51910000  0.42472000  1
  C  C132  1  0.87140000  0.34020000  0.41210000  1
  C  C133  1  0.62860000  0.15980000  0.41210000  1
  C  C134  1  0.03930000  0.43530000  0.39911000  1
  C  C135  1  0.46070000  0.06470000  0.39911000  1
  C  C136  1  0.98010000  0.34540000  0.39293000  1
  C  C137  1  0.51990000  0.15460000  0.39293000  1
  C  C138  1  0.03230000  0.25370000  0.36892000  1
  C  C139  1  0.46770000  0.24630000  0.36892000  1
  C  C140  1  0.82620000  0.41480000  0.26570000  1
  C  C141  1  0.67380000  0.08520000  0.26570000  1
  C  C142  1  0.71060000  0.41780000  0.26520000  1
  C  C143  1  0.78940000  0.08220000  0.26520000  1
  C  C144  1  0.42630000  0.91000000  0.25638000  1
  C  C145  1  0.07370000  0.59000000  0.25638000  1
  C  C146  1  0.31030000  0.91360000  0.25517000  1
  C  C147  1  0.18970000  0.58640000  0.25517000  1
  C  C148  1  0.61220000  0.00000000  0.25000000  1
  C  C149  1  0.48740000  0.00000000  0.25000000  1
  C  C150  1  0.88780000  0.50000000  0.25000000  1
  C  C151  1  0.01260000  0.50000000  0.25000000  1
  C  C152  1  0.18970000  0.41360000  0.24483000  1
  C  C153  1  0.31030000  0.08640000  0.24483000  1
  C  C154  1  0.07370000  0.41000000  0.24362000  1
  C  C155  1  0.42630000  0.09000000  0.24362000  1
  C  C156  1  0.78940000  0.91780000  0.23480000  1
  C  C157  1  0.71060000  0.58220000  0.23480000  1
  C  C158  1  0.67380000  0.91480000  0.23430000  1
  C  C159  1  0.82620000  0.58520000  0.23430000  1
  C  C160  1  0.46770000  0.75370000  0.13108000  1
  C  C161  1  0.03230000  0.74630000  0.13108000  1
  C  C162  1  0.51990000  0.84540000  0.10707000  1
  C  C163  1  0.98010000  0.65460000  0.10707000  1
  C  C164  1  0.46070000  0.93530000  0.10089000  1
  C  C165  1  0.03930000  0.56470000  0.10089000  1
  C  C166  1  0.62860000  0.84020000  0.08790000  1
  C  C167  1  0.87140000  0.65980000  0.08790000  1
  C  C168  1  0.98890000  0.48090000  0.07528000  1
  C  C169  1  0.51110000  0.01910000  0.07528000  1
  C  C170  1  0.67860000  0.92390000  0.06260000  1
  C  C171  1  0.82140000  0.57610000  0.06260000  1
  C  C172  1  0.88100000  0.48720000  0.05494000  1
  C  C173  1  0.61900000  0.01280000  0.05494000  1
  C  C174  1  0.83060000  0.40110000  0.02179000  1
  C  C175  1  0.66940000  0.09890000  0.02179000  1
  N  N176  1  0.62600000  0.28920000  0.88740000  1
  N  N177  1  0.87400000  0.21080000  0.88740000  1
  N  N178  1  0.64400000  0.37140000  0.85518000  1
  N  N179  1  0.85600000  0.12860000  0.85518000  1
  N  N180  1  0.48830000  0.29990000  0.82669000  1
  N  N181  1  0.01170000  0.20010000  0.82669000  1
  N  N182  1  0.56110000  0.37740000  0.81981000  1
  N  N183  1  0.93890000  0.12260000  0.81981000  1
  N  N184  1  0.74840000  0.00000000  0.75000000  1
  N  N185  1  0.15130000  0.00000000  0.75000000  1
  N  N186  1  0.75160000  0.50000000  0.75000000  1
  N  N187  1  0.34870000  0.50000000  0.75000000  1
  N  N188  1  0.93890000  0.87740000  0.68019000  1
  N  N189  1  0.56110000  0.62260000  0.68019000  1
  N  N190  1  0.01170000  0.79990000  0.67331000  1
  N  N191  1  0.48830000  0.70010000  0.67331000  1
  N  N192  1  0.85600000  0.87140000  0.64482000  1
  N  N193  1  0.64400000  0.62860000  0.64482000  1
  N  N194  1  0.87400000  0.78920000  0.61260000  1
  N  N195  1  0.62600000  0.71080000  0.61260000  1
  N  N196  1  0.37400000  0.28920000  0.38740000  1
  N  N197  1  0.12600000  0.21080000  0.38740000  1
  N  N198  1  0.35600000  0.37140000  0.35518000  1
  N  N199  1  0.14400000  0.12860000  0.35518000  1
  N  N200  1  0.51170000  0.29990000  0.32669000  1
  N  N201  1  0.98830000  0.20010000  0.32669000  1
  N  N202  1  0.43890000  0.37740000  0.31981000  1
  N  N203  1  0.06110000  0.12260000  0.31981000  1
  N  N204  1  0.84870000  0.00000000  0.25000000  1
  N  N205  1  0.25160000  0.00000000  0.25000000  1
  N  N206  1  0.65130000  0.50000000  0.25000000  1
  N  N207  1  0.24840000  0.50000000  0.25000000  1
  N  N208  1  0.06110000  0.87740000  0.18019000  1
  N  N209  1  0.43890000  0.62260000  0.18019000  1
  N  N210  1  0.98830000  0.79990000  0.17331000  1
  N  N211  1  0.51170000  0.70010000  0.17331000  1
  N  N212  1  0.14400000  0.87140000  0.14482000  1
  N  N213  1  0.35600000  0.62860000  0.14482000  1
  N  N214  1  0.12600000  0.78920000  0.11260000  1
  N  N215  1  0.37400000  0.71080000  0.11260000  1
  O  O216  1  0.73950000  0.41520000  0.99697000  1
  O  O217  1  0.76050000  0.08480000  0.99697000  1
  O  O218  1  0.38330000  0.81830000  0.98075000  1
  O  O219  1  0.11670000  0.68170000  0.98075000  1
  O  O220  1  0.11670000  0.31830000  0.51925000  1
  O  O221  1  0.38330000  0.18170000  0.51925000  1
  O  O222  1  0.76050000  0.91520000  0.50303000  1
  O  O223  1  0.73950000  0.58480000  0.50303000  1
  O  O224  1  0.26050000  0.41520000  0.49697000  1
  O  O225  1  0.23950000  0.08480000  0.49697000  1
  O  O226  1  0.61670000  0.81830000  0.48075000  1
  O  O227  1  0.88330000  0.68170000  0.48075000  1
  O  O228  1  0.88330000  0.31830000  0.01925000  1
  O  O229  1  0.61670000  0.18170000  0.01925000  1
  O  O230  1  0.23950000  0.91520000  0.00303000  1
  O  O231  1  0.26050000  0.58480000  0.00303000  1
