# generated using pymatgen
data_CdH3(C3O2)3
_symmetry_space_group_name_H-M   'P 1'
_cell_length_a   10.19647173
_cell_length_b   12.47518760
_cell_length_c   14.60700000
_cell_angle_alpha   90.00000000
_cell_angle_beta   90.00000000
_cell_angle_gamma   90.09906250
_symmetry_Int_Tables_number   1
_chemical_formula_structural   CdH3(C3O2)3
_chemical_formula_sum   'Cd4 H12 C36 O24'
_cell_volume   1858.04995045
_cell_formula_units_Z   4
loop_
 _symmetry_equiv_pos_site_id
 _symmetry_equiv_pos_as_xyz
  1  'x, y, z'
loop_
 _atom_site_type_symbol
 _atom_site_label
 _atom_site_symmetry_multiplicity
 _atom_site_fract_x
 _atom_site_fract_y
 _atom_site_fract_z
 _atom_site_occupancy
  C  C0  1  0.38845000  0.84865000  0.10350000  1
  C  C1  1  0.88845000  0.34865000  0.39650000  1
  C  C2  1  0.61630000  0.64230000  0.59195000  1
  C  C3  1  0.11630000  0.14230000  0.90805000  1
  C  C4  1  0.52805000  0.72905000  0.19990000  1
  C  C5  1  0.02805000  0.22905000  0.30010000  1
  C  C6  1  0.15835000  0.09905000  0.20135000  1
  C  C7  1  0.65835000  0.59905000  0.29865000  1
  C  C8  1  0.52300000  0.80470000  0.13500000  1
  C  C9  1  0.02300000  0.30470000  0.36500000  1
  C  C10  1  0.65110000  0.68740000  0.23055000  1
  C  C11  1  0.15110000  0.18740000  0.26945000  1
  C  C12  1  0.73915000  0.69135000  0.62770000  1
  C  C13  1  0.23915000  0.19135000  0.87230000  1
  C  C14  1  0.63675000  0.84745000  0.09785000  1
  C  C15  1  0.13675000  0.34745000  0.40215000  1
  C  C16  1  0.76155000  0.73075000  0.19270000  1
  C  C17  1  0.26155000  0.23075000  0.30730000  1
  C  C18  1  0.73845000  0.76925000  0.69270000  1
  C  C19  1  0.23845000  0.26925000  0.80730000  1
  C  C20  1  0.86325000  0.65255000  0.59785000  1
  C  C21  1  0.36325000  0.15255000  0.90215000  1
  C  C22  1  0.76085000  0.80865000  0.12770000  1
  C  C23  1  0.26085000  0.30865000  0.37230000  1
  C  C24  1  0.84890000  0.81260000  0.73055000  1
  C  C25  1  0.34890000  0.31260000  0.76945000  1
  C  C26  1  0.97700000  0.69530000  0.63500000  1
  C  C27  1  0.47700000  0.19530000  0.86500000  1
  C  C28  1  0.88370000  0.85770000  0.09195000  1
  C  C29  1  0.38370000  0.35770000  0.40805000  1
  C  C30  1  0.34165000  0.40095000  0.70135000  1
  C  C31  1  0.84165000  0.90095000  0.79865000  1
  C  C32  1  0.97195000  0.77095000  0.69990000  1
  C  C33  1  0.47195000  0.27095000  0.80010000  1
  C  C34  1  0.11155000  0.65135000  0.60350000  1
  C  C35  1  0.61155000  0.15135000  0.89650000  1
  Cd  Cd36  1  0.15092000  0.93369000  0.06777000  1
  Cd  Cd37  1  0.65092000  0.43369000  0.43223000  1
  Cd  Cd38  1  0.34908000  0.56631000  0.56777000  1
  Cd  Cd39  1  0.84908000  0.06631000  0.93223000  1
  H  H40  1  0.45060000  0.70320000  0.22540000  1
  H  H41  1  0.95060000  0.20320000  0.27460000  1
  H  H42  1  0.65770000  0.79470000  0.71255000  1
  H  H43  1  0.15770000  0.29470000  0.78745000  1
  H  H44  1  0.86790000  0.59880000  0.55385000  1
  H  H45  1  0.36790000  0.09880000  0.94615000  1
  H  H46  1  0.63210000  0.90120000  0.05385000  1
  H  H47  1  0.13210000  0.40120000  0.44615000  1
  H  H48  1  0.84230000  0.70530000  0.21255000  1
  H  H49  1  0.34230000  0.20530000  0.28745000  1
  H  H50  1  0.04940000  0.79680000  0.72540000  1
  H  H51  1  0.54940000  0.29680000  0.77460000  1
  O  O52  1  0.05301000  0.05692000  0.17245000  1
  O  O53  1  0.55301000  0.55692000  0.32755000  1
  O  O54  1  0.29097500  0.81795500  0.14710000  1
  O  O55  1  0.79097500  0.31795500  0.35290000  1
  O  O56  1  0.62059000  0.56951000  0.53560000  1
  O  O57  1  0.12059000  0.06951000  0.96440000  1
  O  O58  1  0.51043500  0.67832500  0.62467500  1
  O  O59  1  0.01043500  0.17832500  0.87532500  1
  O  O60  1  0.38343500  0.91082500  0.03795000  1
  O  O61  1  0.88343500  0.41082500  0.46205000  1
  O  O62  1  0.26752000  0.06948000  0.17285000  1
  O  O63  1  0.76752000  0.56948000  0.32715000  1
  O  O64  1  0.23248000  0.43052000  0.67285000  1
  O  O65  1  0.73248000  0.93052000  0.82715000  1
  O  O66  1  0.11656500  0.58917500  0.53795000  1
  O  O67  1  0.61656500  0.08917500  0.96205000  1
  O  O68  1  0.87941000  0.93049000  0.03560000  1
  O  O69  1  0.37941000  0.43049000  0.46440000  1
  O  O70  1  0.98956500  0.82167500  0.12467500  1
  O  O71  1  0.48956500  0.32167500  0.37532500  1
  O  O72  1  0.44699000  0.44308000  0.67245000  1
  O  O73  1  0.94699000  0.94308000  0.82755000  1
  O  O74  1  0.20902500  0.68204500  0.64710000  1
  O  O75  1  0.70902500  0.18204500  0.85290000  1
