# generated using pymatgen
data_LiH4C6NO2
_symmetry_space_group_name_H-M   'P 1'
_cell_length_a   9.59220000
_cell_length_b   10.41750000
_cell_length_c   15.28770000
_cell_angle_alpha   97.47900000
_cell_angle_beta   90.00000000
_cell_angle_gamma   90.00000000
_symmetry_Int_Tables_number   1
_chemical_formula_structural   LiH4C6NO2
_chemical_formula_sum   'Li8 H32 C48 N8 O16'
_cell_volume   1514.65380001
_cell_formula_units_Z   8
loop_
 _symmetry_equiv_pos_site_id
 _symmetry_equiv_pos_as_xyz
  1  'x, y, z'
loop_
 _atom_site_type_symbol
 _atom_site_label
 _atom_site_symmetry_multiplicity
 _atom_site_fract_x
 _atom_site_fract_y
 _atom_site_fract_z
 _atom_site_occupancy
  Li  Li0  1  0.03230000  0.85101000  0.93376000  1
  Li  Li1  1  0.46680000  0.83903000  0.46390000  1
  Li  Li2  1  0.96680000  0.66097000  0.03610000  1
  Li  Li3  1  0.53230000  0.64899000  0.56624000  1
  Li  Li4  1  0.46770000  0.35101000  0.43376000  1
  Li  Li5  1  0.03320000  0.33903000  0.96390000  1
  Li  Li6  1  0.53320000  0.16097000  0.53610000  1
  Li  Li7  1  0.96770000  0.14899000  0.06624000  1
  H  H8  1  0.34570000  0.97550000  0.13070000  1
  H  H9  1  0.42850000  0.95530000  0.88950000  1
  H  H10  1  0.02860000  0.93540000  0.18750000  1
  H  H11  1  0.16920000  0.90810000  0.30700000  1
  H  H12  1  0.93610000  0.87650000  0.47690000  1
  H  H13  1  0.16670000  0.81990000  0.49890000  1
  H  H14  1  0.36180000  0.79840000  0.69980000  1
  H  H15  1  0.21550000  0.78210000  0.81810000  1
  H  H16  1  0.71550000  0.71790000  0.68190000  1
  H  H17  1  0.86180000  0.70160000  0.80020000  1
  H  H18  1  0.66666667  0.68010000  0.00110000  1
  H  H19  1  0.43610000  0.62350000  0.02310000  1
  H  H20  1  0.66920000  0.59190000  0.19300000  1
  H  H21  1  0.52860000  0.56460000  0.31250000  1
  H  H22  1  0.92850000  0.54470000  0.61050000  1
  H  H23  1  0.84570000  0.52450000  0.36930000  1
  H  H24  1  0.15430000  0.47550000  0.63070000  1
  H  H25  1  0.07150000  0.45530000  0.38950000  1
  H  H26  1  0.47140000  0.43540000  0.68750000  1
  H  H27  1  0.33080000  0.40810000  0.80700000  1
  H  H28  1  0.56390000  0.37650000  0.97690000  1
  H  H29  1  0.33333333  0.31990000  0.99890000  1
  H  H30  1  0.13820000  0.29840000  0.19980000  1
  H  H31  1  0.28450000  0.28210000  0.31810000  1
  H  H32  1  0.78450000  0.21790000  0.18190000  1
  H  H33  1  0.63820000  0.20160000  0.30020000  1
  H  H34  1  0.83330000  0.18010000  0.50110000  1
  H  H35  1  0.06390000  0.12350000  0.52310000  1
  H  H36  1  0.83080000  0.09190000  0.69300000  1
  H  H37  1  0.97140000  0.06460000  0.81250000  1
  H  H38  1  0.57150000  0.04470000  0.11050000  1
  H  H39  1  0.65430000  0.02450000  0.86930000  1
  C  C40  1  0.91898000  0.99284000  0.78552000  1
  C  C41  1  0.16565000  0.98981000  0.28582000  1
  C  C42  1  0.54670000  0.95687000  0.09272000  1
  C  C43  1  0.65527000  0.92631000  0.59984000  1
  C  C44  1  0.41197000  0.91467000  0.10425000  1
  C  C45  1  0.79427000  0.91232000  0.04150000  1
  C  C46  1  0.75555000  0.90805000  0.67436000  1
  C  C47  1  0.64536000  0.86894000  0.05470000  1
  C  C48  1  0.76700000  0.79123000  0.70738000  1
  C  C49  1  0.96477000  0.79002000  0.45802000  1
  C  C50  1  0.85490000  0.78268000  0.77831000  1
  C  C51  1  0.10292000  0.75720000  0.47184000  1
  C  C52  1  0.60292000  0.74280000  0.02816000  1
  C  C53  1  0.35490000  0.71732000  0.72169000  1
  C  C54  1  0.46477000  0.70998000  0.04198000  1
  C  C55  1  0.26700000  0.70877000  0.79262000  1
  C  C56  1  0.14536000  0.63106000  0.44530000  1
  C  C57  1  0.25555000  0.59195000  0.82564000  1
  C  C58  1  0.29427000  0.58768000  0.45850000  1
  C  C59  1  0.91197000  0.58533000  0.39575000  1
  C  C60  1  0.15527000  0.57369000  0.90016000  1
  C  C61  1  0.04670000  0.54313000  0.40728000  1
  C  C62  1  0.66565000  0.51019000  0.21418000  1
  C  C63  1  0.41898000  0.50716000  0.71448000  1
  C  C64  1  0.58102000  0.49284000  0.28552000  1
  C  C65  1  0.33435000  0.48981000  0.78582000  1
  C  C66  1  0.95330000  0.45687000  0.59272000  1
  C  C67  1  0.84473000  0.42631000  0.09984000  1
  C  C68  1  0.08803000  0.41467000  0.60425000  1
  C  C69  1  0.70573000  0.41232000  0.54150000  1
  C  C70  1  0.74445000  0.40805000  0.17436000  1
  C  C71  1  0.85464000  0.36894000  0.55470000  1
  C  C72  1  0.73300000  0.29123000  0.20738000  1
  C  C73  1  0.53523000  0.29002000  0.95802000  1
  C  C74  1  0.64510000  0.28268000  0.27831000  1
  C  C75  1  0.39708000  0.25720000  0.97184000  1
  C  C76  1  0.89708000  0.24280000  0.52816000  1
  C  C77  1  0.14510000  0.21732000  0.22169000  1
  C  C78  1  0.03523000  0.20998000  0.54198000  1
  C  C79  1  0.23300000  0.20877000  0.29262000  1
  C  C80  1  0.35464000  0.13106000  0.94530000  1
  C  C81  1  0.24445000  0.09195000  0.32564000  1
  C  C82  1  0.20573000  0.08768000  0.95850000  1
  C  C83  1  0.58803000  0.08533000  0.89575000  1
  C  C84  1  0.34473000  0.07369000  0.40016000  1
  C  C85  1  0.45330000  0.04313000  0.90728000  1
  C  C86  1  0.83435000  0.01019000  0.71418000  1
  C  C87  1  0.08102000  0.00716000  0.21448000  1
  N  N88  1  0.93027000  0.88107000  0.81779000  1
  N  N89  1  0.37023000  0.79318000  0.08027000  1
  N  N90  1  0.87023000  0.70682000  0.41973000  1
  N  N91  1  0.43027000  0.61893000  0.68221000  1
  N  N92  1  0.56973000  0.38107000  0.31779000  1
  N  N93  1  0.12977000  0.29318000  0.58027000  1
  N  N94  1  0.62977000  0.20682000  0.91973000  1
  N  N95  1  0.06973000  0.11893000  0.18221000  1
  O  O96  1  0.18233000  0.96956000  0.94478000  1
  O  O97  1  0.34439000  0.96622000  0.42759000  1
  O  O98  1  0.57715000  0.83254000  0.57269000  1
  O  O99  1  0.88244000  0.82559000  0.01681000  1
  O  O100  1  0.38244000  0.67441000  0.48319000  1
  O  O101  1  0.07715000  0.66746000  0.92731000  1
  O  O102  1  0.84439000  0.53378000  0.07241000  1
  O  O103  1  0.68233000  0.53044000  0.55522000  1
  O  O104  1  0.31767000  0.46956000  0.44478000  1
  O  O105  1  0.15561000  0.46622000  0.92759000  1
  O  O106  1  0.92285000  0.33254000  0.07269000  1
  O  O107  1  0.61756000  0.32559000  0.51681000  1
  O  O108  1  0.11756000  0.17441000  0.98319000  1
  O  O109  1  0.42285000  0.16746000  0.42731000  1
  O  O110  1  0.65561000  0.03378000  0.57241000  1
  O  O111  1  0.81767000  0.03044000  0.05522000  1
