# generated using pymatgen
data_Co3W6C6(S4N3)2
_symmetry_space_group_name_H-M   'P 1'
_cell_length_a   13.11200000
_cell_length_b   13.11200000
_cell_length_c   18.03000000
_cell_angle_alpha   92.68580000
_cell_angle_beta   92.68580000
_cell_angle_gamma   113.13600000
_symmetry_Int_Tables_number   1
_chemical_formula_structural   Co3W6C6(S4N3)2
_chemical_formula_sum   'Co6 W12 C12 S16 N12'
_cell_volume   2840.16891281
_cell_formula_units_Z   2
loop_
 _symmetry_equiv_pos_site_id
 _symmetry_equiv_pos_as_xyz
  1  'x, y, z'
loop_
 _atom_site_type_symbol
 _atom_site_label
 _atom_site_symmetry_multiplicity
 _atom_site_fract_x
 _atom_site_fract_y
 _atom_site_fract_z
 _atom_site_occupancy
  Co  Co0  1  0.50000000  1.00000000  0.50000000  1
  Co  Co1  1  0.71529000  0.79551000  0.69440000  1
  Co  Co2  1  0.79551000  0.71529000  0.19440000  1
  Co  Co3  1  0.00000000  0.50000000  1.00000000  1
  Co  Co4  1  0.20449000  0.28471000  0.80560000  1
  Co  Co5  1  0.28471000  0.20449000  0.30560000  1
  W  W6  1  0.53864000  0.95188000  0.90875000  1
  W  W7  1  0.58267000  0.93293000  0.05245000  1
  W  W8  1  0.37262000  0.86660000  0.99798000  1
  W  W9  1  0.13340000  0.62738000  0.50202000  1
  W  W10  1  0.93293000  0.58267000  0.55245000  1
  W  W11  1  0.95188000  0.53864000  0.40875000  1
  W  W12  1  0.04812000  0.46136000  0.59125000  1
  W  W13  1  0.06707000  0.41733000  0.44755000  1
  W  W14  1  0.86660000  0.37262000  0.49798000  1
  W  W15  1  0.62738000  0.13340000  0.00202000  1
  W  W16  1  0.41733000  0.06707000  0.94755000  1
  W  W17  1  0.46136000  0.04812000  0.09125000  1
  C  C18  1  0.59330000  0.89510000  0.80920000  1
  C  C19  1  0.67820000  0.85700000  0.10760000  1
  C  C20  1  0.28240000  0.77220000  0.50690000  1
  C  C21  1  0.22780000  0.71760000  0.99310000  1
  C  C22  1  0.85700000  0.67820000  0.60760000  1
  C  C23  1  0.89510000  0.59330000  0.30920000  1
  C  C24  1  0.10490000  0.40670000  0.69080000  1
  C  C25  1  0.14300000  0.32180000  0.39240000  1
  C  C26  1  0.77220000  0.28240000  0.00690000  1
  C  C27  1  0.71760000  0.22780000  0.49310000  1
  C  C28  1  0.32180000  0.14300000  0.89240000  1
  C  C29  1  0.40670000  0.10490000  0.19080000  1
  S  S30  1  0.27100000  0.98160000  0.03350000  1
  S  S31  1  0.34240000  0.89560000  0.86550000  1
  S  S32  1  0.42340000  0.86040000  0.13040000  1
  S  S33  1  0.49280000  0.77180000  0.96360000  1
  S  S34  1  0.01840000  0.72900000  0.46650000  1
  S  S35  1  0.10440000  0.65760000  0.63450000  1
  S  S36  1  0.13960000  0.57660000  0.36960000  1
  S  S37  1  0.22820000  0.50720000  0.53640000  1
  S  S38  1  0.77180000  0.49280000  0.46360000  1
  S  S39  1  0.86040000  0.42340000  0.63040000  1
  S  S40  1  0.89560000  0.34240000  0.36550000  1
  S  S41  1  0.98160000  0.27100000  0.53350000  1
  S  S42  1  0.50720000  0.22820000  0.03640000  1
  S  S43  1  0.57660000  0.13960000  0.86960000  1
  S  S44  1  0.65760000  0.10440000  0.13450000  1
  S  S45  1  0.72900000  0.01840000  0.96650000  1
  N  N46  1  0.62410000  0.85910000  0.76010000  1
  N  N47  1  0.36410000  0.84830000  0.50310000  1
  N  N48  1  0.72880000  0.81180000  0.13650000  1
  N  N49  1  0.81180000  0.72880000  0.63650000  1
  N  N50  1  0.15170000  0.63590000  0.99690000  1
  N  N51  1  0.85910000  0.62410000  0.26010000  1
  N  N52  1  0.14090000  0.37590000  0.73990000  1
  N  N53  1  0.84830000  0.36410000  0.00310000  1
  N  N54  1  0.18820000  0.27120000  0.36350000  1
  N  N55  1  0.27120000  0.18820000  0.86350000  1
  N  N56  1  0.63590000  0.15170000  0.49690000  1
  N  N57  1  0.37590000  0.14090000  0.23990000  1
