# generated using pymatgen
data_NiHC4O3
_symmetry_space_group_name_H-M   'P 1'
_cell_length_a   6.75450000
_cell_length_b   15.05110000
_cell_length_c   15.05111454
_cell_angle_alpha   117.80306035
_cell_angle_beta   98.60336200
_cell_angle_gamma   98.60310000
_symmetry_Int_Tables_number   1
_chemical_formula_structural   NiHC4O3
_chemical_formula_sum   'Ni6 H6 C24 O18'
_cell_volume   1295.48351069
_cell_formula_units_Z   6
loop_
 _symmetry_equiv_pos_site_id
 _symmetry_equiv_pos_as_xyz
  1  'x, y, z'
loop_
 _atom_site_type_symbol
 _atom_site_label
 _atom_site_symmetry_multiplicity
 _atom_site_fract_x
 _atom_site_fract_y
 _atom_site_fract_z
 _atom_site_occupancy
  Ni  Ni0  1  0.39880000  0.58600000  0.28110000  1
  Ni  Ni1  1  0.81280000  0.41400000  0.69510000  1
  Ni  Ni2  1  0.81280000  0.69510000  0.41400000  1
  Ni  Ni3  1  0.11770000  0.30490000  0.71890000  1
  Ni  Ni4  1  0.11770000  0.71890000  0.30490000  1
  Ni  Ni5  1  0.39880000  0.28110000  0.58600000  1
  H  H6  1  0.55150000  0.00000000  0.43450000  1
  H  H7  1  0.74100000  0.49050000  0.49050000  1
  H  H8  1  0.25050000  0.50950000  0.00000000  1
  H  H9  1  0.11700000  0.56550000  0.56550000  1
  H  H10  1  0.55150000  0.43450000  0.00000000  1
  H  H11  1  0.25050000  0.00000000  0.50950000  1
  C  C12  1  0.50840000  0.55750000  0.46370000  1
  C  C13  1  0.95090000  0.44250000  0.90620000  1
  C  C14  1  0.58830000  0.49245000  0.49245000  1
  C  C15  1  0.09585000  0.50755000  0.00000000  1
  C  C16  1  0.56060000  0.81320000  0.35460000  1
  C  C17  1  0.74740000  0.18680000  0.54140000  1
  C  C18  1  0.67545000  0.00000000  0.44035000  1
  C  C19  1  0.72760000  0.90930000  0.42650000  1
  C  C20  1  0.81830000  0.09070000  0.51720000  1
  C  C21  1  0.95090000  0.90620000  0.44250000  1
  C  C22  1  0.04470000  0.09380000  0.53630000  1
  C  C23  1  0.74740000  0.54140000  0.18680000  1
  C  C24  1  0.20600000  0.45860000  0.64540000  1
  C  C25  1  0.09585000  0.00000000  0.50755000  1
  C  C26  1  0.23510000  0.55965000  0.55965000  1
  C  C27  1  0.67545000  0.44035000  0.00000000  1
  C  C28  1  0.81830000  0.51720000  0.09070000  1
  C  C29  1  0.30110000  0.48280000  0.57350000  1
  C  C30  1  0.20600000  0.64540000  0.45860000  1
  C  C31  1  0.56060000  0.35460000  0.81320000  1
  C  C32  1  0.30110000  0.57350000  0.48280000  1
  C  C33  1  0.72760000  0.42650000  0.90930000  1
  C  C34  1  0.04470000  0.53630000  0.09380000  1
  C  C35  1  0.50840000  0.46370000  0.55750000  1
  O  O36  1  0.36980000  0.82680000  0.33560000  1
  O  O37  1  0.54300000  0.17320000  0.50880000  1
  O  O38  1  0.56190000  0.57980000  0.39790000  1
  O  O39  1  0.98210000  0.42020000  0.81810000  1
  O  O40  1  0.59460000  0.72760000  0.34720000  1
  O  O41  1  0.86700000  0.27240000  0.61960000  1
  O  O42  1  0.54300000  0.50880000  0.17320000  1
  O  O43  1  0.03420000  0.49120000  0.66440000  1
  O  O44  1  0.03420000  0.66440000  0.49120000  1
  O  O45  1  0.36980000  0.33560000  0.82680000  1
  O  O46  1  0.98210000  0.81810000  0.42020000  1
  O  O47  1  0.16400000  0.18190000  0.60210000  1
  O  O48  1  0.86700000  0.61960000  0.27240000  1
  O  O49  1  0.24740000  0.38040000  0.65280000  1
  O  O50  1  0.24740000  0.65280000  0.38040000  1
  O  O51  1  0.59460000  0.34720000  0.72760000  1
  O  O52  1  0.16400000  0.60210000  0.18190000  1
  O  O53  1  0.56190000  0.39790000  0.57980000  1
