# generated using pymatgen
data_Fe4H16C32N24Cl
_symmetry_space_group_name_H-M   'P 1'
_cell_length_a   26.91814095
_cell_length_b   26.91814095
_cell_length_c   26.91814095
_cell_angle_alpha   60.00000000
_cell_angle_beta   60.00000000
_cell_angle_gamma   60.00000000
_symmetry_Int_Tables_number   1
_chemical_formula_structural   Fe4H16C32N24Cl
_chemical_formula_sum   'Fe24 H96 C192 N144 Cl6'
_cell_volume   13791.77586261
_cell_formula_units_Z   6
loop_
 _symmetry_equiv_pos_site_id
 _symmetry_equiv_pos_as_xyz
  1  'x, y, z'
loop_
 _atom_site_type_symbol
 _atom_site_label
 _atom_site_symmetry_multiplicity
 _atom_site_fract_x
 _atom_site_fract_y
 _atom_site_fract_z
 _atom_site_occupancy
  C  C0  1  0.05981000  0.80457000  0.61523000  1
  C  C1  1  0.47961000  0.38477000  0.19543000  1
  C  C2  1  0.88477000  0.97961000  0.69543000  1
  C  C3  1  0.55981000  0.30457000  0.02039000  1
  C  C4  1  0.97961000  0.88477000  0.44019000  1
  C  C5  1  0.30457000  0.55981000  0.11523000  1
  C  C6  1  0.80457000  0.05981000  0.52039000  1
  C  C7  1  0.38477000  0.47961000  0.94019000  1
  C  C8  1  0.06130000  0.76844000  0.59120000  1
  C  C9  1  0.42094000  0.40880000  0.23156000  1
  C  C10  1  0.90880000  0.92094000  0.73156000  1
  C  C11  1  0.56130000  0.26844000  0.07906000  1
  C  C12  1  0.92094000  0.90880000  0.43870000  1
  C  C13  1  0.26844000  0.56130000  0.09120000  1
  C  C14  1  0.76844000  0.06130000  0.57906000  1
  C  C15  1  0.40880000  0.42094000  0.93870000  1
  C  C16  1  0.05964000  0.70660000  0.61984000  1
  C  C17  1  0.38608000  0.38016000  0.29340000  1
  C  C18  1  0.88016000  0.88608000  0.79340000  1
  C  C19  1  0.55964000  0.20660000  0.11392000  1
  C  C20  1  0.88608000  0.88016000  0.44036000  1
  C  C21  1  0.20660000  0.55964000  0.11984000  1
  C  C22  1  0.70660000  0.05964000  0.61392000  1
  C  C23  1  0.38016000  0.38608000  0.94036000  1
  C  C24  1  0.91260000  0.82620000  0.82040000  1
  C  C25  1  0.55920000  0.17960000  0.17380000  1
  C  C26  1  0.05920000  0.67960000  0.58740000  1
  C  C27  1  0.32620000  0.41260000  0.32040000  1
  C  C28  1  0.67960000  0.05920000  0.67380000  1
  C  C29  1  0.41260000  0.32620000  0.94080000  1
  C  C30  1  0.82620000  0.91260000  0.44080000  1
  C  C31  1  0.17960000  0.55920000  0.08740000  1
  C  C32  1  0.05920000  0.67380000  0.67960000  1
  C  C33  1  0.41260000  0.32040000  0.32620000  1
  C  C34  1  0.82040000  0.91260000  0.82620000  1
  C  C35  1  0.55920000  0.17380000  0.08740000  1
  C  C36  1  0.91260000  0.82040000  0.44080000  1
  C  C37  1  0.17380000  0.55920000  0.17960000  1
  C  C38  1  0.67380000  0.05920000  0.58740000  1
  C  C39  1  0.32040000  0.41260000  0.94080000  1
  C  C40  1  0.88608000  0.79340000  0.88016000  1
  C  C41  1  0.55964000  0.11984000  0.20660000  1
  C  C42  1  0.05964000  0.61984000  0.61392000  1
  C  C43  1  0.29340000  0.38608000  0.38016000  1
  C  C44  1  0.61984000  0.05964000  0.70660000  1
  C  C45  1  0.38608000  0.29340000  0.94036000  1
  C  C46  1  0.79340000  0.88608000  0.44036000  1
  C  C47  1  0.11984000  0.55964000  0.11392000  1
  C  C48  1  0.97961000  0.69543000  0.88477000  1
  C  C49  1  0.55981000  0.11523000  0.30457000  1
  C  C50  1  0.05981000  0.61523000  0.52039000  1
  C  C51  1  0.19543000  0.47961000  0.38477000  1
  C  C52  1  0.61523000  0.05981000  0.80457000  1
  C  C53  1  0.47961000  0.19543000  0.94019000  1
  C  C54  1  0.69543000  0.97961000  0.44019000  1
  C  C55  1  0.11523000  0.55981000  0.02039000  1
  C  C56  1  0.05964000  0.61392000  0.70660000  1
  C  C57  1  0.38016000  0.29340000  0.38608000  1
  C  C58  1  0.79340000  0.88016000  0.88608000  1
  C  C59  1  0.55964000  0.11392000  0.11984000  1
  C  C60  1  0.88016000  0.79340000  0.44036000  1
  C  C61  1  0.11392000  0.55964000  0.20660000  1
  C  C62  1  0.61392000  0.05964000  0.61984000  1
  C  C63  1  0.29340000  0.38016000  0.94036000  1
  C  C64  1  0.92094000  0.73156000  0.90880000  1
  C  C65  1  0.56130000  0.09120000  0.26844000  1
  C  C66  1  0.06130000  0.59120000  0.57906000  1
  C  C67  1  0.23156000  0.42094000  0.40880000  1
  C  C68  1  0.59120000  0.06130000  0.76844000  1
  C  C69  1  0.42094000  0.23156000  0.93870000  1
  C  C70  1  0.73156000  0.92094000  0.43870000  1
  C  C71  1  0.09120000  0.56130000  0.07906000  1
  C  C72  1  0.82620000  0.82040000  0.91260000  1
  C  C73  1  0.55920000  0.08740000  0.17960000  1
  C  C74  1  0.05920000  0.58740000  0.67380000  1
  C  C75  1  0.32040000  0.32620000  0.41260000  1
  C  C76  1  0.58740000  0.05920000  0.67960000  1
  C  C77  1  0.32620000  0.32040000  0.94080000  1
  C  C78  1  0.82040000  0.82620000  0.44080000  1
  C  C79  1  0.08740000  0.55920000  0.17380000  1
  C  C80  1  0.06130000  0.57906000  0.76844000  1
  C  C81  1  0.40880000  0.23156000  0.42094000  1
  C  C82  1  0.73156000  0.90880000  0.92094000  1
  C  C83  1  0.56130000  0.07906000  0.09120000  1
  C  C84  1  0.90880000  0.73156000  0.43870000  1
  C  C85  1  0.07906000  0.56130000  0.26844000  1
  C  C86  1  0.57906000  0.06130000  0.59120000  1
  C  C87  1  0.23156000  0.40880000  0.93870000  1
  C  C88  1  0.05981000  0.52039000  0.80457000  1
  C  C89  1  0.38477000  0.19543000  0.47961000  1
  C  C90  1  0.69543000  0.88477000  0.97961000  1
  C  C91  1  0.55981000  0.02039000  0.11523000  1
  C  C92  1  0.88477000  0.69543000  0.44019000  1
  C  C93  1  0.02039000  0.55981000  0.30457000  1
  C  C94  1  0.52039000  0.05981000  0.61523000  1
  C  C95  1  0.19543000  0.38477000  0.94019000  1
  C  C96  1  0.80457000  0.61523000  0.05981000  1
  C  C97  1  0.47961000  0.94019000  0.38477000  1
  C  C98  1  0.97961000  0.44019000  0.69543000  1
  C  C99  1  0.11523000  0.30457000  0.55981000  1
  C  C100  1  0.44019000  0.97961000  0.88477000  1
  C  C101  1  0.30457000  0.11523000  0.02039000  1
  C  C102  1  0.61523000  0.80457000  0.52039000  1
  C  C103  1  0.94019000  0.47961000  0.19543000  1
  C  C104  1  0.76844000  0.59120000  0.06130000  1
  C  C105  1  0.42094000  0.93870000  0.40880000  1
  C  C106  1  0.92094000  0.43870000  0.73156000  1
  C  C107  1  0.09120000  0.26844000  0.56130000  1
  C  C108  1  0.43870000  0.92094000  0.90880000  1
  C  C109  1  0.26844000  0.09120000  0.07906000  1
  C  C110  1  0.59120000  0.76844000  0.57906000  1
  C  C111  1  0.93870000  0.42094000  0.23156000  1
  C  C112  1  0.91260000  0.44080000  0.82620000  1
  C  C113  1  0.17960000  0.17380000  0.55920000  1
  C  C114  1  0.67380000  0.67960000  0.05920000  1
  C  C115  1  0.41260000  0.94080000  0.32040000  1
  C  C116  1  0.67960000  0.67380000  0.58740000  1
  C  C117  1  0.94080000  0.41260000  0.32620000  1
  C  C118  1  0.44080000  0.91260000  0.82040000  1
  C  C119  1  0.17380000  0.17960000  0.08740000  1
  C  C120  1  0.90880000  0.43870000  0.92094000  1
  C  C121  1  0.26844000  0.07906000  0.56130000  1
  C  C122  1  0.57906000  0.76844000  0.06130000  1
  C  C123  1  0.40880000  0.93870000  0.23156000  1
  C  C124  1  0.76844000  0.57906000  0.59120000  1
  C  C125  1  0.93870000  0.40880000  0.42094000  1
  C  C126  1  0.43870000  0.90880000  0.73156000  1
  C  C127  1  0.07906000  0.26844000  0.09120000  1
  C  C128  1  0.70660000  0.61984000  0.05964000  1
  C  C129  1  0.38608000  0.94036000  0.38016000  1
  C  C130  1  0.88608000  0.44036000  0.79340000  1
  C  C131  1  0.11984000  0.20660000  0.55964000  1
  C  C132  1  0.44036000  0.88608000  0.88016000  1
  C  C133  1  0.20660000  0.11984000  0.11392000  1
  C  C134  1  0.61984000  0.70660000  0.61392000  1
  C  C135  1  0.94036000  0.38608000  0.29340000  1
  C  C136  1  0.88477000  0.44019000  0.97961000  1
  C  C137  1  0.30457000  0.02039000  0.55981000  1
  C  C138  1  0.52039000  0.80457000  0.05981000  1
  C  C139  1  0.38477000  0.94019000  0.19543000  1
  C  C140  1  0.80457000  0.52039000  0.61523000  1
  C  C141  1  0.94019000  0.38477000  0.47961000  1
  C  C142  1  0.44019000  0.88477000  0.69543000  1
  C  C143  1  0.02039000  0.30457000  0.11523000  1
  C  C144  1  0.88016000  0.44036000  0.88608000  1
  C  C145  1  0.20660000  0.11392000  0.55964000  1
  C  C146  1  0.61392000  0.70660000  0.05964000  1
  C  C147  1  0.38016000  0.94036000  0.29340000  1
  C  C148  1  0.70660000  0.61392000  0.61984000  1
  C  C149  1  0.94036000  0.38016000  0.38608000  1
  C  C150  1  0.44036000  0.88016000  0.79340000  1
  C  C151  1  0.11392000  0.20660000  0.11984000  1
  C  C152  1  0.67960000  0.58740000  0.05920000  1
  C  C153  1  0.32620000  0.94080000  0.41260000  1
  C  C154  1  0.82620000  0.44080000  0.82040000  1
  C  C155  1  0.08740000  0.17960000  0.55920000  1
  C  C156  1  0.44080000  0.82620000  0.91260000  1
  C  C157  1  0.17960000  0.08740000  0.17380000  1
  C  C158  1  0.58740000  0.67960000  0.67380000  1
  C  C159  1  0.94080000  0.32620000  0.32040000  1
  C  C160  1  0.82040000  0.44080000  0.91260000  1
  C  C161  1  0.17380000  0.08740000  0.55920000  1
  C  C162  1  0.58740000  0.67380000  0.05920000  1
  C  C163  1  0.32040000  0.94080000  0.32620000  1
  C  C164  1  0.67380000  0.58740000  0.67960000  1
  C  C165  1  0.94080000  0.32040000  0.41260000  1
  C  C166  1  0.44080000  0.82040000  0.82620000  1
  C  C167  1  0.08740000  0.17380000  0.17960000  1
  C  C168  1  0.61984000  0.61392000  0.05964000  1
  C  C169  1  0.29340000  0.94036000  0.38608000  1
  C  C170  1  0.79340000  0.44036000  0.88016000  1
  C  C171  1  0.11392000  0.11984000  0.55964000  1
  C  C172  1  0.44036000  0.79340000  0.88608000  1
  C  C173  1  0.11984000  0.11392000  0.20660000  1
  C  C174  1  0.61392000  0.61984000  0.70660000  1
  C  C175  1  0.94036000  0.29340000  0.38016000  1
  C  C176  1  0.59120000  0.57906000  0.06130000  1
  C  C177  1  0.23156000  0.93870000  0.42094000  1
  C  C178  1  0.73156000  0.43870000  0.90880000  1
  C  C179  1  0.07906000  0.09120000  0.56130000  1
  C  C180  1  0.43870000  0.73156000  0.92094000  1
  C  C181  1  0.09120000  0.07906000  0.26844000  1
  C  C182  1  0.57906000  0.59120000  0.76844000  1
  C  C183  1  0.93870000  0.23156000  0.40880000  1
  C  C184  1  0.61523000  0.52039000  0.05981000  1
  C  C185  1  0.19543000  0.94019000  0.47961000  1
  C  C186  1  0.69543000  0.44019000  0.88477000  1
  C  C187  1  0.02039000  0.11523000  0.55981000  1
  C  C188  1  0.44019000  0.69543000  0.97961000  1
  C  C189  1  0.11523000  0.02039000  0.30457000  1
  C  C190  1  0.52039000  0.61523000  0.80457000  1
  C  C191  1  0.94019000  0.19543000  0.38477000  1
  Cl  Cl192  1  1.00000000  1.00000000  0.50000000  1
  Cl  Cl193  1  0.50000000  0.50000000  0.00000000  1
  Cl  Cl194  1  1.00000000  0.50000000  1.00000000  1
  Cl  Cl195  1  0.50000000  0.00000000  0.50000000  1
  Cl  Cl196  1  0.50000000  0.00000000  1.00000000  1
  Cl  Cl197  1  0.00000000  0.50000000  0.50000000  1
  Fe  Fe198  1  0.06414000  0.93586000  0.57226000  1
  Fe  Fe199  1  0.57226000  0.42774000  0.06414000  1
  Fe  Fe200  1  0.07226000  0.92774000  0.43586000  1
  Fe  Fe201  1  0.43586000  0.56414000  0.07226000  1
  Fe  Fe202  1  0.92774000  0.07226000  0.56414000  1
  Fe  Fe203  1  0.56414000  0.43586000  0.92774000  1
  Fe  Fe204  1  0.93586000  0.06414000  0.42774000  1
  Fe  Fe205  1  0.42774000  0.57226000  0.93586000  1
  Fe  Fe206  1  0.07226000  0.56414000  0.92774000  1
  Fe  Fe207  1  0.56414000  0.07226000  0.43586000  1
  Fe  Fe208  1  0.57226000  0.06414000  0.93586000  1
  Fe  Fe209  1  0.06414000  0.57226000  0.42774000  1
  Fe  Fe210  1  0.93586000  0.57226000  0.06414000  1
  Fe  Fe211  1  0.57226000  0.93586000  0.42774000  1
  Fe  Fe212  1  0.07226000  0.43586000  0.56414000  1
  Fe  Fe213  1  0.43586000  0.07226000  0.92774000  1
  Fe  Fe214  1  0.06414000  0.42774000  0.93586000  1
  Fe  Fe215  1  0.42774000  0.06414000  0.57226000  1
  Fe  Fe216  1  0.56414000  0.92774000  0.07226000  1
  Fe  Fe217  1  0.92774000  0.56414000  0.43586000  1
  Fe  Fe218  1  0.92774000  0.43586000  0.07226000  1
  Fe  Fe219  1  0.43586000  0.92774000  0.56414000  1
  Fe  Fe220  1  0.93586000  0.42774000  0.57226000  1
  Fe  Fe221  1  0.42774000  0.93586000  0.06414000  1
  H  H222  1  0.05670000  0.79370000  0.65590000  1
  H  H223  1  0.50630000  0.34410000  0.20630000  1
  H  H224  1  0.84410000  0.00630000  0.70630000  1
  H  H225  1  0.55670000  0.29370000  0.99370000  1
  H  H226  1  0.00630000  0.84410000  0.44330000  1
  H  H227  1  0.29370000  0.55670000  0.15590000  1
  H  H228  1  0.79370000  0.05670000  0.49370000  1
  H  H229  1  0.34410000  0.50630000  0.94330000  1
  H  H230  1  0.95310000  0.80770000  0.79790000  1
  H  H231  1  0.55870000  0.20210000  0.19230000  1
  H  H232  1  0.05870000  0.70210000  0.54690000  1
  H  H233  1  0.30770000  0.45310000  0.29790000  1
  H  H234  1  0.70210000  0.05870000  0.69230000  1
  H  H235  1  0.45310000  0.30770000  0.94130000  1
  H  H236  1  0.80770000  0.95310000  0.44130000  1
  H  H237  1  0.20210000  0.55870000  0.04690000  1
  H  H238  1  0.05870000  0.69230000  0.70210000  1
  H  H239  1  0.45310000  0.29790000  0.30770000  1
  H  H240  1  0.79790000  0.95310000  0.80770000  1
  H  H241  1  0.55870000  0.19230000  0.04690000  1
  H  H242  1  0.95310000  0.79790000  0.44130000  1
  H  H243  1  0.19230000  0.55870000  0.20210000  1
  H  H244  1  0.69230000  0.05870000  0.54690000  1
  H  H245  1  0.29790000  0.45310000  0.94130000  1
  H  H246  1  0.00630000  0.70630000  0.84410000  1
  H  H247  1  0.55670000  0.15590000  0.29370000  1
  H  H248  1  0.05670000  0.65590000  0.49370000  1
  H  H249  1  0.20630000  0.50630000  0.34410000  1
  H  H250  1  0.65590000  0.05670000  0.79370000  1
  H  H251  1  0.50630000  0.20630000  0.94330000  1
  H  H252  1  0.70630000  0.00630000  0.44330000  1
  H  H253  1  0.15590000  0.55670000  0.99370000  1
  H  H254  1  0.80770000  0.79790000  0.95310000  1
  H  H255  1  0.55870000  0.04690000  0.20210000  1
  H  H256  1  0.05870000  0.54690000  0.69230000  1
  H  H257  1  0.29790000  0.30770000  0.45310000  1
  H  H258  1  0.54690000  0.05870000  0.70210000  1
  H  H259  1  0.30770000  0.29790000  0.94130000  1
  H  H260  1  0.79790000  0.80770000  0.44130000  1
  H  H261  1  0.04690000  0.55870000  0.19230000  1
  H  H262  1  0.05670000  0.49370000  0.79370000  1
  H  H263  1  0.34410000  0.20630000  0.50630000  1
  H  H264  1  0.70630000  0.84410000  0.00630000  1
  H  H265  1  0.55670000  0.99370000  0.15590000  1
  H  H266  1  0.84410000  0.70630000  0.44330000  1
  H  H267  1  0.99370000  0.55670000  0.29370000  1
  H  H268  1  0.49370000  0.05670000  0.65590000  1
  H  H269  1  0.20630000  0.34410000  0.94330000  1
  H  H270  1  0.79370000  0.65590000  0.05670000  1
  H  H271  1  0.50630000  0.94330000  0.34410000  1
  H  H272  1  0.00630000  0.44330000  0.70630000  1
  H  H273  1  0.15590000  0.29370000  0.55670000  1
  H  H274  1  0.44330000  0.00630000  0.84410000  1
  H  H275  1  0.29370000  0.15590000  0.99370000  1
  H  H276  1  0.65590000  0.79370000  0.49370000  1
  H  H277  1  0.94330000  0.50630000  0.20630000  1
  H  H278  1  0.95310000  0.44130000  0.80770000  1
  H  H279  1  0.20210000  0.19230000  0.55870000  1
  H  H280  1  0.69230000  0.70210000  0.05870000  1
  H  H281  1  0.45310000  0.94130000  0.29790000  1
  H  H282  1  0.70210000  0.69230000  0.54690000  1
  H  H283  1  0.94130000  0.45310000  0.30770000  1
  H  H284  1  0.44130000  0.95310000  0.79790000  1
  H  H285  1  0.19230000  0.20210000  0.04690000  1
  H  H286  1  0.84410000  0.44330000  0.00630000  1
  H  H287  1  0.29370000  0.99370000  0.55670000  1
  H  H288  1  0.49370000  0.79370000  0.05670000  1
  H  H289  1  0.34410000  0.94330000  0.20630000  1
  H  H290  1  0.79370000  0.49370000  0.65590000  1
  H  H291  1  0.94330000  0.34410000  0.50630000  1
  H  H292  1  0.44330000  0.84410000  0.70630000  1
  H  H293  1  0.99370000  0.29370000  0.15590000  1
  H  H294  1  0.70210000  0.54690000  0.05870000  1
  H  H295  1  0.30770000  0.94130000  0.45310000  1
  H  H296  1  0.80770000  0.44130000  0.79790000  1
  H  H297  1  0.04690000  0.20210000  0.55870000  1
  H  H298  1  0.44130000  0.80770000  0.95310000  1
  H  H299  1  0.20210000  0.04690000  0.19230000  1
  H  H300  1  0.54690000  0.70210000  0.69230000  1
  H  H301  1  0.94130000  0.30770000  0.29790000  1
  H  H302  1  0.79790000  0.44130000  0.95310000  1
  H  H303  1  0.19230000  0.04690000  0.55870000  1
  H  H304  1  0.54690000  0.69230000  0.05870000  1
  H  H305  1  0.29790000  0.94130000  0.30770000  1
  H  H306  1  0.69230000  0.54690000  0.70210000  1
  H  H307  1  0.94130000  0.29790000  0.45310000  1
  H  H308  1  0.44130000  0.79790000  0.80770000  1
  H  H309  1  0.04690000  0.19230000  0.20210000  1
  H  H310  1  0.65590000  0.49370000  0.05670000  1
  H  H311  1  0.20630000  0.94330000  0.50630000  1
  H  H312  1  0.70630000  0.44330000  0.84410000  1
  H  H313  1  0.99370000  0.15590000  0.55670000  1
  H  H314  1  0.44330000  0.70630000  0.00630000  1
  H  H315  1  0.15590000  0.99370000  0.29370000  1
  H  H316  1  0.49370000  0.65590000  0.79370000  1
  H  H317  1  0.94330000  0.20630000  0.34410000  1
  N  N318  1  0.97923000  0.94235000  0.64579000  1
  N  N319  1  0.56737000  0.35421000  0.05765000  1
  N  N320  1  0.06737000  0.85421000  0.52077000  1
  N  N321  1  0.44235000  0.47923000  0.14579000  1
  N  N322  1  0.85421000  0.06737000  0.55765000  1
  N  N323  1  0.47923000  0.44235000  0.93263000  1
  N  N324  1  0.94235000  0.97923000  0.43263000  1
  N  N325  1  0.35421000  0.56737000  0.02077000  1
  N  N326  1  0.06352000  0.85738000  0.57080000  1
  N  N327  1  0.49170000  0.42920000  0.14262000  1
  N  N328  1  0.92920000  0.99170000  0.64262000  1
  N  N329  1  0.56352000  0.35738000  0.00830000  1
  N  N330  1  0.99170000  0.92920000  0.43648000  1
  N  N331  1  0.35738000  0.56352000  0.07080000  1
  N  N332  1  0.85738000  0.06352000  0.50830000  1
  N  N333  1  0.42920000  0.49170000  0.93648000  1
  N  N334  1  0.96796000  0.89900000  0.69916000  1
  N  N335  1  0.56612000  0.30084000  0.10100000  1
  N  N336  1  0.06612000  0.80084000  0.53204000  1
  N  N337  1  0.39900000  0.46796000  0.19916000  1
  N  N338  1  0.80084000  0.06612000  0.60100000  1
  N  N339  1  0.46796000  0.39900000  0.93388000  1
  N  N340  1  0.89900000  0.96796000  0.43388000  1
  N  N341  1  0.30084000  0.56612000  0.03204000  1
  N  N342  1  0.06612000  0.60100000  0.80084000  1
  N  N343  1  0.46796000  0.19916000  0.39900000  1
  N  N344  1  0.69916000  0.96796000  0.89900000  1
  N  N345  1  0.56612000  0.10100000  0.03204000  1
  N  N346  1  0.96796000  0.69916000  0.43388000  1
  N  N347  1  0.10100000  0.56612000  0.30084000  1
  N  N348  1  0.60100000  0.06612000  0.53204000  1
  N  N349  1  0.19916000  0.46796000  0.93388000  1
  N  N350  1  0.99170000  0.64262000  0.92920000  1
  N  N351  1  0.56352000  0.07080000  0.35738000  1
  N  N352  1  0.06352000  0.57080000  0.50830000  1
  N  N353  1  0.14262000  0.49170000  0.42920000  1
  N  N354  1  0.57080000  0.06352000  0.85738000  1
  N  N355  1  0.49170000  0.14262000  0.93648000  1
  N  N356  1  0.64262000  0.99170000  0.43648000  1
  N  N357  1  0.07080000  0.56352000  0.00830000  1
  N  N358  1  0.06737000  0.55765000  0.85421000  1
  N  N359  1  0.47923000  0.14579000  0.44235000  1
  N  N360  1  0.64579000  0.97923000  0.94235000  1
  N  N361  1  0.56737000  0.05765000  0.02077000  1
  N  N362  1  0.97923000  0.64579000  0.43263000  1
  N  N363  1  0.05765000  0.56737000  0.35421000  1
  N  N364  1  0.55765000  0.06737000  0.52077000  1
  N  N365  1  0.14579000  0.47923000  0.93263000  1
  N  N366  1  0.89900000  0.69916000  0.96796000  1
  N  N367  1  0.56612000  0.03204000  0.30084000  1
  N  N368  1  0.06612000  0.53204000  0.60100000  1
  N  N369  1  0.19916000  0.39900000  0.46796000  1
  N  N370  1  0.53204000  0.06612000  0.80084000  1
  N  N371  1  0.39900000  0.19916000  0.93388000  1
  N  N372  1  0.69916000  0.89900000  0.43388000  1
  N  N373  1  0.03204000  0.56612000  0.10100000  1
  N  N374  1  0.94235000  0.64579000  0.97923000  1
  N  N375  1  0.56737000  0.02077000  0.35421000  1
  N  N376  1  0.06737000  0.52077000  0.55765000  1
  N  N377  1  0.14579000  0.44235000  0.47923000  1
  N  N378  1  0.52077000  0.06737000  0.85421000  1
  N  N379  1  0.44235000  0.14579000  0.93263000  1
  N  N380  1  0.64579000  0.94235000  0.43263000  1
  N  N381  1  0.02077000  0.56737000  0.05765000  1
  N  N382  1  0.06352000  0.50830000  0.85738000  1
  N  N383  1  0.42920000  0.14262000  0.49170000  1
  N  N384  1  0.64262000  0.92920000  0.99170000  1
  N  N385  1  0.56352000  0.00830000  0.07080000  1
  N  N386  1  0.92920000  0.64262000  0.43648000  1
  N  N387  1  0.00830000  0.56352000  0.35738000  1
  N  N388  1  0.50830000  0.06352000  0.57080000  1
  N  N389  1  0.14262000  0.42920000  0.93648000  1
  N  N390  1  0.85738000  0.57080000  0.06352000  1
  N  N391  1  0.49170000  0.93648000  0.42920000  1
  N  N392  1  0.99170000  0.43648000  0.64262000  1
  N  N393  1  0.07080000  0.35738000  0.56352000  1
  N  N394  1  0.43648000  0.99170000  0.92920000  1
  N  N395  1  0.35738000  0.07080000  0.00830000  1
  N  N396  1  0.57080000  0.85738000  0.50830000  1
  N  N397  1  0.93648000  0.49170000  0.14262000  1
  N  N398  1  0.97923000  0.43263000  0.94235000  1
  N  N399  1  0.35421000  0.05765000  0.56737000  1
  N  N400  1  0.55765000  0.85421000  0.06737000  1
  N  N401  1  0.47923000  0.93263000  0.14579000  1
  N  N402  1  0.85421000  0.55765000  0.52077000  1
  N  N403  1  0.93263000  0.47923000  0.44235000  1
  N  N404  1  0.43263000  0.97923000  0.64579000  1
  N  N405  1  0.05765000  0.35421000  0.02077000  1
  N  N406  1  0.96796000  0.43388000  0.89900000  1
  N  N407  1  0.30084000  0.10100000  0.56612000  1
  N  N408  1  0.60100000  0.80084000  0.06612000  1
  N  N409  1  0.46796000  0.93388000  0.19916000  1
  N  N410  1  0.80084000  0.60100000  0.53204000  1
  N  N411  1  0.93388000  0.46796000  0.39900000  1
  N  N412  1  0.43388000  0.96796000  0.69916000  1
  N  N413  1  0.10100000  0.30084000  0.03204000  1
  N  N414  1  0.85421000  0.52077000  0.06737000  1
  N  N415  1  0.44235000  0.93263000  0.47923000  1
  N  N416  1  0.94235000  0.43263000  0.64579000  1
  N  N417  1  0.02077000  0.35421000  0.56737000  1
  N  N418  1  0.43263000  0.94235000  0.97923000  1
  N  N419  1  0.35421000  0.02077000  0.05765000  1
  N  N420  1  0.52077000  0.85421000  0.55765000  1
  N  N421  1  0.93263000  0.44235000  0.14579000  1
  N  N422  1  0.92920000  0.43648000  0.99170000  1
  N  N423  1  0.35738000  0.00830000  0.56352000  1
  N  N424  1  0.50830000  0.85738000  0.06352000  1
  N  N425  1  0.42920000  0.93648000  0.14262000  1
  N  N426  1  0.85738000  0.50830000  0.57080000  1
  N  N427  1  0.93648000  0.42920000  0.49170000  1
  N  N428  1  0.43648000  0.92920000  0.64262000  1
  N  N429  1  0.00830000  0.35738000  0.07080000  1
  N  N430  1  0.80084000  0.53204000  0.06612000  1
  N  N431  1  0.39900000  0.93388000  0.46796000  1
  N  N432  1  0.89900000  0.43388000  0.69916000  1
  N  N433  1  0.03204000  0.30084000  0.56612000  1
  N  N434  1  0.43388000  0.89900000  0.96796000  1
  N  N435  1  0.30084000  0.03204000  0.10100000  1
  N  N436  1  0.53204000  0.80084000  0.60100000  1
  N  N437  1  0.93388000  0.39900000  0.19916000  1
  N  N438  1  0.69916000  0.43388000  0.96796000  1
  N  N439  1  0.10100000  0.03204000  0.56612000  1
  N  N440  1  0.53204000  0.60100000  0.06612000  1
  N  N441  1  0.19916000  0.93388000  0.39900000  1
  N  N442  1  0.60100000  0.53204000  0.80084000  1
  N  N443  1  0.93388000  0.19916000  0.46796000  1
  N  N444  1  0.43388000  0.69916000  0.89900000  1
  N  N445  1  0.03204000  0.10100000  0.30084000  1
  N  N446  1  0.57080000  0.50830000  0.06352000  1
  N  N447  1  0.14262000  0.93648000  0.49170000  1
  N  N448  1  0.64262000  0.43648000  0.92920000  1
  N  N449  1  0.00830000  0.07080000  0.56352000  1
  N  N450  1  0.43648000  0.64262000  0.99170000  1
  N  N451  1  0.07080000  0.00830000  0.35738000  1
  N  N452  1  0.50830000  0.57080000  0.85738000  1
  N  N453  1  0.93648000  0.14262000  0.42920000  1
  N  N454  1  0.64579000  0.43263000  0.97923000  1
  N  N455  1  0.05765000  0.02077000  0.56737000  1
  N  N456  1  0.52077000  0.55765000  0.06737000  1
  N  N457  1  0.14579000  0.93263000  0.44235000  1
  N  N458  1  0.55765000  0.52077000  0.85421000  1
  N  N459  1  0.93263000  0.14579000  0.47923000  1
  N  N460  1  0.43263000  0.64579000  0.94235000  1
  N  N461  1  0.02077000  0.05765000  0.35421000  1
