# generated using pymatgen
data_LaH9C21(SO2)3
_symmetry_space_group_name_H-M   'P 1'
_cell_length_a   8.20600000
_cell_length_b   14.18330000
_cell_length_c   14.18330000
_cell_angle_alpha   69.96900000
_cell_angle_beta   88.73500000
_cell_angle_gamma   88.73500000
_symmetry_Int_Tables_number   1
_chemical_formula_structural   LaH9C21(SO2)3
_chemical_formula_sum   'La2 H18 C42 S6 O12'
_cell_volume   1550.34585333
_cell_formula_units_Z   2
loop_
 _symmetry_equiv_pos_site_id
 _symmetry_equiv_pos_as_xyz
  1  'x, y, z'
loop_
 _atom_site_type_symbol
 _atom_site_label
 _atom_site_symmetry_multiplicity
 _atom_site_fract_x
 _atom_site_fract_y
 _atom_site_fract_z
 _atom_site_occupancy
  La  La0  1  0.99655000  0.25122000  0.21800000  1
  La  La1  1  0.49655000  0.21800000  0.25122000  1
  H  H2  1  0.97330000  0.77510000  0.33970000  1
  H  H3  1  0.94910000  0.96050000  0.57070000  1
  H  H4  1  0.87330000  0.31430000  0.68650000  1
  H  H5  1  0.86830000  0.78540000  0.64780000  1
  H  H6  1  0.72290000  0.64260000  0.69480000  1
  H  H7  1  0.71540000  0.21720000  0.60440000  1
  H  H8  1  0.57130000  0.71820000  0.40820000  1
  H  H9  1  0.53610000  0.25710000  0.95370000  1
  H  H10  1  0.50270000  0.43680000  0.60220000  1
  H  H11  1  0.47330000  0.33970000  0.77510000  1
  H  H12  1  0.44910000  0.57070000  0.96050000  1
  H  H13  1  0.37330000  0.68650000  0.31430000  1
  H  H14  1  0.36830000  0.64780000  0.78540000  1
  H  H15  1  0.22290000  0.69480000  0.64260000  1
  H  H16  1  0.21540000  0.60440000  0.21720000  1
  H  H17  1  0.07130000  0.40820000  0.71820000  1
  H  H18  1  0.03610000  0.95370000  0.25710000  1
  H  H19  1  0.00270000  0.60220000  0.43680000  1
  C  C20  1  0.93170000  0.41470000  0.55110000  1
  C  C21  1  0.87620000  0.92860000  0.54040000  1
  C  C22  1  0.86350000  0.33300000  0.61580000  1
  C  C23  1  0.84170000  0.07720000  0.37860000  1
  C  C24  1  0.83040000  0.82810000  0.58450000  1
  C  C25  1  0.80600000  0.97580000  0.45020000  1
  C  C26  1  0.78330000  0.31670000  0.46570000  1
  C  C27  1  0.77410000  0.27610000  0.56870000  1
  C  C28  1  0.77100000  0.34050000  0.04630000  1
  C  C29  1  0.72510000  0.79740000  0.52680000  1
  C  C30  1  0.70520000  0.27970000  0.39230000  1
  C  C31  1  0.70000000  0.36760000  0.94540000  1
  C  C32  1  0.67290000  0.62490000  0.64350000  1
  C  C33  1  0.65750000  0.69660000  0.54780000  1
  C  C34  1  0.63280000  0.45220000  0.76740000  1
  C  C35  1  0.61490000  0.52610000  0.66550000  1
  C  C36  1  0.58530000  0.31760000  0.91220000  1
  C  C37  1  0.58140000  0.66980000  0.47360000  1
  C  C38  1  0.54830000  0.36510000  0.81030000  1
  C  C39  1  0.54060000  0.50300000  0.58880000  1
  C  C40  1  0.51980000  0.57400000  0.49280000  1
  C  C41  1  0.43170000  0.55110000  0.41470000  1
  C  C42  1  0.37620000  0.54040000  0.92860000  1
  C  C43  1  0.36350000  0.61580000  0.33300000  1
  C  C44  1  0.34170000  0.37860000  0.07720000  1
  C  C45  1  0.33040000  0.58450000  0.82810000  1
  C  C46  1  0.30600000  0.45020000  0.97580000  1
  C  C47  1  0.28330000  0.46570000  0.31670000  1
  C  C48  1  0.27410000  0.56870000  0.27610000  1
  C  C49  1  0.27100000  0.04630000  0.34050000  1
  C  C50  1  0.22510000  0.52680000  0.79740000  1
  C  C51  1  0.20520000  0.39230000  0.27970000  1
  C  C52  1  0.20000000  0.94540000  0.36760000  1
  C  C53  1  0.17290000  0.64350000  0.62490000  1
  C  C54  1  0.15750000  0.54780000  0.69660000  1
  C  C55  1  0.13280000  0.76740000  0.45220000  1
  C  C56  1  0.11490000  0.66550000  0.52610000  1
  C  C57  1  0.08530000  0.91220000  0.31760000  1
  C  C58  1  0.08140000  0.47360000  0.66980000  1
  C  C59  1  0.04830000  0.81030000  0.36510000  1
  C  C60  1  0.04060000  0.58880000  0.50300000  1
  C  C61  1  0.01980000  0.49280000  0.57400000  1
  S  S62  1  0.90010000  0.42367000  0.42823000  1
  S  S63  1  0.76410000  0.47318000  0.85064000  1
  S  S64  1  0.67870000  0.89592000  0.41864000  1
  S  S65  1  0.40010000  0.42823000  0.42367000  1
  S  S66  1  0.26410000  0.85064000  0.47318000  1
  S  S67  1  0.17870000  0.41864000  0.89592000  1
  O  O68  1  0.94680000  0.12890000  0.39850000  1
  O  O69  1  0.89050000  0.38770000  0.05930000  1
  O  O70  1  0.76370000  0.10880000  0.29580000  1
  O  O71  1  0.75250000  0.31540000  0.30040000  1
  O  O72  1  0.70970000  0.26770000  0.11670000  1
  O  O73  1  0.59390000  0.21820000  0.42080000  1
  O  O74  1  0.44680000  0.39850000  0.12890000  1
  O  O75  1  0.39050000  0.05930000  0.38770000  1
  O  O76  1  0.26370000  0.29580000  0.10880000  1
  O  O77  1  0.25250000  0.30040000  0.31540000  1
  O  O78  1  0.20970000  0.11670000  0.26770000  1
  O  O79  1  0.09390000  0.42080000  0.21820000  1
