# generated using pymatgen
data_TbH2(CO)7
_symmetry_space_group_name_H-M   'P 1'
_cell_length_a   9.91340000
_cell_length_b   9.91340000
_cell_length_c   13.40460000
_cell_angle_alpha   94.60840000
_cell_angle_beta   109.87420000
_cell_angle_gamma   115.57500000
_symmetry_Int_Tables_number   1
_chemical_formula_structural   TbH2(CO)7
_chemical_formula_sum   'Tb4 H8 C28 O28'
_cell_volume   1076.70918587
_cell_formula_units_Z   4
loop_
 _symmetry_equiv_pos_site_id
 _symmetry_equiv_pos_as_xyz
  1  'x, y, z'
loop_
 _atom_site_type_symbol
 _atom_site_label
 _atom_site_symmetry_multiplicity
 _atom_site_fract_x
 _atom_site_fract_y
 _atom_site_fract_z
 _atom_site_occupancy
  Tb  Tb0  1  0.95882000  0.73212000  0.49748000  1
  Tb  Tb1  1  0.73464000  0.46134000  0.00252000  1
  Tb  Tb2  1  0.26536000  0.53866000  0.99748000  1
  Tb  Tb3  1  0.04118000  0.26788000  0.50252000  1
  H  H4  1  0.98830000  0.05310000  0.85320000  1
  H  H5  1  0.82000000  0.76240000  0.82100000  1
  H  H6  1  0.69990000  0.13510000  0.64680000  1
  H  H7  1  0.55860000  0.00100000  0.32100000  1
  H  H8  1  0.44140000  0.99900000  0.67900000  1
  H  H9  1  0.30010000  0.86490000  0.35320000  1
  H  H10  1  0.18000000  0.23760000  0.17900000  1
  H  H11  1  0.01170000  0.94690000  0.14680000  1
  C  C12  1  0.93460000  0.59060000  0.26560000  1
  C  C13  1  0.89910000  0.00200000  0.87050000  1
  C  C14  1  0.88100000  0.23070000  0.96150000  1
  C  C15  1  0.83460000  0.06770000  0.91710000  1
  C  C16  1  0.82500000  0.66900000  0.23440000  1
  C  C17  1  0.80470000  0.83900000  0.85230000  1
  C  C18  1  0.76920000  0.91950000  0.53850000  1
  C  C19  1  0.72440000  0.34240000  0.40120000  1
  C  C20  1  0.68810000  0.81770000  0.88980000  1
  C  C21  1  0.65060000  0.91750000  0.58290000  1
  C  C22  1  0.63150000  0.02860000  0.62950000  1
  C  C23  1  0.57210000  0.20170000  0.38980000  1
  C  C24  1  0.55880000  0.67680000  0.90120000  1
  C  C25  1  0.51330000  0.04760000  0.35230000  1
  C  C26  1  0.48670000  0.95240000  0.64770000  1
  C  C27  1  0.44120000  0.32320000  0.09880000  1
  C  C28  1  0.42790000  0.79830000  0.61020000  1
  C  C29  1  0.36850000  0.97140000  0.37050000  1
  C  C30  1  0.34940000  0.08250000  0.41710000  1
  C  C31  1  0.31190000  0.18230000  0.11020000  1
  C  C32  1  0.27560000  0.65760000  0.59880000  1
  C  C33  1  0.23080000  0.08050000  0.46150000  1
  C  C34  1  0.19530000  0.16100000  0.14770000  1
  C  C35  1  0.17500000  0.33100000  0.76560000  1
  C  C36  1  0.16540000  0.93230000  0.08290000  1
  C  C37  1  0.11900000  0.76930000  0.03850000  1
  C  C38  1  0.10090000  0.99800000  0.12950000  1
  C  C39  1  0.06540000  0.40940000  0.73440000  1
  O  O40  1  0.98970000  0.66580000  0.03810000  1
  O  O41  1  0.97260000  0.37460000  0.63540000  1
  O  O42  1  0.92460000  0.50230000  0.18810000  1
  O  O43  1  0.87230000  0.04840000  0.53810000  1
  O  O44  1  0.83830000  0.31960000  0.40050000  1
  O  O45  1  0.81420000  0.73650000  0.31190000  1
  O  O46  1  0.78700000  0.25360000  0.99600000  1
  O  O47  1  0.76080000  0.66280000  0.13540000  1
  O  O48  1  0.75760000  0.79100000  0.50400000  1
  O  O49  1  0.72760000  0.47000000  0.41120000  1
  O  O50  1  0.70120000  0.95630000  0.92850000  1
  O  O51  1  0.58090000  0.56220000  0.90050000  1
  O  O52  1  0.55880000  0.31640000  0.08880000  1
  O  O53  1  0.52780000  0.77270000  0.57150000  1
  O  O54  1  0.47220000  0.22730000  0.42850000  1
  O  O55  1  0.44120000  0.68360000  0.91120000  1
  O  O56  1  0.41910000  0.43780000  0.09950000  1
  O  O57  1  0.29880000  0.04370000  0.07150000  1
  O  O58  1  0.27240000  0.53000000  0.58880000  1
  O  O59  1  0.24240000  0.20900000  0.49600000  1
  O  O60  1  0.23920000  0.33720000  0.86460000  1
  O  O61  1  0.21300000  0.74640000  0.00400000  1
  O  O62  1  0.18580000  0.26350000  0.68810000  1
  O  O63  1  0.16170000  0.68040000  0.59950000  1
  O  O64  1  0.12770000  0.95160000  0.46190000  1
  O  O65  1  0.07540000  0.49770000  0.81190000  1
  O  O66  1  0.02740000  0.62540000  0.36460000  1
  O  O67  1  0.01030000  0.33420000  0.96190000  1
