# generated using pymatgen
data_GdH6C21(NO3)6
_symmetry_space_group_name_H-M   'P 1'
_cell_length_a   13.13700000
_cell_length_b   23.32600000
_cell_length_c   30.22700000
_cell_angle_alpha   90.00000000
_cell_angle_beta   90.00000000
_cell_angle_gamma   102.07500000
_symmetry_Int_Tables_number   1
_chemical_formula_structural   GdH6C21(NO3)6
_chemical_formula_sum   'Gd8 H48 C168 N48 O144'
_cell_volume   9057.63229345
_cell_formula_units_Z   8
loop_
 _symmetry_equiv_pos_site_id
 _symmetry_equiv_pos_as_xyz
  1  'x, y, z'
loop_
 _atom_site_type_symbol
 _atom_site_label
 _atom_site_symmetry_multiplicity
 _atom_site_fract_x
 _atom_site_fract_y
 _atom_site_fract_z
 _atom_site_occupancy
  Gd  Gd0  1  0.85030000  0.72857000  0.77018000  1
  Gd  Gd1  1  0.84925000  0.19915000  0.25487000  1
  Gd  Gd2  1  0.65075000  0.30085000  0.75487000  1
  Gd  Gd3  1  0.64970000  0.77143000  0.27018000  1
  Gd  Gd4  1  0.35030000  0.22857000  0.72982000  1
  Gd  Gd5  1  0.34925000  0.69915000  0.24513000  1
  Gd  Gd6  1  0.15075000  0.80085000  0.74513000  1
  Gd  Gd7  1  0.14970000  0.27143000  0.22982000  1
  H  H8  1  0.98320000  0.96340000  0.69460000  1
  H  H9  1  0.96940000  0.54700000  0.79550000  1
  H  H10  1  0.92680000  0.72520000  0.91550000  1
  H  H11  1  0.92400000  0.21410000  0.40000000  1
  H  H12  1  0.82450000  0.67970000  0.38670000  1
  H  H13  1  0.81690000  0.86850000  0.79080000  1
  H  H14  1  0.80880000  0.35650000  0.90240000  1
  H  H15  1  0.80870000  0.34060000  0.27030000  1
  H  H16  1  0.80680000  0.19060000  0.86830000  1
  H  H17  1  0.80200000  0.84560000  0.41290000  1
  H  H18  1  0.78490000  0.70080000  0.62590000  1
  H  H19  1  0.78470000  0.18400000  0.10630000  1
  H  H20  1  0.71530000  0.31600000  0.60630000  1
  H  H21  1  0.71510000  0.79920000  0.12590000  1
  H  H22  1  0.69800000  0.65440000  0.91290000  1
  H  H23  1  0.69320000  0.30940000  0.36830000  1
  H  H24  1  0.69130000  0.15940000  0.77030000  1
  H  H25  1  0.69120000  0.14350000  0.40240000  1
  H  H26  1  0.68310000  0.63150000  0.29080000  1
  H  H27  1  0.67550000  0.82030000  0.88670000  1
  H  H28  1  0.57600000  0.28590000  0.90000000  1
  H  H29  1  0.57320000  0.77480000  0.41550000  1
  H  H30  1  0.53060000  0.95300000  0.29550000  1
  H  H31  1  0.51680000  0.53660000  0.19460000  1
  H  H32  1  0.48320000  0.46340000  0.80540000  1
  H  H33  1  0.46940000  0.04700000  0.70450000  1
  H  H34  1  0.42680000  0.22520000  0.58450000  1
  H  H35  1  0.42400000  0.71410000  0.10000000  1
  H  H36  1  0.32450000  0.17970000  0.11330000  1
  H  H37  1  0.31690000  0.36850000  0.70920000  1
  H  H38  1  0.30880000  0.85650000  0.59760000  1
  H  H39  1  0.30870000  0.84060000  0.22970000  1
  H  H40  1  0.30680000  0.69060000  0.63170000  1
  H  H41  1  0.30200000  0.34560000  0.08710000  1
  H  H42  1  0.28490000  0.20080000  0.87410000  1
  H  H43  1  0.28470000  0.68400000  0.39370000  1
  H  H44  1  0.21530000  0.81600000  0.89370000  1
  H  H45  1  0.21510000  0.29920000  0.37410000  1
  H  H46  1  0.19800000  0.15440000  0.58710000  1
  H  H47  1  0.19320000  0.80940000  0.13170000  1
  H  H48  1  0.19130000  0.65940000  0.72970000  1
  H  H49  1  0.19120000  0.64350000  0.09760000  1
  H  H50  1  0.18310000  0.13150000  0.20920000  1
  H  H51  1  0.17550000  0.32030000  0.61330000  1
  H  H52  1  0.07600000  0.78590000  0.60000000  1
  H  H53  1  0.07320000  0.27480000  0.08450000  1
  H  H54  1  0.03060000  0.45300000  0.20450000  1
  H  H55  1  0.01680000  0.03660000  0.30540000  1
  C  C56  1  0.99610000  0.34490000  0.23453000  1
  C  C57  1  0.99340000  0.74170000  0.92559000  1
  C  C58  1  0.99110000  0.87110000  0.74441000  1
  C  C59  1  0.99060000  0.23170000  0.40944000  1
  C  C60  1  0.98400000  0.76690000  0.54583000  1
  C  C61  1  0.98180000  0.26320000  0.03022000  1
  C  C62  1  0.96500000  0.44400000  0.21743000  1
  C  C63  1  0.95850000  0.74680000  0.66981000  1
  C  C64  1  0.95740000  0.22680000  0.15259000  1
  C  C65  1  0.93460000  0.74310000  0.62080000  1
  C  C66  1  0.93300000  0.22890000  0.10340000  1
  C  C67  1  0.92880000  0.38970000  0.23656000  1
  C  C68  1  0.92540000  0.95580000  0.71317000  1
  C  C69  1  0.91090000  0.90920000  0.74237000  1
  C  C70  1  0.90210000  0.48450000  0.21782000  1
  C  C71  1  0.88620000  0.74320000  0.52937000  1
  C  C72  1  0.88410000  0.23960000  0.01263000  1
  C  C73  1  0.85950000  0.74890000  0.48165000  1
  C  C74  1  0.85630000  0.25130000  0.96592000  1
  C  C75  1  0.85530000  0.70430000  0.45019000  1
  C  C76  1  0.85310000  0.99090000  0.71185000  1
  C  C77  1  0.84750000  0.20970000  0.93174000  1
  C  C78  1  0.84110000  0.30570000  0.95248000  1
  C  C79  1  0.84030000  0.80140000  0.46558000  1
  C  C80  1  0.83550000  0.71830000  0.60584000  1
  C  C81  1  0.83520000  0.20440000  0.08731000  1
  C  C82  1  0.83330000  0.37710000  0.25760000  1
  C  C83  1  0.82800000  0.71060000  0.40651000  1
  C  C84  1  0.82610000  0.89920000  0.77051000  1
  C  C85  1  0.81590000  0.22020000  0.88940000  1
  C  C86  1  0.81490000  0.31870000  0.90979000  1
  C  C87  1  0.81410000  0.80950000  0.42213000  1
  C  C88  1  0.81210000  0.21000000  0.04351000  1
  C  C89  1  0.81130000  0.71930000  0.56159000  1
  C  C90  1  0.80580000  0.76340000  0.39238000  1
  C  C91  1  0.80530000  0.47490000  0.23909000  1
  C  C92  1  0.79790000  0.27480000  0.87856000  1
  C  C93  1  0.77490000  0.42020000  0.25928000  1
  C  C94  1  0.76940000  0.77080000  0.34596000  1
  C  C95  1  0.76530000  0.98230000  0.73883000  1
  C  C96  1  0.75810000  0.28510000  0.83315000  1
  C  C97  1  0.75550000  0.93540000  0.76807000  1
  C  C98  1  0.74450000  0.56460000  0.26807000  1
  C  C99  1  0.74190000  0.21490000  0.33315000  1
  C  C100  1  0.73470000  0.51770000  0.23883000  1
  C  C101  1  0.73060000  0.72920000  0.84596000  1
  C  C102  1  0.72510000  0.07980000  0.75928000  1
  C  C103  1  0.70210000  0.22520000  0.37856000  1
  C  C104  1  0.69470000  0.02510000  0.73909000  1
  C  C105  1  0.69420000  0.73660000  0.89238000  1
  C  C106  1  0.68870000  0.78070000  0.06159000  1
  C  C107  1  0.68790000  0.29000000  0.54351000  1
  C  C108  1  0.68590000  0.69050000  0.92213000  1
  C  C109  1  0.68510000  0.18130000  0.40979000  1
  C  C110  1  0.68410000  0.27980000  0.38940000  1
  C  C111  1  0.67390000  0.60080000  0.27051000  1
  C  C112  1  0.67200000  0.78940000  0.90651000  1
  C  C113  1  0.66666667  0.12290000  0.75760000  1
  C  C114  1  0.66480000  0.29560000  0.58731000  1
  C  C115  1  0.66450000  0.78170000  0.10584000  1
  C  C116  1  0.65970000  0.69860000  0.96558000  1
  C  C117  1  0.65890000  0.19430000  0.45248000  1
  C  C118  1  0.65250000  0.29030000  0.43174000  1
  C  C119  1  0.64690000  0.50910000  0.21185000  1
  C  C120  1  0.64470000  0.79570000  0.95019000  1
  C  C121  1  0.64370000  0.24870000  0.46592000  1
  C  C122  1  0.64050000  0.75110000  0.98165000  1
  C  C123  1  0.61590000  0.26040000  0.51263000  1
  C  C124  1  0.61380000  0.75680000  0.02937000  1
  C  C125  1  0.59790000  0.01550000  0.71782000  1
  C  C126  1  0.58910000  0.59080000  0.24237000  1
  C  C127  1  0.57460000  0.54420000  0.21317000  1
  C  C128  1  0.57120000  0.11030000  0.73656000  1
  C  C129  1  0.56700000  0.27110000  0.60340000  1
  C  C130  1  0.56540000  0.75690000  0.12080000  1
  C  C131  1  0.54260000  0.27320000  0.65259000  1
  C  C132  1  0.54150000  0.75320000  0.16981000  1
  C  C133  1  0.53500000  0.05600000  0.71743000  1
  C  C134  1  0.51820000  0.23680000  0.53022000  1
  C  C135  1  0.51600000  0.73310000  0.04583000  1
  C  C136  1  0.50940000  0.26830000  0.90944000  1
  C  C137  1  0.50890000  0.62890000  0.24441000  1
  C  C138  1  0.50660000  0.75830000  0.42559000  1
  C  C139  1  0.50390000  0.15510000  0.73453000  1
  C  C140  1  0.49610000  0.84490000  0.26547000  1
  C  C141  1  0.49340000  0.24170000  0.57441000  1
  C  C142  1  0.49110000  0.37110000  0.75559000  1
  C  C143  1  0.49060000  0.73170000  0.09056000  1
  C  C144  1  0.48400000  0.26690000  0.95417000  1
  C  C145  1  0.48180000  0.76320000  0.46978000  1
  C  C146  1  0.46500000  0.94400000  0.28257000  1
  C  C147  1  0.45850000  0.24680000  0.83019000  1
  C  C148  1  0.45740000  0.72680000  0.34741000  1
  C  C149  1  0.43460000  0.24310000  0.87920000  1
  C  C150  1  0.43300000  0.72890000  0.39660000  1
  C  C151  1  0.42880000  0.88970000  0.26344000  1
  C  C152  1  0.42540000  0.45580000  0.78683000  1
  C  C153  1  0.41090000  0.40920000  0.75763000  1
  C  C154  1  0.40210000  0.98450000  0.28218000  1
  C  C155  1  0.38620000  0.24320000  0.97063000  1
  C  C156  1  0.38410000  0.73960000  0.48737000  1
  C  C157  1  0.35950000  0.24890000  0.01835000  1
  C  C158  1  0.35630000  0.75130000  0.53408000  1
  C  C159  1  0.35530000  0.20430000  0.04981000  1
  C  C160  1  0.35310000  0.49090000  0.78815000  1
  C  C161  1  0.34750000  0.70970000  0.56826000  1
  C  C162  1  0.34110000  0.80570000  0.54752000  1
  C  C163  1  0.34030000  0.30140000  0.03442000  1
  C  C164  1  0.33550000  0.21830000  0.89416000  1
  C  C165  1  0.33520000  0.70440000  0.41269000  1
  C  C166  1  0.33333333  0.87710000  0.24240000  1
  C  C167  1  0.32800000  0.21060000  0.09349000  1
  C  C168  1  0.32610000  0.39920000  0.72949000  1
  C  C169  1  0.31590000  0.72020000  0.61060000  1
  C  C170  1  0.31490000  0.81870000  0.59021000  1
  C  C171  1  0.31410000  0.30950000  0.07787000  1
  C  C172  1  0.31210000  0.71000000  0.45649000  1
  C  C173  1  0.31130000  0.21930000  0.93841000  1
  C  C174  1  0.30580000  0.26340000  0.10762000  1
  C  C175  1  0.30530000  0.97490000  0.26091000  1
  C  C176  1  0.29790000  0.77480000  0.62144000  1
  C  C177  1  0.27490000  0.92020000  0.24072000  1
  C  C178  1  0.26940000  0.27080000  0.15404000  1
  C  C179  1  0.26530000  0.48230000  0.76117000  1
  C  C180  1  0.25810000  0.78510000  0.66685000  1
  C  C181  1  0.25550000  0.43540000  0.73193000  1
  C  C182  1  0.24450000  0.06460000  0.23193000  1
  C  C183  1  0.24190000  0.71490000  0.16685000  1
  C  C184  1  0.23470000  0.01770000  0.26117000  1
  C  C185  1  0.23060000  0.22920000  0.65404000  1
  C  C186  1  0.22510000  0.57980000  0.74072000  1
  C  C187  1  0.20210000  0.72520000  0.12144000  1
  C  C188  1  0.19470000  0.52510000  0.76091000  1
  C  C189  1  0.19420000  0.23660000  0.60762000  1
  C  C190  1  0.18870000  0.28070000  0.43841000  1
  C  C191  1  0.18790000  0.79000000  0.95649000  1
  C  C192  1  0.18590000  0.19050000  0.57787000  1
  C  C193  1  0.18510000  0.68130000  0.09021000  1
  C  C194  1  0.18410000  0.77980000  0.11060000  1
  C  C195  1  0.17390000  0.10080000  0.22949000  1
  C  C196  1  0.17200000  0.28940000  0.59349000  1
  C  C197  1  0.16670000  0.62290000  0.74240000  1
  C  C198  1  0.16480000  0.79560000  0.91269000  1
  C  C199  1  0.16450000  0.28170000  0.39416000  1
  C  C200  1  0.15970000  0.19860000  0.53442000  1
  C  C201  1  0.15890000  0.69430000  0.04752000  1
  C  C202  1  0.15250000  0.79030000  0.06826000  1
  C  C203  1  0.14690000  0.00910000  0.28815000  1
  C  C204  1  0.14470000  0.29570000  0.54981000  1
  C  C205  1  0.14370000  0.74870000  0.03408000  1
  C  C206  1  0.14050000  0.25110000  0.51835000  1
  C  C207  1  0.11590000  0.76040000  0.98737000  1
  C  C208  1  0.11380000  0.25680000  0.47063000  1
  C  C209  1  0.09790000  0.51550000  0.78218000  1
  C  C210  1  0.08910000  0.09080000  0.25763000  1
  C  C211  1  0.07460000  0.04420000  0.28683000  1
  C  C212  1  0.07120000  0.61030000  0.76344000  1
  C  C213  1  0.06700000  0.77110000  0.89660000  1
  C  C214  1  0.06540000  0.25690000  0.37920000  1
  C  C215  1  0.04260000  0.77320000  0.84741000  1
  C  C216  1  0.04150000  0.25320000  0.33019000  1
  C  C217  1  0.03500000  0.55600000  0.78257000  1
  C  C218  1  0.01820000  0.73680000  0.96978000  1
  C  C219  1  0.01600000  0.23310000  0.45417000  1
  C  C220  1  0.00940000  0.76830000  0.59056000  1
  C  C221  1  0.00890000  0.12890000  0.25559000  1
  C  C222  1  0.00660000  0.25830000  0.07441000  1
  C  C223  1  0.00390000  0.65510000  0.76547000  1
  N  N224  1  0.94110000  0.53980000  0.19419000  1
  N  N225  1  0.93700000  0.70160000  0.99791000  1
  N  N226  1  0.93290000  0.20300000  0.48407000  1
  N  N227  1  0.88070000  0.64810000  0.46267000  1
  N  N228  1  0.87270000  0.04140000  0.68179000  1
  N  N229  1  0.87110000  0.15190000  0.93965000  1
  N  N230  1  0.85460000  0.35490000  0.98475000  1
  N  N231  1  0.84550000  0.85230000  0.49527000  1
  N  N232  1  0.83140000  0.57590000  0.29953000  1
  N  N233  1  0.82360000  0.09440000  0.78409000  1
  N  N234  1  0.79800000  0.80120000  0.04906000  1
  N  N235  1  0.79410000  0.31740000  0.52947000  1
  N  N236  1  0.70590000  0.18260000  0.02947000  1
  N  N237  1  0.70200000  0.69880000  0.54906000  1
  N  N238  1  0.67640000  0.40560000  0.28409000  1
  N  N239  1  0.66860000  0.92410000  0.79953000  1
  N  N240  1  0.65450000  0.64770000  0.99527000  1
  N  N241  1  0.64540000  0.14510000  0.48475000  1
  N  N242  1  0.62890000  0.34810000  0.43965000  1
  N  N243  1  0.62730000  0.45860000  0.18179000  1
  N  N244  1  0.61930000  0.85190000  0.96267000  1
  N  N245  1  0.56710000  0.29700000  0.98407000  1
  N  N246  1  0.56300000  0.79840000  0.49791000  1
  N  N247  1  0.55890000  0.96020000  0.69419000  1
  N  N248  1  0.44110000  0.03980000  0.30581000  1
  N  N249  1  0.43700000  0.20160000  0.50209000  1
  N  N250  1  0.43290000  0.70300000  0.01593000  1
  N  N251  1  0.38070000  0.14810000  0.03733000  1
  N  N252  1  0.37270000  0.54140000  0.81821000  1
  N  N253  1  0.37110000  0.65190000  0.56035000  1
  N  N254  1  0.35460000  0.85490000  0.51525000  1
  N  N255  1  0.34550000  0.35230000  0.00473000  1
  N  N256  1  0.33140000  0.07590000  0.20047000  1
  N  N257  1  0.32360000  0.59440000  0.71591000  1
  N  N258  1  0.29800000  0.30120000  0.45094000  1
  N  N259  1  0.29410000  0.81740000  0.97053000  1
  N  N260  1  0.20590000  0.68260000  0.47053000  1
  N  N261  1  0.20200000  0.19880000  0.95094000  1
  N  N262  1  0.17640000  0.90560000  0.21591000  1
  N  N263  1  0.16860000  0.42410000  0.70047000  1
  N  N264  1  0.15450000  0.14770000  0.50473000  1
  N  N265  1  0.14540000  0.64510000  0.01525000  1
  N  N266  1  0.12890000  0.84810000  0.06035000  1
  N  N267  1  0.12730000  0.95860000  0.31821000  1
  N  N268  1  0.11930000  0.35190000  0.53733000  1
  N  N269  1  0.06710000  0.79700000  0.51593000  1
  N  N270  1  0.06300000  0.29840000  0.00209000  1
  N  N271  1  0.05890000  0.46020000  0.80581000  1
  O  O272  1  0.96740000  0.44600000  0.81360000  1
  O  O273  1  0.96400000  0.82031000  0.76098000  1
  O  O274  1  0.96250000  0.06720000  0.67760000  1
  O  O275  1  0.95910000  0.21869000  0.31949000  1
  O  O276  1  0.95500000  0.29186000  0.24111000  1
  O  O277  1  0.95270000  0.74864000  0.83620000  1
  O  O278  1  0.93880000  0.71080000  0.03759000  1
  O  O279  1  0.93450000  0.21810000  0.52281000  1
  O  O280  1  0.91970000  0.10916000  0.26944000  1
  O  O281  1  0.91660000  0.57040000  0.28630000  1
  O  O282  1  0.90950000  0.63778000  0.77356000  1
  O  O283  1  0.90170000  0.61700000  0.43361000  1
  O  O284  1  0.89350000  0.12480000  0.90849000  1
  O  O285  1  0.89220000  0.71578000  0.69420000  1
  O  O286  1  0.88790000  0.40390000  0.97031000  1
  O  O287  1  0.88440000  0.20105000  0.17664000  1
  O  O288  1  0.87990000  0.63530000  0.50152000  1
  O  O289  1  0.87750000  0.56640000  0.18040000  1
  O  O290  1  0.87280000  0.13470000  0.97664000  1
  O  O291  1  0.87200000  0.66380000  0.97965000  1
  O  O292  1  0.86960000  0.90078000  0.47868000  1
  O  O293  1  0.86800000  0.16310000  0.46889000  1
  O  O294  1  0.86500000  0.14565000  0.78734000  1
  O  O295  1  0.86110000  0.81820000  0.07855000  1
  O  O296  1  0.85710000  0.05488000  0.80120000  1
  O  O297  1  0.85010000  0.34610000  0.55520000  1
  O  O298  1  0.83010000  0.34380000  0.02300000  1
  O  O299  1  0.82590000  0.84332000  0.53445000  1
  O  O300  1  0.82580000  0.30540000  0.49396000  1
  O  O301  1  0.82310000  0.79790000  0.01023000  1
  O  O302  1  0.81470000  0.59180000  0.33628000  1
  O  O303  1  0.80210000  0.05530000  0.66212000  1
  O  O304  1  0.77610000  0.25868000  0.30974000  1
  O  O305  1  0.75710000  0.33690000  0.82129000  1
  O  O306  1  0.75560000  0.72695000  0.32060000  1
  O  O307  1  0.75010000  0.81922000  0.33537000  1
  O  O308  1  0.74990000  0.68078000  0.83537000  1
  O  O309  1  0.74440000  0.77305000  0.82060000  1
  O  O310  1  0.74290000  0.16310000  0.32129000  1
  O  O311  1  0.72390000  0.24132000  0.80974000  1
  O  O312  1  0.69790000  0.44470000  0.16212000  1
  O  O313  1  0.68530000  0.90820000  0.83628000  1
  O  O314  1  0.67690000  0.70210000  0.51023000  1
  O  O315  1  0.67420000  0.19460000  0.99396000  1
  O  O316  1  0.67410000  0.65668000  0.03445000  1
  O  O317  1  0.66990000  0.15620000  0.52300000  1
  O  O318  1  0.64990000  0.15390000  0.05520000  1
  O  O319  1  0.64290000  0.44512000  0.30120000  1
  O  O320  1  0.63890000  0.68180000  0.57855000  1
  O  O321  1  0.63500000  0.35435000  0.28734000  1
  O  O322  1  0.63200000  0.33690000  0.96889000  1
  O  O323  1  0.63040000  0.59922000  0.97868000  1
  O  O324  1  0.62800000  0.83620000  0.47965000  1
  O  O325  1  0.62720000  0.36530000  0.47664000  1
  O  O326  1  0.62250000  0.93360000  0.68040000  1
  O  O327  1  0.62010000  0.86470000  0.00152000  1
  O  O328  1  0.61560000  0.29895000  0.67664000  1
  O  O329  1  0.61210000  0.09610000  0.47031000  1
  O  O330  1  0.60780000  0.78422000  0.19420000  1
  O  O331  1  0.60650000  0.37520000  0.40849000  1
  O  O332  1  0.59830000  0.88300000  0.93361000  1
  O  O333  1  0.59050000  0.86222000  0.27356000  1
  O  O334  1  0.58340000  0.92960000  0.78630000  1
  O  O335  1  0.58030000  0.39084000  0.76944000  1
  O  O336  1  0.56550000  0.28190000  0.02281000  1
  O  O337  1  0.56120000  0.78920000  0.53759000  1
  O  O338  1  0.54730000  0.75136000  0.33620000  1
  O  O339  1  0.54500000  0.20814000  0.74111000  1
  O  O340  1  0.54090000  0.28131000  0.81949000  1
  O  O341  1  0.53750000  0.43280000  0.17760000  1
  O  O342  1  0.53600000  0.67969000  0.26098000  1
  O  O343  1  0.53260000  0.05400000  0.31360000  1
  O  O344  1  0.46740000  0.94600000  0.68640000  1
  O  O345  1  0.46400000  0.32031000  0.73902000  1
  O  O346  1  0.46250000  0.56720000  0.82240000  1
  O  O347  1  0.45910000  0.71869000  0.18051000  1
  O  O348  1  0.45500000  0.79186000  0.25889000  1
  O  O349  1  0.45270000  0.24864000  0.66380000  1
  O  O350  1  0.43880000  0.21080000  0.46241000  1
  O  O351  1  0.43450000  0.71810000  0.97719000  1
  O  O352  1  0.41970000  0.60916000  0.23056000  1
  O  O353  1  0.41660000  0.07040000  0.21370000  1
  O  O354  1  0.40950000  0.13778000  0.72644000  1
  O  O355  1  0.40170000  0.11700000  0.06639000  1
  O  O356  1  0.39350000  0.62480000  0.59151000  1
  O  O357  1  0.39220000  0.21578000  0.80580000  1
  O  O358  1  0.38790000  0.90390000  0.52969000  1
  O  O359  1  0.38440000  0.70105000  0.32336000  1
  O  O360  1  0.37990000  0.13530000  0.99848000  1
  O  O361  1  0.37750000  0.06640000  0.31960000  1
  O  O362  1  0.37280000  0.63470000  0.52336000  1
  O  O363  1  0.37200000  0.16380000  0.52035000  1
  O  O364  1  0.36960000  0.40078000  0.02132000  1
  O  O365  1  0.36800000  0.66310000  0.03111000  1
  O  O366  1  0.36500000  0.64565000  0.71266000  1
  O  O367  1  0.36110000  0.31820000  0.42145000  1
  O  O368  1  0.35710000  0.55488000  0.69880000  1
  O  O369  1  0.35010000  0.84610000  0.94480000  1
  O  O370  1  0.33010000  0.84380000  0.47700000  1
  O  O371  1  0.32590000  0.34332000  0.96555000  1
  O  O372  1  0.32580000  0.80540000  0.00604000  1
  O  O373  1  0.32310000  0.29790000  0.48977000  1
  O  O374  1  0.31470000  0.09180000  0.16372000  1
  O  O375  1  0.30210000  0.55530000  0.83788000  1
  O  O376  1  0.27610000  0.75868000  0.19026000  1
  O  O377  1  0.25710000  0.83690000  0.67871000  1
  O  O378  1  0.25560000  0.22695000  0.17940000  1
  O  O379  1  0.25010000  0.31922000  0.16463000  1
  O  O380  1  0.24990000  0.18078000  0.66463000  1
  O  O381  1  0.24440000  0.27305000  0.67940000  1
  O  O382  1  0.24290000  0.66310000  0.17871000  1
  O  O383  1  0.22390000  0.74132000  0.69026000  1
  O  O384  1  0.19790000  0.94470000  0.33788000  1
  O  O385  1  0.18530000  0.40820000  0.66372000  1
  O  O386  1  0.17690000  0.20210000  0.98977000  1
  O  O387  1  0.17420000  0.69460000  0.50604000  1
  O  O388  1  0.17410000  0.15668000  0.46555000  1
  O  O389  1  0.16990000  0.65620000  0.97700000  1
  O  O390  1  0.14990000  0.65390000  0.44480000  1
  O  O391  1  0.14290000  0.94512000  0.19880000  1
  O  O392  1  0.13890000  0.18180000  0.92145000  1
  O  O393  1  0.13500000  0.85435000  0.21266000  1
  O  O394  1  0.13200000  0.83690000  0.53111000  1
  O  O395  1  0.13040000  0.09922000  0.52132000  1
  O  O396  1  0.12800000  0.33620000  0.02035000  1
  O  O397  1  0.12720000  0.86530000  0.02336000  1
  O  O398  1  0.12250000  0.43360000  0.81960000  1
  O  O399  1  0.12010000  0.36470000  0.49848000  1
  O  O400  1  0.11560000  0.79895000  0.82336000  1
  O  O401  1  0.11210000  0.59610000  0.02969000  1
  O  O402  1  0.10780000  0.28422000  0.30580000  1
  O  O403  1  0.10650000  0.87520000  0.09151000  1
  O  O404  1  0.09830000  0.38300000  0.56639000  1
  O  O405  1  0.09050000  0.36222000  0.22644000  1
  O  O406  1  0.08340000  0.42960000  0.71370000  1
  O  O407  1  0.08030000  0.89084000  0.73056000  1
  O  O408  1  0.06550000  0.78190000  0.47719000  1
  O  O409  1  0.06120000  0.28920000  0.96241000  1
  O  O410  1  0.04730000  0.25136000  0.16380000  1
  O  O411  1  0.04500000  0.70814000  0.75889000  1
  O  O412  1  0.04090000  0.78131000  0.68051000  1
  O  O413  1  0.03750000  0.93280000  0.32240000  1
  O  O414  1  0.03600000  0.17969000  0.23902000  1
  O  O415  1  0.03260000  0.55400000  0.18640000  1
