# generated using pymatgen
data_CdHC4O3
_symmetry_space_group_name_H-M   'P 1'
_cell_length_a   7.23850000
_cell_length_b   15.71018606
_cell_length_c   15.71018606
_cell_angle_alpha   117.68549787
_cell_angle_beta   98.83468256
_cell_angle_gamma   98.83468256
_symmetry_Int_Tables_number   1
_chemical_formula_structural   CdHC4O3
_chemical_formula_sum   'Cd6 H6 C24 O18'
_cell_volume   1510.68860939
_cell_formula_units_Z   6
loop_
 _symmetry_equiv_pos_site_id
 _symmetry_equiv_pos_as_xyz
  1  'x, y, z'
loop_
 _atom_site_type_symbol
 _atom_site_label
 _atom_site_symmetry_multiplicity
 _atom_site_fract_x
 _atom_site_fract_y
 _atom_site_fract_z
 _atom_site_occupancy
  C  C0  1  0.39260000  0.46490000  0.55050000  1
  C  C1  1  0.43070000  0.56120000  0.46440000  1
  C  C2  1  0.33110000  0.52490000  0.51390000  1
  C  C3  1  0.26750000  0.43670000  0.60720000  1
  C  C4  1  0.66030000  0.39280000  0.82950000  1
  C  C5  1  0.16920000  0.82950000  0.43670000  1
  C  C6  1  0.86950000  0.90320000  0.43880000  1
  C  C7  1  0.84210000  0.44950000  0.91440000  1
  C  C8  1  0.03370000  0.46440000  0.90320000  1
  C  C9  1  0.07230000  0.91440000  0.46490000  1
  C  C10  1  0.80620000  0.98900000  0.47510000  1
  C  C11  1  0.81720000  0.48610000  0.01100000  1
  C  C12  1  0.18280000  0.51390000  0.98900000  1
  C  C13  1  0.19380000  0.01100000  0.52490000  1
  C  C14  1  0.92770000  0.08560000  0.53510000  1
  C  C15  1  0.96630000  0.53560000  0.09680000  1
  C  C16  1  0.15790000  0.55050000  0.08560000  1
  C  C17  1  0.13050000  0.09680000  0.56120000  1
  C  C18  1  0.83080000  0.17050000  0.56330000  1
  C  C19  1  0.33970000  0.60720000  0.17050000  1
  C  C20  1  0.73250000  0.56330000  0.39280000  1
  C  C21  1  0.66890000  0.47510000  0.48610000  1
  C  C22  1  0.56930000  0.43880000  0.53560000  1
  C  C23  1  0.60740000  0.53510000  0.44950000  1
  Cd  Cd24  1  0.21740000  0.31516000  0.74400000  1
  Cd  Cd25  1  0.90224000  0.42884000  0.68484000  1
  Cd  Cd26  1  0.52660000  0.74400000  0.42884000  1
  Cd  Cd27  1  0.47340000  0.25600000  0.57116000  1
  Cd  Cd28  1  0.09776000  0.57116000  0.31516000  1
  Cd  Cd29  1  0.78260000  0.68484000  0.25600000  1
  H  H30  1  0.21499000  0.54124000  0.52357000  1
  H  H31  1  0.67375000  0.98233000  0.45876000  1
  H  H32  1  0.69142000  0.47643000  0.01767000  1
  H  H33  1  0.30858000  0.52357000  0.98233000  1
  H  H34  1  0.32625000  0.01767000  0.54124000  1
  H  H35  1  0.78501000  0.45876000  0.47643000  1
  O  O36  1  0.31650000  0.38412000  0.64298000  1
  O  O37  1  0.35690000  0.62028000  0.43622000  1
  O  O38  1  0.12570000  0.47200000  0.62080000  1
  O  O39  1  0.67352000  0.35702000  0.74114000  1
  O  O40  1  0.06762000  0.74114000  0.38412000  1
  O  O41  1  0.73662000  0.81594000  0.37972000  1
  O  O42  1  0.50490000  0.37920000  0.85120000  1
  O  O43  1  0.07932000  0.43622000  0.81594000  1
  O  O44  1  0.34630000  0.85120000  0.47200000  1
  O  O45  1  0.65370000  0.14880000  0.52800000  1
  O  O46  1  0.92068000  0.56378000  0.18406000  1
  O  O47  1  0.49510000  0.62080000  0.14880000  1
  O  O48  1  0.26338000  0.18406000  0.62028000  1
  O  O49  1  0.93238000  0.25886000  0.61588000  1
  O  O50  1  0.32648000  0.64298000  0.25886000  1
  O  O51  1  0.87430000  0.52800000  0.37920000  1
  O  O52  1  0.64310000  0.37972000  0.56378000  1
  O  O53  1  0.68350000  0.61588000  0.35702000  1
