# generated using pymatgen
data_Ce3P4(CO3)8
_symmetry_space_group_name_H-M   'P 1'
_cell_length_a   11.09690000
_cell_length_b   13.40160000
_cell_length_c   15.93150378
_cell_angle_alpha   114.87252929
_cell_angle_beta   110.38149496
_cell_angle_gamma   90.00000000
_symmetry_Int_Tables_number   1
_chemical_formula_structural   Ce3P4(CO3)8
_chemical_formula_sum   'Ce6 P8 C16 O48'
_cell_volume   1984.82775640
_cell_formula_units_Z   2
loop_
 _symmetry_equiv_pos_site_id
 _symmetry_equiv_pos_as_xyz
  1  'x, y, z'
loop_
 _atom_site_type_symbol
 _atom_site_label
 _atom_site_symmetry_multiplicity
 _atom_site_fract_x
 _atom_site_fract_y
 _atom_site_fract_z
 _atom_site_occupancy
  Ce  Ce0  1  0.02760000  0.92860000  0.55600000  1
  Ce  Ce1  1  0.47160000  0.07140000  0.44400000  1
  Ce  Ce2  1  0.49820000  1.00000000  1.00000000  1
  Ce  Ce3  1  0.52760000  0.62740000  0.55600000  1
  Ce  Ce4  1  0.97160000  0.37260000  0.44400000  1
  Ce  Ce5  1  0.99820000  0.00000000  0.00000000  1
  P  P6  1  0.02030000  0.88280000  0.17700000  1
  P  P7  1  0.27740000  0.39530000  0.39580000  1
  P  P8  1  0.34330000  0.70580000  0.82300000  1
  P  P9  1  0.38160000  0.99950000  0.60420000  1
  P  P10  1  0.52030000  0.29420000  0.17700000  1
  P  P11  1  0.77740000  0.00050000  0.39580000  1
  P  P12  1  0.84330000  0.11720000  0.82300000  1
  P  P13  1  0.88160000  0.60470000  0.60420000  1
  C  C14  1  0.02550000  0.16070000  0.48280000  1
  C  C15  1  0.04270000  0.67790000  0.51720000  1
  C  C16  1  0.12370000  0.01670000  0.26400000  1
  C  C17  1  0.21450000  0.03720000  0.21840000  1
  C  C18  1  0.35970000  0.75270000  0.73600000  1
  C  C19  1  0.37960000  0.31030000  0.44080000  1
  C  C20  1  0.43880000  0.86950000  0.55920000  1
  C  C21  1  0.49610000  0.81880000  0.78160000  1
  C  C22  1  0.52550000  0.32210000  0.48280000  1
  C  C23  1  0.54270000  0.83930000  0.51720000  1
  C  C24  1  0.62370000  0.24730000  0.26400000  1
  C  C25  1  0.71450000  0.18120000  0.21840000  1
  C  C26  1  0.85970000  0.98330000  0.73600000  1
  C  C27  1  0.87960000  0.13050000  0.44080000  1
  C  C28  1  0.93880000  0.68970000  0.55920000  1
  C  C29  1  0.99610000  0.96280000  0.78160000  1
  O  O30  1  0.05430000  0.92550000  0.72080000  1
  O  O31  1  0.06720000  0.03460000  0.87100000  1
  O  O32  1  0.08070000  0.21160000  0.44980000  1
  O  O33  1  0.08580000  0.58470000  0.49740000  1
  O  O34  1  0.08840000  0.08730000  0.50260000  1
  O  O35  1  0.10840000  0.79490000  0.15300000  1
  O  O36  1  0.13090000  0.76180000  0.55020000  1
  O  O37  1  0.13340000  0.35300000  0.36940000  1
  O  O38  1  0.19620000  0.96540000  0.12900000  1
  O  O39  1  0.19730000  0.01920000  0.35680000  1
  O  O40  1  0.21060000  0.63020000  0.77520000  1
  O  O41  1  0.26400000  0.98360000  0.63060000  1
  O  O42  1  0.30130000  0.39500000  0.30600000  1
  O  O43  1  0.30970000  0.23460000  0.45260000  1
  O  O44  1  0.31340000  0.51850000  0.47600000  1
  O  O45  1  0.33350000  0.07450000  0.27920000  1
  O  O46  1  0.33740000  0.04250000  0.52400000  1
  O  O47  1  0.34050000  0.66240000  0.64320000  1
  O  O48  1  0.35260000  0.81000000  0.91780000  1
  O  O49  1  0.35710000  0.78200000  0.54740000  1
  O  O50  1  0.43480000  0.19000000  0.08220000  1
  O  O51  1  0.43540000  0.36980000  0.22480000  1
  O  O52  1  0.45540000  0.64190000  0.84700000  1
  O  O53  1  0.49530000  0.08900000  0.69400000  1
  O  O54  1  0.55430000  0.79530000  0.72080000  1
  O  O55  1  0.56720000  0.83640000  0.87100000  1
  O  O56  1  0.58070000  0.23820000  0.44980000  1
  O  O57  1  0.58580000  0.91270000  0.49740000  1
  O  O58  1  0.58840000  0.41530000  0.50260000  1
  O  O59  1  0.60840000  0.35810000  0.15300000  1
  O  O60  1  0.63090000  0.78840000  0.55020000  1
  O  O61  1  0.63340000  0.01640000  0.36940000  1
  O  O62  1  0.69620000  0.16360000  0.12900000  1
  O  O63  1  0.69730000  0.33760000  0.35680000  1
  O  O64  1  0.71060000  0.14500000  0.77520000  1
  O  O65  1  0.76400000  0.64700000  0.63060000  1
  O  O66  1  0.80130000  0.91100000  0.30600000  1
  O  O67  1  0.80970000  0.21800000  0.45260000  1
  O  O68  1  0.81340000  0.95750000  0.47600000  1
  O  O69  1  0.83350000  0.20470000  0.27920000  1
  O  O70  1  0.83740000  0.48150000  0.52400000  1
  O  O71  1  0.84050000  0.98080000  0.64320000  1
  O  O72  1  0.85260000  0.10780000  0.91780000  1
  O  O73  1  0.85710000  0.76540000  0.54740000  1
  O  O74  1  0.93480000  0.89220000  0.08220000  1
  O  O75  1  0.93540000  0.85500000  0.22480000  1
  O  O76  1  0.95540000  0.20510000  0.84700000  1
  O  O77  1  0.99530000  0.60500000  0.69400000  1
