# generated using pymatgen
data_Cu7H12C16(ClO11)2
_symmetry_space_group_name_H-M   'P 1'
_cell_length_a   10.04300000
_cell_length_b   10.21000000
_cell_length_c   14.11900000
_cell_angle_alpha   92.16000000
_cell_angle_beta   90.00000000
_cell_angle_gamma   90.00000000
_symmetry_Int_Tables_number   1
_chemical_formula_structural   Cu7H12C16(ClO11)2
_chemical_formula_sum   'Cu14 H24 C32 Cl4 O44'
_cell_volume   1446.71989961
_cell_formula_units_Z   2
loop_
 _symmetry_equiv_pos_site_id
 _symmetry_equiv_pos_as_xyz
  1  'x, y, z'
loop_
 _atom_site_type_symbol
 _atom_site_label
 _atom_site_symmetry_multiplicity
 _atom_site_fract_x
 _atom_site_fract_y
 _atom_site_fract_z
 _atom_site_occupancy
  Cu  Cu0  1  0.87350000  0.80052000  0.23054000  1
  Cu  Cu1  1  0.76750000  0.06658000  0.21111000  1
  Cu  Cu2  1  0.75127000  0.07449000  0.71423000  1
  Cu  Cu3  1  0.74263000  0.56187000  0.71219000  1
  Cu  Cu4  1  0.73651000  0.55785000  0.12391000  1
  Cu  Cu5  1  0.71825000  0.59318000  0.33612000  1
  Cu  Cu6  1  0.59410000  0.34521000  0.21768000  1
  Cu  Cu7  1  0.40590000  0.84521000  0.21768000  1
  Cu  Cu8  1  0.28175000  0.09318000  0.33612000  1
  Cu  Cu9  1  0.26349000  0.05785000  0.12391000  1
  Cu  Cu10  1  0.25737000  0.06187000  0.71219000  1
  Cu  Cu11  1  0.24873000  0.57449000  0.71423000  1
  Cu  Cu12  1  0.23250000  0.56658000  0.21111000  1
  Cu  Cu13  1  0.12650000  0.30052000  0.23054000  1
  H  H14  1  0.99450000  0.29280000  0.54960000  1
  H  H15  1  0.97500000  0.98100000  0.15200000  1
  H  H16  1  0.94130000  0.03030000  0.49310000  1
  H  H17  1  0.92700000  0.57100000  0.24600000  1
  H  H18  1  0.87460000  0.90610000  0.90650000  1
  H  H19  1  0.82510000  0.39230000  0.47830000  1
  H  H20  1  0.68290000  0.74390000  0.94630000  1
  H  H21  1  0.63590000  0.22260000  0.50600000  1
  H  H22  1  0.59600000  0.15100000  0.12720000  1
  H  H23  1  0.57120000  0.11020000  0.93180000  1
  H  H24  1  0.52700000  0.58200000  0.22300000  1
  H  H25  1  0.50380000  0.84990000  0.89410000  1
  H  H26  1  0.49620000  0.34990000  0.89410000  1
  H  H27  1  0.47300000  0.08200000  0.22300000  1
  H  H28  1  0.42880000  0.61020000  0.93180000  1
  H  H29  1  0.40400000  0.65100000  0.12720000  1
  H  H30  1  0.36410000  0.72260000  0.50600000  1
  H  H31  1  0.31710000  0.24390000  0.94630000  1
  H  H32  1  0.17490000  0.89230000  0.47830000  1
  H  H33  1  0.12540000  0.40610000  0.90650000  1
  H  H34  1  0.07300000  0.07100000  0.24600000  1
  H  H35  1  0.05870000  0.53030000  0.49310000  1
  H  H36  1  0.02500000  0.48100000  0.15200000  1
  H  H37  1  0.00550000  0.79280000  0.54960000  1
  C  C38  1  0.99760000  0.08120000  0.63080000  1
  C  C39  1  0.95650000  0.23510000  0.49760000  1
  C  C40  1  0.94120000  0.72420000  0.41900000  1
  C  C41  1  0.91940000  0.10250000  0.54030000  1
  C  C42  1  0.82370000  0.29490000  0.46760000  1
  C  C43  1  0.78190000  0.25880000  0.36720000  1
  C  C44  1  0.78080000  0.90180000  0.88290000  1
  C  C45  1  0.77480000  0.82150000  0.78930000  1
  C  C46  1  0.74180000  0.87360000  0.05640000  1
  C  C47  1  0.72560000  0.23180000  0.53630000  1
  C  C48  1  0.71560000  0.31750000  0.62760000  1
  C  C49  1  0.69010000  0.84090000  0.95760000  1
  C  C50  1  0.59060000  0.03400000  0.88740000  1
  C  C51  1  0.55560000  0.90820000  0.93910000  1
  C  C52  1  0.52980000  0.43370000  0.02720000  1
  C  C53  1  0.50830000  0.05120000  0.79830000  1
  C  C54  1  0.49170000  0.55120000  0.79830000  1
  C  C55  1  0.47020000  0.93370000  0.02720000  1
  C  C56  1  0.44440000  0.40820000  0.93910000  1
  C  C57  1  0.40940000  0.53400000  0.88740000  1
  C  C58  1  0.30990000  0.34090000  0.95760000  1
  C  C59  1  0.28440000  0.81750000  0.62760000  1
  C  C60  1  0.27440000  0.73180000  0.53630000  1
  C  C61  1  0.25820000  0.37360000  0.05640000  1
  C  C62  1  0.22520000  0.32150000  0.78930000  1
  C  C63  1  0.21920000  0.40180000  0.88290000  1
  C  C64  1  0.21810000  0.75880000  0.36720000  1
  C  C65  1  0.17630000  0.79490000  0.46760000  1
  C  C66  1  0.08060000  0.60250000  0.54030000  1
  C  C67  1  0.05880000  0.22420000  0.41900000  1
  C  C68  1  0.04350000  0.73510000  0.49760000  1
  C  C69  1  0.00240000  0.58120000  0.63080000  1
  Cl  Cl70  1  0.88866000  0.45285000  0.03745000  1
  Cl  Cl71  1  0.62796000  0.85087000  0.30883000  1
  Cl  Cl72  1  0.37204000  0.35087000  0.30883000  1
  Cl  Cl73  1  0.11134000  0.95285000  0.03745000  1
  O  O74  1  0.95350000  0.80600000  0.35502000  1
  O  O75  1  0.94130000  0.06080000  0.70700000  1
  O  O76  1  0.93290000  0.97570000  0.21317000  1
  O  O77  1  0.87910000  0.58110000  0.61955000  1
  O  O78  1  0.85360000  0.63780000  0.42596000  1
  O  O79  1  0.84550000  0.61300000  0.23191000  1
  O  O80  1  0.80530000  0.14450000  0.33579000  1
  O  O81  1  0.80120000  0.70150000  0.79635000  1
  O  O82  1  0.78940000  0.78360000  0.10380000  1
  O  O83  1  0.77880000  0.10460000  0.55500000  1
  O  O84  1  0.75590000  0.27230000  0.70370000  1
  O  O85  1  0.74220000  0.87660000  0.71530000  1
  O  O86  1  0.73210000  0.99330000  0.08366000  1
  O  O87  1  0.73050000  0.03220000  0.87062000  1
  O  O88  1  0.72160000  0.34820000  0.32450000  1
  O  O89  1  0.67280000  0.43260000  0.61812000  1
  O  O90  1  0.61330000  0.52820000  0.80840000  1
  O  O91  1  0.60860000  0.53410000  0.23184000  1
  O  O92  1  0.60720000  0.16130000  0.19352000  1
  O  O93  1  0.59540000  0.53850000  0.03268000  1
  O  O94  1  0.56110000  0.08780000  0.72431000  1
  O  O95  1  0.52710000  0.34490000  0.08577000  1
  O  O96  1  0.47290000  0.84490000  0.08577000  1
  O  O97  1  0.43890000  0.58780000  0.72431000  1
  O  O98  1  0.40460000  0.03850000  0.03268000  1
  O  O99  1  0.39280000  0.66130000  0.19352000  1
  O  O100  1  0.39140000  0.03410000  0.23184000  1
  O  O101  1  0.38670000  0.02820000  0.80840000  1
  O  O102  1  0.32720000  0.93260000  0.61812000  1
  O  O103  1  0.27840000  0.84820000  0.32450000  1
  O  O104  1  0.26950000  0.53220000  0.87062000  1
  O  O105  1  0.26790000  0.49330000  0.08366000  1
  O  O106  1  0.25780000  0.37660000  0.71530000  1
  O  O107  1  0.24410000  0.77230000  0.70370000  1
  O  O108  1  0.22120000  0.60460000  0.55500000  1
  O  O109  1  0.21060000  0.28360000  0.10380000  1
  O  O110  1  0.19880000  0.20150000  0.79635000  1
  O  O111  1  0.19470000  0.64450000  0.33579000  1
  O  O112  1  0.15450000  0.11300000  0.23191000  1
  O  O113  1  0.14640000  0.13780000  0.42596000  1
  O  O114  1  0.12090000  0.08110000  0.61955000  1
  O  O115  1  0.06710000  0.47570000  0.21317000  1
  O  O116  1  0.05870000  0.56080000  0.70700000  1
  O  O117  1  0.04650000  0.30600000  0.35502000  1
