# generated using pymatgen
data_VH4C8O5
_symmetry_space_group_name_H-M   'P 1'
_cell_length_a   6.81270000
_cell_length_b   13.71420000
_cell_length_c   16.07010000
_cell_angle_alpha   90.00000000
_cell_angle_beta   90.00000000
_cell_angle_gamma   90.00000000
_symmetry_Int_Tables_number   1
_chemical_formula_structural   VH4C8O5
_chemical_formula_sum   'V4 H16 C32 O20'
_cell_volume   1501.44117964
_cell_formula_units_Z   4
loop_
 _symmetry_equiv_pos_site_id
 _symmetry_equiv_pos_as_xyz
  1  'x, y, z'
loop_
 _atom_site_type_symbol
 _atom_site_label
 _atom_site_symmetry_multiplicity
 _atom_site_fract_x
 _atom_site_fract_y
 _atom_site_fract_z
 _atom_site_occupancy
  V  V0  1  0.06583000  0.23538000  0.50141000  1
  V  V1  1  0.43417000  0.76462000  0.00141000  1
  V  V2  1  0.56583000  0.26462000  0.49859000  1
  V  V3  1  0.93417000  0.73538000  0.99859000  1
  H  H4  1  0.02790000  0.89190000  0.22450000  1
  H  H5  1  0.03300000  0.95710000  0.82390000  1
  H  H6  1  0.04860000  0.99910000  0.33520000  1
  H  H7  1  0.05360000  0.06600000  0.71430000  1
  H  H8  1  0.44640000  0.93400000  0.21430000  1
  H  H9  1  0.45140000  0.00090000  0.83520000  1
  H  H10  1  0.46700000  0.04290000  0.32390000  1
  H  H11  1  0.47210000  0.10810000  0.72450000  1
  H  H12  1  0.52790000  0.60810000  0.77550000  1
  H  H13  1  0.53300000  0.54290000  0.17610000  1
  H  H14  1  0.54860000  0.50090000  0.66480000  1
  H  H15  1  0.55360000  0.43400000  0.28570000  1
  H  H16  1  0.94640000  0.56600000  0.78570000  1
  H  H17  1  0.95140000  0.49910000  0.16480000  1
  H  H18  1  0.96700000  0.45710000  0.67610000  1
  H  H19  1  0.97210000  0.39190000  0.27550000  1
  C  C20  1  0.06790000  0.55168000  0.76233000  1
  C  C21  1  0.07200000  0.48734000  0.19005000  1
  C  C22  1  0.08000000  0.48665000  0.69663000  1
  C  C23  1  0.08450000  0.42296000  0.25607000  1
  C  C24  1  0.22300000  0.65783000  0.86938000  1
  C  C25  1  0.22420000  0.61136000  0.09585000  1
  C  C26  1  0.23580000  0.59550000  0.79340000  1
  C  C27  1  0.23910000  0.53437000  0.16145000  1
  C  C28  1  0.26090000  0.46563000  0.66145000  1
  C  C29  1  0.26420000  0.40450000  0.29340000  1
  C  C30  1  0.27580000  0.38864000  0.59585000  1
  C  C31  1  0.27700000  0.34217000  0.36938000  1
  C  C32  1  0.41550000  0.57704000  0.75607000  1
  C  C33  1  0.42000000  0.51335000  0.19663000  1
  C  C34  1  0.42800000  0.51266000  0.69005000  1
  C  C35  1  0.43210000  0.44832000  0.26233000  1
  C  C36  1  0.56790000  0.94832000  0.23767000  1
  C  C37  1  0.57200000  0.01266000  0.80995000  1
  C  C38  1  0.58000000  0.01335000  0.30337000  1
  C  C39  1  0.58450000  0.07704000  0.74393000  1
  C  C40  1  0.72300000  0.84217000  0.13062000  1
  C  C41  1  0.72420000  0.88864000  0.90415000  1
  C  C42  1  0.73580000  0.90450000  0.20660000  1
  C  C43  1  0.73910000  0.96563000  0.83855000  1
  C  C44  1  0.76090000  0.03437000  0.33855000  1
  C  C45  1  0.76420000  0.09550000  0.70660000  1
  C  C46  1  0.77580000  0.11136000  0.40415000  1
  C  C47  1  0.77700000  0.15783000  0.63062000  1
  C  C48  1  0.91550000  0.92296000  0.24393000  1
  C  C49  1  0.92000000  0.98665000  0.80337000  1
  C  C50  1  0.92800000  0.98734000  0.30995000  1
  C  C51  1  0.93210000  0.05168000  0.73767000  1
  O  O52  1  0.05588000  0.63403000  0.07080000  1
  O  O53  1  0.05606000  0.67296000  0.89933000  1
  O  O54  1  0.11665000  0.35088000  0.57168000  1
  O  O55  1  0.11682000  0.31100000  0.39881000  1
  O  O56  1  0.21608000  0.80953000  0.00983000  1
  O  O57  1  0.28392000  0.19047000  0.50983000  1
  O  O58  1  0.38318000  0.68900000  0.89881000  1
  O  O59  1  0.38335000  0.64912000  0.07168000  1
  O  O60  1  0.44394000  0.32704000  0.39933000  1
  O  O61  1  0.44412000  0.36597000  0.57080000  1
  O  O62  1  0.55588000  0.86597000  0.92920000  1
  O  O63  1  0.55606000  0.82704000  0.10067000  1
  O  O64  1  0.61665000  0.14912000  0.42832000  1
  O  O65  1  0.61682000  0.18900000  0.60119000  1
  O  O66  1  0.71608000  0.69047000  0.99017000  1
  O  O67  1  0.78392000  0.30953000  0.49017000  1
  O  O68  1  0.88318000  0.81100000  0.10119000  1
  O  O69  1  0.88335000  0.85088000  0.92832000  1
  O  O70  1  0.94394000  0.17296000  0.60067000  1
  O  O71  1  0.94412000  0.13403000  0.42920000  1
