# generated using pymatgen
data_Zn5H18(C24O13)2
_symmetry_space_group_name_H-M   'P 1'
_cell_length_a   12.14500000
_cell_length_b   16.51680527
_cell_length_c   22.75000000
_cell_angle_alpha   88.53040980
_cell_angle_beta   86.00000000
_cell_angle_gamma   68.42888037
_symmetry_Int_Tables_number   1
_chemical_formula_structural   Zn5H18(C24O13)2
_chemical_formula_sum   'Zn10 H36 C96 O52'
_cell_volume   4233.61075402
_cell_formula_units_Z   2
loop_
 _symmetry_equiv_pos_site_id
 _symmetry_equiv_pos_as_xyz
  1  'x, y, z'
loop_
 _atom_site_type_symbol
 _atom_site_label
 _atom_site_symmetry_multiplicity
 _atom_site_fract_x
 _atom_site_fract_y
 _atom_site_fract_z
 _atom_site_occupancy
  C  C0  1  0.01282000  0.94076000  0.58120000  1
  C  C1  1  0.95358000  0.05924000  0.08120000  1
  C  C2  1  0.38004000  0.19532000  0.58220000  1
  C  C3  1  0.57536000  0.80468000  0.08220000  1
  C  C4  1  0.04415000  0.85470000  0.00540000  1
  C  C5  1  0.89885000  0.14530000  0.50540000  1
  C  C6  1  0.21622000  0.50236000  0.27930000  1
  C  C7  1  0.71858000  0.49764000  0.77930000  1
  C  C8  1  0.24466000  0.42728000  0.31360000  1
  C  C9  1  0.67194000  0.57272000  0.81360000  1
  C  C10  1  0.01013000  0.88294000  0.53810000  1
  C  C11  1  0.89307000  0.11706000  0.03810000  1
  C  C12  1  0.12811000  0.57758000  0.30080000  1
  C  C13  1  0.70569000  0.42242000  0.80080000  1
  C  C14  1  0.92474000  0.96892000  0.91900000  1
  C  C15  1  0.89366000  0.03108000  0.41900000  1
  C  C16  1  0.31621000  0.17698000  0.90760000  1
  C  C17  1  0.49319000  0.82302000  0.40760000  1
  C  C18  1  0.18457000  0.42706000  0.36790000  1
  C  C19  1  0.61163000  0.57294000  0.86790000  1
  C  C20  1  0.21730000  0.34600000  0.40450000  1
  C  C21  1  0.56330000  0.65400000  0.90450000  1
  C  C22  1  0.89519000  0.96462000  0.37660000  1
  C  C23  1  0.85981000  0.03538000  0.87660000  1
  C  C24  1  0.28642000  0.17336000  0.84990000  1
  C  C25  1  0.45978000  0.82664000  0.34990000  1
  C  C26  1  0.92005000  0.88330000  0.00630000  1
  C  C27  1  0.80335000  0.11670000  0.50630000  1
  C  C28  1  0.06765000  0.57870000  0.35510000  1
  C  C29  1  0.64635000  0.42130000  0.85510000  1
  C  C30  1  0.09698000  0.50344000  0.38870000  1
  C  C31  1  0.60042000  0.49656000  0.88870000  1
  C  C32  1  0.90706667  0.85260000  0.53640000  1
  C  C33  1  0.75966667  0.14740000  0.03640000  1
  C  C34  1  0.86249000  0.93902000  0.96270000  1
  C  C35  1  0.80151000  0.06098000  0.46270000  1
  C  C36  1  0.24694000  0.16192000  0.95470000  1
  C  C37  1  0.40886000  0.83808000  0.45470000  1
  C  C38  1  0.88450000  0.85940000  0.11280000  1
  C  C39  1  0.74390000  0.14060000  0.61280000  1
  C  C40  1  0.97245000  0.65970000  0.37800000  1
  C  C41  1  0.63215000  0.34030000  0.87800000  1
  C  C42  1  0.85229000  0.85822000  0.05540000  1
  C  C43  1  0.71051000  0.14178000  0.55540000  1
  C  C44  1  0.84940000  0.84900000  0.22150000  1
  C  C45  1  0.69840000  0.15100000  0.72150000  1
  C  C46  1  0.18400000  0.15680000  0.83970000  1
  C  C47  1  0.34080000  0.84320000  0.33970000  1
  C  C48  1  0.81600000  0.84320000  0.16030000  1
  C  C49  1  0.65920000  0.15680000  0.66030000  1
  C  C50  1  0.15060000  0.15100000  0.77850000  1
  C  C51  1  0.30160000  0.84900000  0.27850000  1
  C  C52  1  0.14771000  0.14178000  0.94460000  1
  C  C53  1  0.28949000  0.85822000  0.44460000  1
  C  C54  1  0.02755000  0.34030000  0.62200000  1
  C  C55  1  0.36785000  0.65970000  0.12200000  1
  C  C56  1  0.11550000  0.14060000  0.88720000  1
  C  C57  1  0.25610000  0.85940000  0.38720000  1
  C  C58  1  0.75306000  0.83808000  0.04530000  1
  C  C59  1  0.59114000  0.16192000  0.54530000  1
  C  C60  1  0.13751000  0.06098000  0.03730000  1
  C  C61  1  0.19849000  0.93902000  0.53730000  1
  C  C62  1  0.09290000  0.14740000  0.46360000  1
  C  C63  1  0.24030000  0.85260000  0.96360000  1
  C  C64  1  0.90302000  0.49656000  0.61130000  1
  C  C65  1  0.39958000  0.50344000  0.11130000  1
  C  C66  1  0.93235000  0.42130000  0.64490000  1
  C  C67  1  0.35365000  0.57870000  0.14490000  1
  C  C68  1  0.07995000  0.11670000  0.99370000  1
  C  C69  1  0.19665000  0.88330000  0.49370000  1
  C  C70  1  0.71358000  0.82664000  0.15010000  1
  C  C71  1  0.54022000  0.17336000  0.65010000  1
  C  C72  1  0.10481000  0.03538000  0.62340000  1
  C  C73  1  0.14019000  0.96462000  0.12340000  1
  C  C74  1  0.78270000  0.65400000  0.59550000  1
  C  C75  1  0.43670000  0.34600000  0.09550000  1
  C  C76  1  0.81543000  0.57294000  0.63210000  1
  C  C77  1  0.38837000  0.42706000  0.13210000  1
  C  C78  1  0.68379000  0.82302000  0.09240000  1
  C  C79  1  0.50681000  0.17698000  0.59240000  1
  C  C80  1  0.07526000  0.03108000  0.08100000  1
  C  C81  1  0.10634000  0.96892000  0.58100000  1
  C  C82  1  0.87189000  0.42242000  0.69920000  1
  C  C83  1  0.29431000  0.57758000  0.19920000  1
  C  C84  1  0.98987000  0.11706000  0.46190000  1
  C  C85  1  0.10693000  0.88294000  0.96190000  1
  C  C86  1  0.75534000  0.57272000  0.68640000  1
  C  C87  1  0.32806000  0.42728000  0.18640000  1
  C  C88  1  0.78378000  0.49764000  0.72070000  1
  C  C89  1  0.28142000  0.50236000  0.22070000  1
  C  C90  1  0.95585000  0.14530000  0.99460000  1
  C  C91  1  0.10115000  0.85470000  0.49460000  1
  C  C92  1  0.61996000  0.80468000  0.41780000  1
  C  C93  1  0.42464000  0.19532000  0.91780000  1
  C  C94  1  0.98718000  0.05924000  0.41880000  1
  C  C95  1  0.04642000  0.94076000  0.91880000  1
  H  H96  1  0.30480000  0.37640000  0.30000000  1
  H  H97  1  0.68120000  0.62360000  0.80000000  1
  H  H98  1  0.08440000  0.81660000  0.03430000  1
  H  H99  1  0.90100000  0.18340000  0.53430000  1
  H  H100  1  0.95100000  0.96040000  0.61010000  1
  H  H101  1  0.91140000  0.03960000  0.11010000  1
  H  H102  1  0.33390000  0.18200000  0.81840000  1
  H  H103  1  0.51590000  0.81800000  0.31840000  1
  H  H104  1  0.10890000  0.62840000  0.27860000  1
  H  H105  1  0.73730000  0.37160000  0.77860000  1
  H  H106  1  0.95190000  0.87100000  0.11960000  1
  H  H107  1  0.82290000  0.12900000  0.61960000  1
  H  H108  1  0.26680000  0.16520000  0.99300000  1
  H  H109  1  0.43200000  0.83480000  0.49300000  1
  H  H110  1  0.05770000  0.50420000  0.42540000  1
  H  H111  1  0.56190000  0.49580000  0.92540000  1
  H  H112  1  0.78040000  0.95720000  0.96230000  1
  H  H113  1  0.73760000  0.04280000  0.46230000  1
  H  H114  1  0.21960000  0.04280000  0.03770000  1
  H  H115  1  0.26240000  0.95720000  0.53770000  1
  H  H116  1  0.94230000  0.49580000  0.57460000  1
  H  H117  1  0.43810000  0.50420000  0.07460000  1
  H  H118  1  0.73320000  0.83480000  0.00700000  1
  H  H119  1  0.56800000  0.16520000  0.50700000  1
  H  H120  1  0.04810000  0.12900000  0.88040000  1
  H  H121  1  0.17710000  0.87100000  0.38040000  1
  H  H122  1  0.89110000  0.37160000  0.72140000  1
  H  H123  1  0.26270000  0.62840000  0.22140000  1
  H  H124  1  0.66610000  0.81800000  0.18160000  1
  H  H125  1  0.48410000  0.18200000  0.68160000  1
  H  H126  1  0.04900000  0.03960000  0.38990000  1
  H  H127  1  0.08860000  0.96040000  0.88990000  1
  H  H128  1  0.91560000  0.18340000  0.96570000  1
  H  H129  1  0.09900000  0.81660000  0.46570000  1
  H  H130  1  0.69520000  0.62360000  0.70000000  1
  H  H131  1  0.31880000  0.37640000  0.20000000  1
  O  O132  1  0.34788000  0.21224000  0.53066000  1
  O  O133  1  0.56012000  0.78776000  0.03066000  1
  O  O134  1  0.98208000  0.93124000  0.34154000  1
  O  O135  1  0.91332000  0.06876000  0.84154000  1
  O  O136  1  0.29132000  0.27916000  0.38530000  1
  O  O137  1  0.57048000  0.72084000  0.88530000  1
  O  O138  1  0.31465000  0.19270000  0.62561000  1
  O  O139  1  0.50735000  0.80730000  0.12561000  1
  O  O140  1  0.95430000  0.84680000  0.22850000  1
  O  O141  1  0.80110000  0.15320000  0.72850000  1
  O  O142  1  0.16359000  0.35402000  0.45454000  1
  O  O143  1  0.51761000  0.64598000  0.95454000  1
  O  O144  1  0.87600000  0.92140000  0.22820000  1
  O  O145  1  0.79740000  0.07860000  0.72820000  1
  O  O146  1  0.96021000  0.72838000  0.34893000  1
  O  O147  1  0.68859000  0.27162000  0.84893000  1
  O  O148  1  0.91511000  0.80238000  0.49507000  1
  O  O149  1  0.71749000  0.19762000  0.99507000  1
  O  O150  1  0.21826000  0.15928000  0.73862000  1
  O  O151  1  0.37754000  0.84072000  0.23862000  1
  O  O152  1  0.80523000  0.94034000  0.38104000  1
  O  O153  1  0.74557000  0.05966000  0.88104000  1
  O  O154  1  0.82310000  0.87880000  0.57300000  1
  O  O155  1  0.70190000  0.12120000  0.07300000  1
  O  O156  1  0.08772000  0.34576000  0.57652000  1
  O  O157  1  0.43348000  0.65424000  0.07652000  1
  O  O158  1  0.91228000  0.65424000  0.42348000  1
  O  O159  1  0.56652000  0.34576000  0.92348000  1
  O  O160  1  0.17690000  0.12120000  0.42700000  1
  O  O161  1  0.29810000  0.87880000  0.92700000  1
  O  O162  1  0.19477000  0.05966000  0.61896000  1
  O  O163  1  0.25443000  0.94034000  0.11896000  1
  O  O164  1  0.78174000  0.84072000  0.26138000  1
  O  O165  1  0.62246000  0.15928000  0.76138000  1
  O  O166  1  0.08489000  0.19762000  0.50493000  1
  O  O167  1  0.28251000  0.80238000  0.00493000  1
  O  O168  1  0.03979000  0.27162000  0.65107000  1
  O  O169  1  0.31141000  0.72838000  0.15107000  1
  O  O170  1  0.12400000  0.07860000  0.77180000  1
  O  O171  1  0.20260000  0.92140000  0.27180000  1
  O  O172  1  0.83641000  0.64598000  0.54546000  1
  O  O173  1  0.48239000  0.35402000  0.04546000  1
  O  O174  1  0.04570000  0.15320000  0.77150000  1
  O  O175  1  0.19890000  0.84680000  0.27150000  1
  O  O176  1  0.68535000  0.80730000  0.37439000  1
  O  O177  1  0.49265000  0.19270000  0.87439000  1
  O  O178  1  0.70868000  0.72084000  0.61470000  1
  O  O179  1  0.42952000  0.27916000  0.11470000  1
  O  O180  1  0.01792000  0.06876000  0.65846000  1
  O  O181  1  0.08668000  0.93124000  0.15846000  1
  O  O182  1  0.65212000  0.78776000  0.46934000  1
  O  O183  1  0.43988000  0.21224000  0.96934000  1
  Zn  Zn184  1  0.03794000  0.92412000  0.25000000  1
  Zn  Zn185  1  0.96206000  0.07588000  0.75000000  1
  Zn  Zn186  1  0.18175000  0.26504000  0.51253000  1
  Zn  Zn187  1  0.44679000  0.73496000  0.01253000  1
  Zn  Zn188  1  0.17570000  0.16620000  0.65716000  1
  Zn  Zn189  1  0.34190000  0.83380000  0.15716000  1
  Zn  Zn190  1  0.82430000  0.83380000  0.34284000  1
  Zn  Zn191  1  0.65810000  0.16620000  0.84284000  1
  Zn  Zn192  1  0.81825000  0.73496000  0.48747000  1
  Zn  Zn193  1  0.55321000  0.26504000  0.98747000  1
