# generated using pymatgen
data_MnH36C30(NO)6
_symmetry_space_group_name_H-M   'P 1'
_cell_length_a   11.99400000
_cell_length_b   16.35090000
_cell_length_c   16.35090230
_cell_angle_alpha   114.22494881
_cell_angle_beta   104.15308158
_cell_angle_gamma   104.15300000
_symmetry_Int_Tables_number   1
_chemical_formula_structural   MnH36C30(NO)6
_chemical_formula_sum   'Mn3 H108 C90 N18 O18'
_cell_volume   2610.98623765
_cell_formula_units_Z   3
loop_
 _symmetry_equiv_pos_site_id
 _symmetry_equiv_pos_as_xyz
  1  'x, y, z'
loop_
 _atom_site_type_symbol
 _atom_site_label
 _atom_site_symmetry_multiplicity
 _atom_site_fract_x
 _atom_site_fract_y
 _atom_site_fract_z
 _atom_site_occupancy
  Mn  Mn0  1  0.50000000  0.00000000  0.50000000  1
  Mn  Mn1  1  1.00000000  0.50000000  0.50000000  1
  Mn  Mn2  1  0.50000000  0.50000000  0.00000000  1
  H  H3  1  0.46450000  0.38840000  0.46040000  1
  H  H4  1  0.12090000  0.54980000  0.11400000  1
  H  H5  1  0.32990000  0.49110000  0.32180000  1
  H  H6  1  0.52600000  0.73340000  0.49400000  1
  H  H7  1  0.85060000  0.27190000  0.80920000  1
  H  H8  1  0.90290000  0.61190000  0.85690000  1
  H  H9  1  0.29030000  0.38370000  0.23960000  1
  H  H10  1  0.10090000  0.44720000  0.03270000  1
  H  H11  1  0.00410000  0.53960000  0.92800000  1
  H  H12  1  0.33320000  0.62760000  0.25280000  1
  H  H13  1  0.41680000  0.04840000  0.33160000  1
  H  H14  1  0.94930000  0.23960000  0.85590000  1
  H  H15  1  0.70900000  0.75500000  0.61190000  1
  H  H16  1  0.65370000  0.58550000  0.55280000  1
  H  H17  1  0.35450000  0.12580000  0.23920000  1
  H  H18  1  0.83030000  0.41720000  0.71140000  1
  H  H19  1  0.57110000  0.56420000  0.45020000  1
  H  H20  1  0.64670000  0.81090000  0.50800000  1
  H  H21  1  0.42130000  0.46270000  0.27190000  1
  H  H22  1  0.99190000  0.32180000  0.83070000  1
  H  H23  1  0.86130000  0.50800000  0.69710000  1
  H  H24  1  0.58690000  0.70580000  0.41720000  1
  H  H25  1  0.21110000  0.73500000  0.01200000  1
  H  H26  1  0.96800000  0.49400000  0.76060000  1
  H  H27  1  0.47610000  0.27700000  0.26500000  1
  H  H28  1  0.26270000  0.84690000  0.04860000  1
  H  H29  1  0.11530000  0.76080000  0.88660000  1
  H  H30  1  0.43050000  0.07650000  0.18380000  1
  H  H31  1  0.41580000  0.20170000  0.15310000  1
  H  H32  1  0.90660000  0.85590000  0.61630000  1
  H  H33  1  0.04600000  0.14310000  0.75500000  1
  H  H34  1  0.91960000  0.25280000  0.62520000  1
  H  H35  1  0.67560000  0.27870000  0.37100000  1
  H  H36  1  0.60310000  0.90770000  0.27870000  1
  H  H37  1  0.34300000  0.78680000  0.01660000  1
  H  H38  1  0.83880000  0.83070000  0.50890000  1
  H  H39  1  0.70560000  0.62520000  0.37240000  1
  H  H40  1  0.55620000  0.22980000  0.21320000  1
  H  H41  1  0.93180000  0.03270000  0.58550000  1
  H  H42  1  0.16420000  0.30290000  0.81090000  1
  H  H43  1  0.24670000  0.81620000  0.89270000  1
  H  H44  1  0.22870000  0.11340000  0.87420000  1
  H  H45  1  0.08520000  0.66840000  0.71680000  1
  H  H46  1  0.30460000  0.62900000  0.90770000  1
  H  H47  1  0.11890000  0.28860000  0.70580000  1
  H  H48  1  0.21410000  0.95140000  0.79830000  1
  H  H49  1  0.36840000  0.28320000  0.95160000  1
  H  H50  1  0.95860000  0.80920000  0.53730000  1
  H  H51  1  0.99310000  0.11400000  0.56420000  1
  H  H52  1  0.35400000  0.10730000  0.92350000  1
  H  H53  1  0.67360000  0.01660000  0.22980000  1
  H  H54  1  0.07610000  0.07200000  0.61160000  1
  H  H55  1  0.20740000  0.23940000  0.73340000  1
  H  H56  1  0.19910000  0.98800000  0.72300000  1
  H  H57  1  0.80090000  0.01200000  0.27700000  1
  H  H58  1  0.79260000  0.76060000  0.26660000  1
  H  H59  1  0.92390000  0.92800000  0.38840000  1
  H  H60  1  0.32640000  0.98340000  0.77020000  1
  H  H61  1  0.64600000  0.89270000  0.07650000  1
  H  H62  1  0.00690000  0.88600000  0.43580000  1
  H  H63  1  0.04140000  0.19080000  0.46270000  1
  H  H64  1  0.63160000  0.71680000  0.04840000  1
  H  H65  1  0.78590000  0.04860000  0.20170000  1
  H  H66  1  0.88110000  0.71140000  0.29420000  1
  H  H67  1  0.69540000  0.37100000  0.09230000  1
  H  H68  1  0.91480000  0.33160000  0.28320000  1
  H  H69  1  0.77130000  0.88660000  0.12580000  1
  H  H70  1  0.75330000  0.18380000  0.10730000  1
  H  H71  1  0.83580000  0.69710000  0.18910000  1
  H  H72  1  0.06820000  0.96730000  0.41450000  1
  H  H73  1  0.44380000  0.77020000  0.78680000  1
  H  H74  1  0.29440000  0.37480000  0.62760000  1
  H  H75  1  0.16120000  0.16930000  0.49110000  1
  H  H76  1  0.65700000  0.21320000  0.98340000  1
  H  H77  1  0.39690000  0.09230000  0.72130000  1
  H  H78  1  0.32440000  0.72130000  0.62900000  1
  H  H79  1  0.08040000  0.74720000  0.37480000  1
  H  H80  1  0.95400000  0.85690000  0.24500000  1
  H  H81  1  0.09340000  0.14410000  0.38370000  1
  H  H82  1  0.58420000  0.79830000  0.84690000  1
  H  H83  1  0.56950000  0.92350000  0.81620000  1
  H  H84  1  0.88470000  0.23920000  0.11340000  1
  H  H85  1  0.73730000  0.15310000  0.95140000  1
  H  H86  1  0.52390000  0.72300000  0.73500000  1
  H  H87  1  0.03200000  0.50600000  0.23940000  1
  H  H88  1  0.78890000  0.26500000  0.98800000  1
  H  H89  1  0.41310000  0.29420000  0.58280000  1
  H  H90  1  0.13870000  0.49200000  0.30290000  1
  H  H91  1  0.00810000  0.67820000  0.16930000  1
  H  H92  1  0.57870000  0.53730000  0.72810000  1
  H  H93  1  0.35330000  0.18910000  0.49200000  1
  H  H94  1  0.42890000  0.43580000  0.54980000  1
  H  H95  1  0.16970000  0.58280000  0.28860000  1
  H  H96  1  0.64550000  0.87420000  0.76080000  1
  H  H97  1  0.34630000  0.41450000  0.44720000  1
  H  H98  1  0.29100000  0.24500000  0.38810000  1
  H  H99  1  0.05070000  0.76040000  0.14410000  1
  H  H100  1  0.58320000  0.95160000  0.66840000  1
  H  H101  1  0.66680000  0.37240000  0.74720000  1
  H  H102  1  0.99590000  0.46040000  0.07200000  1
  H  H103  1  0.89910000  0.55280000  0.96730000  1
  H  H104  1  0.70970000  0.61630000  0.76040000  1
  H  H105  1  0.09710000  0.38810000  0.14310000  1
  H  H106  1  0.14940000  0.72810000  0.19080000  1
  H  H107  1  0.47400000  0.26660000  0.50600000  1
  H  H108  1  0.67010000  0.50890000  0.67820000  1
  H  H109  1  0.87910000  0.45020000  0.88600000  1
  H  H110  1  0.53550000  0.61160000  0.53960000  1
  C  C111  1  0.91600000  0.51900000  0.91200000  1
  C  C112  1  0.85850000  0.54240000  0.83220000  1
  C  C113  1  0.33490000  0.45110000  0.26160000  1
  C  C114  1  0.60300000  0.60700000  0.51900000  1
  C  C115  1  0.27860000  0.47620000  0.18460000  1
  C  C116  1  0.92670000  0.26160000  0.81050000  1
  C  C117  1  0.60340000  0.74320000  0.48510000  1
  C  C118  1  0.49730000  0.09630000  0.36530000  1
  C  C119  1  0.79540000  0.08650000  0.65770000  1
  C  C120  1  0.88170000  0.48510000  0.74190000  1
  C  C121  1  0.68390000  0.71020000  0.54240000  1
  C  C122  1  0.47060000  0.80640000  0.32660000  1
  C  C123  1  0.75640000  0.15340000  0.57040000  1
  C  C124  1  0.68790000  0.16770000  0.49280000  1
  C  C125  1  0.90600000  0.18460000  0.70840000  1
  C  C126  1  0.53140000  0.16030000  0.33250000  1
  C  C127  1  0.43700000  0.13700000  0.23700000  1
  C  C128  1  0.29110000  0.42880000  0.08650000  1
  C  C129  1  0.39700000  0.58300000  0.15340000  1
  C  C130  1  0.25970000  0.78510000  0.00390000  1
  C  C131  1  0.47460000  0.21880000  0.21490000  1
  C  C132  1  0.64970000  0.23230000  0.38860000  1
  C  C133  1  0.73180000  0.23900000  0.46920000  1
  C  C134  1  0.50720000  0.76980000  0.23900000  1
  C  C135  1  0.80240000  0.70840000  0.52380000  1
  C  C136  1  0.86230000  0.65770000  0.57120000  1
  C  C137  1  0.20000000  0.76300000  0.90000000  1
  C  C138  1  0.47980000  0.67490000  0.16770000  1
  C  C139  1  0.02630000  0.16780000  0.71020000  1
  C  C140  1  0.88380000  0.81050000  0.54890000  1
  C  C141  1  0.85600000  0.32660000  0.52020000  1
  C  C142  1  0.58260000  0.84370000  0.23230000  1
  C  C143  1  0.19890000  0.66750000  0.82780000  1
  C  C144  1  0.13980000  0.25810000  0.74320000  1
  C  C145  1  0.81400000  0.57040000  0.41700000  1
  C  C146  1  0.00400000  0.08800000  0.60700000  1
  C  C147  1  0.13200000  0.63470000  0.73100000  1
  C  C148  1  0.26110000  0.61140000  0.84370000  1
  C  C149  1  0.30000000  0.10000000  0.86300000  1
  C  C150  1  0.62890000  0.82780000  0.16030000  1
  C  C151  1  0.66420000  0.52020000  0.19360000  1
  C  C152  1  0.25580000  0.99610000  0.78120000  1
  C  C153  1  0.80490000  0.49280000  0.32510000  1
  C  C154  1  0.26260000  0.53080000  0.76980000  1
  C  C155  1  0.40100000  0.26900000  0.90370000  1
  C  C156  1  0.59900000  0.73100000  0.09630000  1
  C  C157  1  0.73740000  0.46920000  0.23020000  1
  C  C158  1  0.19510000  0.50720000  0.67490000  1
  C  C159  1  0.74420000  0.00390000  0.21880000  1
  C  C160  1  0.33580000  0.47980000  0.80640000  1
  C  C161  1  0.37110000  0.17220000  0.83970000  1
  C  C162  1  0.70000000  0.90000000  0.13700000  1
  C  C163  1  0.73890000  0.38860000  0.15630000  1
  C  C164  1  0.86800000  0.36530000  0.26900000  1
  C  C165  1  0.99600000  0.91200000  0.39300000  1
  C  C166  1  0.18600000  0.42960000  0.58300000  1
  C  C167  1  0.86020000  0.74190000  0.25680000  1
  C  C168  1  0.80110000  0.33250000  0.17220000  1
  C  C169  1  0.41740000  0.15630000  0.76770000  1
  C  C170  1  0.14400000  0.67340000  0.47980000  1
  C  C171  1  0.11620000  0.18950000  0.45110000  1
  C  C172  1  0.97370000  0.83220000  0.28980000  1
  C  C173  1  0.52020000  0.32510000  0.83230000  1
  C  C174  1  0.80000000  0.23700000  0.10000000  1
  C  C175  1  0.13770000  0.34230000  0.42880000  1
  C  C176  1  0.19760000  0.29160000  0.47620000  1
  C  C177  1  0.49280000  0.23020000  0.76100000  1
  C  C178  1  0.26820000  0.76100000  0.53080000  1
  C  C179  1  0.35030000  0.76770000  0.61140000  1
  C  C180  1  0.52540000  0.78120000  0.78510000  1
  C  C181  1  0.74030000  0.21490000  0.99610000  1
  C  C182  1  0.60300000  0.41700000  0.84660000  1
  C  C183  1  0.70890000  0.57120000  0.91350000  1
  C  C184  1  0.56300000  0.86300000  0.76300000  1
  C  C185  1  0.46860000  0.83970000  0.66750000  1
  C  C186  1  0.09400000  0.81540000  0.29160000  1
  C  C187  1  0.31210000  0.83230000  0.50720000  1
  C  C188  1  0.24360000  0.84660000  0.42960000  1
  C  C189  1  0.52940000  0.19360000  0.67340000  1
  C  C190  1  0.31610000  0.28980000  0.45760000  1
  C  C191  1  0.11830000  0.51490000  0.25810000  1
  C  C192  1  0.20460000  0.91350000  0.34230000  1
  C  C193  1  0.50270000  0.90370000  0.63470000  1
  C  C194  1  0.39660000  0.25680000  0.51490000  1
  C  C195  1  0.07330000  0.73840000  0.18950000  1
  C  C196  1  0.72140000  0.52380000  0.81540000  1
  C  C197  1  0.39700000  0.39300000  0.48100000  1
  C  C198  1  0.66510000  0.54890000  0.73840000  1
  C  C199  1  0.14150000  0.45760000  0.16780000  1
  C  C200  1  0.08400000  0.48100000  0.08800000  1
  N  N201  1  0.70282000  0.07894000  0.58222000  1
  N  N202  1  0.33760000  0.57820000  0.20830000  1
  N  N203  1  0.57184000  0.09894000  0.44168000  1
  N  N204  1  0.87070000  0.20830000  0.63010000  1
  N  N205  1  0.37612000  0.49672000  0.07894000  1
  N  N206  1  0.75940000  0.63010000  0.42180000  1
  N  N207  1  0.87940000  0.58222000  0.50328000  1
  N  N208  1  0.52710000  0.65726000  0.09894000  1
  N  N209  1  0.13016000  0.55832000  0.65726000  1
  N  N210  1  0.86984000  0.44168000  0.34274000  1
  N  N211  1  0.47290000  0.34274000  0.90106000  1
  N  N212  1  0.12060000  0.41778000  0.49672000  1
  N  N213  1  0.24060000  0.36990000  0.57820000  1
  N  N214  1  0.62388000  0.50328000  0.92106000  1
  N  N215  1  0.12930000  0.79170000  0.36990000  1
  N  N216  1  0.42816000  0.90106000  0.55832000  1
  N  N217  1  0.66240000  0.42180000  0.79170000  1
  N  N218  1  0.29718000  0.92106000  0.41778000  1
  O  O219  1  0.38416000  0.75034000  0.33124000  1
  O  O220  1  0.78230000  0.03040000  0.68920000  1
  O  O221  1  0.52964000  0.89238000  0.38774000  1
  O  O222  1  0.24810000  0.34120000  0.03040000  1
  O  O223  1  0.90690000  0.68920000  0.65880000  1
  O  O224  1  0.85810000  0.38774000  0.49536000  1
  O  O225  1  0.94708000  0.33124000  0.58090000  1
  O  O226  1  0.63382000  0.58090000  0.24966000  1
  O  O227  1  0.36274000  0.50464000  0.89238000  1
  O  O228  1  0.63726000  0.49536000  0.10762000  1
  O  O229  1  0.36618000  0.41910000  0.75034000  1
  O  O230  1  0.05292000  0.66876000  0.41910000  1
  O  O231  1  0.14190000  0.61226000  0.50464000  1
  O  O232  1  0.09310000  0.31080000  0.34120000  1
  O  O233  1  0.75190000  0.65880000  0.96960000  1
  O  O234  1  0.47036000  0.10762000  0.61226000  1
  O  O235  1  0.21770000  0.96960000  0.31080000  1
  O  O236  1  0.61584000  0.24966000  0.66876000  1
