# generated using pymatgen
data_KCo2Cu2SiH20W10C24(N4O17)2
_symmetry_space_group_name_H-M   'P 1'
_cell_length_a   10.44540000
_cell_length_b   13.35367722
_cell_length_c   22.47770000
_cell_angle_alpha   97.65496899
_cell_angle_beta   90.00000000
_cell_angle_gamma   113.02332017
_symmetry_Int_Tables_number   1
_chemical_formula_structural   KCo2Cu2SiH20W10C24(N4O17)2
_chemical_formula_sum   'K2 Co4 Cu4 Si2 H40 W20 C48 N16 O68'
_cell_volume   2855.16746740
_cell_formula_units_Z   2
loop_
 _symmetry_equiv_pos_site_id
 _symmetry_equiv_pos_as_xyz
  1  'x, y, z'
loop_
 _atom_site_type_symbol
 _atom_site_label
 _atom_site_symmetry_multiplicity
 _atom_site_fract_x
 _atom_site_fract_y
 _atom_site_fract_z
 _atom_site_occupancy
  C  C0  1  0.73340000  0.90660000  0.46540000  1
  C  C1  1  0.17320000  0.90660000  0.96540000  1
  C  C2  1  0.52720000  0.89920000  0.44000000  1
  C  C3  1  0.37200000  0.89920000  0.94000000  1
  C  C4  1  0.51850000  0.79500000  0.43720000  1
  C  C5  1  0.27650000  0.79500000  0.93720000  1
  C  C6  1  0.79870000  0.72900000  0.49890000  1
  C  C7  1  0.93030000  0.72900000  0.99890000  1
  C  C8  1  0.68340000  0.71060000  0.46180000  1
  C  C9  1  0.02720000  0.71060000  0.96180000  1
  C  C10  1  0.50500000  0.65380000  0.95050000  1
  C  C11  1  0.14880000  0.65380000  0.45050000  1
  C  C12  1  0.38700000  0.65100000  0.03330000  1
  C  C13  1  0.26400000  0.65100000  0.53330000  1
  C  C14  1  0.81230000  0.64420000  0.01110000  1
  C  C15  1  0.83190000  0.64420000  0.51110000  1
  C  C16  1  0.60110000  0.60420000  0.43600000  1
  C  C17  1  0.00310000  0.60420000  0.93600000  1
  C  C18  1  0.39900000  0.55120000  0.94740000  1
  C  C19  1  0.15220000  0.55120000  0.44740000  1
  C  C20  1  0.74600000  0.53780000  0.48640000  1
  C  C21  1  0.79180000  0.53780000  0.98640000  1
  C  C22  1  0.63230000  0.52020000  0.44790000  1
  C  C23  1  0.88790000  0.52020000  0.94790000  1
  C  C24  1  0.36770000  0.47980000  0.55210000  1
  C  C25  1  0.11210000  0.47980000  0.05210000  1
  C  C26  1  0.25400000  0.46220000  0.51360000  1
  C  C27  1  0.20820000  0.46220000  0.01360000  1
  C  C28  1  0.60100000  0.44880000  0.05260000  1
  C  C29  1  0.84780000  0.44880000  0.55260000  1
  C  C30  1  0.39890000  0.39580000  0.56400000  1
  C  C31  1  0.99690000  0.39580000  0.06400000  1
  C  C32  1  0.18770000  0.35580000  0.98890000  1
  C  C33  1  0.16810000  0.35580000  0.48890000  1
  C  C34  1  0.61300000  0.34900000  0.96670000  1
  C  C35  1  0.73600000  0.34900000  0.46670000  1
  C  C36  1  0.49500000  0.34620000  0.04950000  1
  C  C37  1  0.85120000  0.34620000  0.54950000  1
  C  C38  1  0.31660000  0.28940000  0.53820000  1
  C  C39  1  0.97280000  0.28940000  0.03820000  1
  C  C40  1  0.20130000  0.27100000  0.50110000  1
  C  C41  1  0.06970000  0.27100000  0.00110000  1
  C  C42  1  0.48150000  0.20500000  0.56280000  1
  C  C43  1  0.72350000  0.20500000  0.06280000  1
  C  C44  1  0.47280000  0.10080000  0.56000000  1
  C  C45  1  0.62800000  0.10080000  0.06000000  1
  C  C46  1  0.26660000  0.09340000  0.53460000  1
  C  C47  1  0.82680000  0.09340000  0.03460000  1
  Co  Co48  1  0.85116000  0.82080000  0.29176000  1
  Co  Co49  1  0.31791000  0.81214000  0.28033000  1
  Co  Co50  1  0.68209000  0.18786000  0.71967000  1
  Co  Co51  1  0.14884000  0.17920000  0.70824000  1
  Cu  Cu52  1  0.60739000  0.87110000  0.02987000  1
  Cu  Cu53  1  0.26371000  0.87110000  0.52987000  1
  Cu  Cu54  1  0.39261000  0.12890000  0.97013000  1
  Cu  Cu55  1  0.73629000  0.12890000  0.47013000  1
  H  H56  1  0.82740000  0.93320000  0.47740000  1
  H  H57  1  0.10580000  0.93320000  0.97740000  1
  H  H58  1  0.46530000  0.92000000  0.93140000  1
  H  H59  1  0.45470000  0.92000000  0.43140000  1
  H  H60  1  0.85460000  0.80040000  0.51580000  1
  H  H61  1  0.94580000  0.80040000  0.01580000  1
  H  H62  1  0.43880000  0.73120000  0.42640000  1
  H  H63  1  0.29240000  0.73120000  0.92640000  1
  H  H64  1  0.57020000  0.67740000  0.92180000  1
  H  H65  1  0.10720000  0.67740000  0.42180000  1
  H  H66  1  0.35850000  0.67240000  0.07030000  1
  H  H67  1  0.31390000  0.67240000  0.57030000  1
  H  H68  1  0.74710000  0.65740000  0.03550000  1
  H  H69  1  0.91030000  0.65740000  0.53550000  1
  H  H70  1  0.52440000  0.59100000  0.41050000  1
  H  H71  1  0.06660000  0.59100000  0.91050000  1
  H  H72  1  0.42300000  0.55100000  0.56980000  1
  H  H73  1  0.12800000  0.55100000  0.06980000  1
  H  H74  1  0.62000000  0.50660000  0.08380000  1
  H  H75  1  0.88660000  0.50660000  0.58380000  1
  H  H76  1  0.38000000  0.49340000  0.91620000  1
  H  H77  1  0.11340000  0.49340000  0.41620000  1
  H  H78  1  0.57700000  0.44900000  0.43020000  1
  H  H79  1  0.87200000  0.44900000  0.93020000  1
  H  H80  1  0.47560000  0.40900000  0.58950000  1
  H  H81  1  0.93340000  0.40900000  0.08950000  1
  H  H82  1  0.25290000  0.34260000  0.96450000  1
  H  H83  1  0.08970000  0.34260000  0.46450000  1
  H  H84  1  0.64150000  0.32760000  0.92970000  1
  H  H85  1  0.68610000  0.32760000  0.42970000  1
  H  H86  1  0.42980000  0.32260000  0.07820000  1
  H  H87  1  0.89280000  0.32260000  0.57820000  1
  H  H88  1  0.56120000  0.26880000  0.57360000  1
  H  H89  1  0.70760000  0.26880000  0.07360000  1
  H  H90  1  0.14540000  0.19960000  0.48420000  1
  H  H91  1  0.05420000  0.19960000  0.98420000  1
  H  H92  1  0.53470000  0.08000000  0.06860000  1
  H  H93  1  0.54530000  0.08000000  0.56860000  1
  H  H94  1  0.17260000  0.06680000  0.52260000  1
  H  H95  1  0.89420000  0.06680000  0.02260000  1
  K  K96  1  0.67620000  1.00000000  0.25000000  1
  K  K97  1  0.32380000  1.00000000  0.75000000  1
  N  N98  1  0.66000000  0.96820000  0.45740000  1
  N  N99  1  0.30820000  0.96820000  0.95740000  1
  N  N100  1  0.64580000  0.79940000  0.45300000  1
  N  N101  1  0.15360000  0.79940000  0.95300000  1
  N  N102  1  0.49760000  0.71560000  0.00360000  1
  N  N103  1  0.21800000  0.71560000  0.50360000  1
  N  N104  1  0.32610000  0.54960000  0.99850000  1
  N  N105  1  0.22350000  0.54960000  0.49850000  1
  N  N106  1  0.67390000  0.45040000  0.00150000  1
  N  N107  1  0.77650000  0.45040000  0.50150000  1
  N  N108  1  0.50240000  0.28440000  0.99640000  1
  N  N109  1  0.78200000  0.28440000  0.49640000  1
  N  N110  1  0.35420000  0.20060000  0.54700000  1
  N  N111  1  0.84640000  0.20060000  0.04700000  1
  N  N112  1  0.34000000  0.03180000  0.54260000  1
  N  N113  1  0.69180000  0.03180000  0.04260000  1
  O  O114  1  0.95990000  0.98420000  0.58340000  1
  O  O115  1  0.02430000  0.98420000  0.08340000  1
  O  O116  1  0.70200000  0.96920000  0.60840000  1
  O  O117  1  0.26720000  0.96920000  0.10840000  1
  O  O118  1  0.89270000  0.96400000  0.80390000  1
  O  O119  1  0.07130000  0.96400000  0.30390000  1
  O  O120  1  0.52010000  0.96280000  0.81460000  1
  O  O121  1  0.44270000  0.96280000  0.31460000  1
  O  O122  1  0.82460000  0.94680000  0.33510000  1
  O  O123  1  0.12220000  0.94680000  0.83510000  1
  O  O124  1  0.67910000  0.89620000  0.72240000  1
  O  O125  1  0.21710000  0.89620000  0.22240000  1
  O  O126  1  0.46630000  0.87660000  0.08930000  1
  O  O127  1  0.41030000  0.87660000  0.58930000  1
  O  O128  1  0.82890000  0.87540000  0.21820000  1
  O  O129  1  0.04650000  0.87540000  0.71820000  1
  O  O130  1  0.73270000  0.87360000  0.96100000  1
  O  O131  1  0.14090000  0.87360000  0.46100000  1
  O  O132  1  0.74870000  0.84520000  0.09650000  1
  O  O133  1  0.09650000  0.84520000  0.59650000  1
  O  O134  1  0.42030000  0.83280000  0.20680000  1
  O  O135  1  0.41250000  0.83280000  0.70680000  1
  O  O136  1  0.63000000  0.82480000  0.84260000  1
  O  O137  1  0.19480000  0.82480000  0.34260000  1
  O  O138  1  0.83410000  0.81000000  0.64030000  1
  O  O139  1  0.97590000  0.81000000  0.14030000  1
  O  O140  1  0.87060000  0.80900000  0.86450000  1
  O  O141  1  0.93840000  0.80900000  0.36450000  1
  O  O142  1  0.56110000  0.76340000  0.62620000  1
  O  O143  1  0.20230000  0.76340000  0.12620000  1
  O  O144  1  0.79950000  0.73980000  0.74530000  1
  O  O145  1  0.94030000  0.73980000  0.24530000  1
  O  O146  1  0.52840000  0.69360000  0.73380000  1
  O  O147  1  0.16520000  0.69360000  0.23380000  1
  O  O148  1  0.47160000  0.30640000  0.26620000  1
  O  O149  1  0.83480000  0.30640000  0.76620000  1
  O  O150  1  0.20050000  0.26020000  0.25470000  1
  O  O151  1  0.05970000  0.26020000  0.75470000  1
  O  O152  1  0.43890000  0.23660000  0.37380000  1
  O  O153  1  0.79770000  0.23660000  0.87380000  1
  O  O154  1  0.12940000  0.19100000  0.13550000  1
  O  O155  1  0.06160000  0.19100000  0.63550000  1
  O  O156  1  0.16590000  0.19000000  0.35970000  1
  O  O157  1  0.02410000  0.19000000  0.85970000  1
  O  O158  1  0.37000000  0.17520000  0.15740000  1
  O  O159  1  0.80520000  0.17520000  0.65740000  1
  O  O160  1  0.57970000  0.16720000  0.79320000  1
  O  O161  1  0.58750000  0.16720000  0.29320000  1
  O  O162  1  0.25130000  0.15480000  0.90350000  1
  O  O163  1  0.90350000  0.15480000  0.40350000  1
  O  O164  1  0.26730000  0.12640000  0.03900000  1
  O  O165  1  0.85910000  0.12640000  0.53900000  1
  O  O166  1  0.17110000  0.12460000  0.78180000  1
  O  O167  1  0.95350000  0.12460000  0.28180000  1
  O  O168  1  0.53370000  0.12340000  0.91070000  1
  O  O169  1  0.58970000  0.12340000  0.41070000  1
  O  O170  1  0.32090000  0.10380000  0.27760000  1
  O  O171  1  0.78290000  0.10380000  0.77760000  1
  O  O172  1  0.17540000  0.05320000  0.66490000  1
  O  O173  1  0.87780000  0.05320000  0.16490000  1
  O  O174  1  0.47990000  0.03720000  0.18540000  1
  O  O175  1  0.55730000  0.03720000  0.68540000  1
  O  O176  1  0.10730000  0.03600000  0.19610000  1
  O  O177  1  0.92870000  0.03600000  0.69610000  1
  O  O178  1  0.29800000  0.03080000  0.39160000  1
  O  O179  1  0.73280000  0.03080000  0.89160000  1
  O  O180  1  0.04010000  0.01580000  0.41660000  1
  O  O181  1  0.97570000  0.01580000  0.91660000  1
  Si  Si182  1  0.82090000  0.00000000  0.75000000  1
  Si  Si183  1  0.17910000  0.00000000  0.25000000  1
  W  W184  1  0.89574000  0.91636000  0.14310000  1
  W  W185  1  0.02062000  0.91636000  0.64310000  1
  W  W186  1  0.79034000  0.91040000  0.89179000  1
  W  W187  1  0.12006000  0.91040000  0.39179000  1
  W  W188  1  0.53422000  0.89706000  0.64627000  1
  W  W189  1  0.36284000  0.89706000  0.14627000  1
  W  W190  1  0.96964000  0.82080000  0.79176000  1
  W  W191  1  0.49423000  0.81214000  0.78033000  1
  W  W192  1  0.67422000  0.72224000  0.67895000  1
  W  W193  1  0.04802000  0.72224000  0.17895000  1
  W  W194  1  0.32578000  0.27776000  0.32105000  1
  W  W195  1  0.95198000  0.27776000  0.82105000  1
  W  W196  1  0.50577000  0.18786000  0.21967000  1
  W  W197  1  0.03036000  0.17920000  0.20824000  1
  W  W198  1  0.46578000  0.10294000  0.35373000  1
  W  W199  1  0.63716000  0.10294000  0.85373000  1
  W  W200  1  0.20966000  0.08960000  0.10821000  1
  W  W201  1  0.87994000  0.08960000  0.60821000  1
  W  W202  1  0.10426000  0.08364000  0.85690000  1
  W  W203  1  0.97938000  0.08364000  0.35690000  1
