# generated using pymatgen
data_Cd3H34C54(NO6)2
_symmetry_space_group_name_H-M   'P 1'
_cell_length_a   9.42980000
_cell_length_b   13.31850000
_cell_length_c   23.22400000
_cell_angle_alpha   94.58400000
_cell_angle_beta   90.00000000
_cell_angle_gamma   90.00000000
_symmetry_Int_Tables_number   1
_chemical_formula_structural   Cd3H34C54(NO6)2
_chemical_formula_sum   'Cd6 H68 C108 N4 O24'
_cell_volume   2907.39063462
_cell_formula_units_Z   2
loop_
 _symmetry_equiv_pos_site_id
 _symmetry_equiv_pos_as_xyz
  1  'x, y, z'
loop_
 _atom_site_type_symbol
 _atom_site_label
 _atom_site_symmetry_multiplicity
 _atom_site_fract_x
 _atom_site_fract_y
 _atom_site_fract_z
 _atom_site_occupancy
  Cd  Cd0  1  0.00000000  0.00000000  0.00000000  1
  Cd  Cd1  1  0.00000000  0.50000000  0.50000000  1
  Cd  Cd2  1  0.34797000  0.02746000  0.95459000  1
  Cd  Cd3  1  0.34797000  0.47254000  0.54541000  1
  Cd  Cd4  1  0.65203000  0.52746000  0.45459000  1
  Cd  Cd5  1  0.65203000  0.97254000  0.04541000  1
  H  H6  1  0.01600000  0.66010000  0.20290000  1
  H  H7  1  0.01600000  0.83990000  0.29710000  1
  H  H8  1  0.01830000  0.21250000  0.39200000  1
  H  H9  1  0.01830000  0.28750000  0.10800000  1
  H  H10  1  0.03660000  0.06070000  0.33680000  1
  H  H11  1  0.03660000  0.43930000  0.16320000  1
  H  H12  1  0.09910000  0.60950000  0.09970000  1
  H  H13  1  0.09910000  0.89050000  0.40030000  1
  H  H14  1  0.10360000  0.00810000  0.13680000  1
  H  H15  1  0.10360000  0.49190000  0.36320000  1
  H  H16  1  0.11590000  0.74060000  0.04130000  1
  H  H17  1  0.11590000  0.75940000  0.45870000  1
  H  H18  1  0.14710000  0.16440000  0.77650000  1
  H  H19  1  0.14710000  0.33560000  0.72350000  1
  H  H20  1  0.18960000  0.74530000  0.80370000  1
  H  H21  1  0.18960000  0.75470000  0.69630000  1
  H  H22  1  0.19400000  0.65960000  0.61030000  1
  H  H23  1  0.19400000  0.84040000  0.88970000  1
  H  H24  1  0.26230000  0.01530000  0.21200000  1
  H  H25  1  0.26230000  0.48470000  0.28800000  1
  H  H26  1  0.35580000  0.55670000  0.20720000  1
  H  H27  1  0.35580000  0.94330000  0.29280000  1
  H  H28  1  0.41450000  0.16720000  0.22370000  1
  H  H29  1  0.41450000  0.33280000  0.27630000  1
  H  H30  1  0.42530000  0.06720000  0.13890000  1
  H  H31  1  0.42530000  0.43280000  0.36110000  1
  H  H32  1  0.42960000  0.20500000  0.42470000  1
  H  H33  1  0.42960000  0.29500000  0.07530000  1
  H  H34  1  0.43770000  0.71170000  0.18860000  1
  H  H35  1  0.43770000  0.78830000  0.31140000  1
  H  H36  1  0.45060000  0.05780000  0.36870000  1
  H  H37  1  0.45060000  0.44220000  0.13130000  1
  H  H38  1  0.46010000  0.65860000  0.37140000  1
  H  H39  1  0.46010000  0.84140000  0.12860000  1
  H  H40  1  0.53990000  0.15860000  0.87140000  1
  H  H41  1  0.53990000  0.34140000  0.62860000  1
  H  H42  1  0.54940000  0.55780000  0.86870000  1
  H  H43  1  0.54940000  0.94220000  0.63130000  1
  H  H44  1  0.56230000  0.21170000  0.68860000  1
  H  H45  1  0.56230000  0.28830000  0.81140000  1
  H  H46  1  0.57040000  0.70500000  0.92470000  1
  H  H47  1  0.57040000  0.79500000  0.57530000  1
  H  H48  1  0.57470000  0.56720000  0.63890000  1
  H  H49  1  0.57470000  0.93280000  0.86110000  1
  H  H50  1  0.58550000  0.66720000  0.72370000  1
  H  H51  1  0.58550000  0.83280000  0.77630000  1
  H  H52  1  0.64420000  0.05670000  0.70720000  1
  H  H53  1  0.64420000  0.44330000  0.79280000  1
  H  H54  1  0.73770000  0.51530000  0.71200000  1
  H  H55  1  0.73770000  0.98470000  0.78800000  1
  H  H56  1  0.80600000  0.15960000  0.11030000  1
  H  H57  1  0.80600000  0.34040000  0.38970000  1
  H  H58  1  0.81040000  0.24530000  0.30370000  1
  H  H59  1  0.81040000  0.25470000  0.19630000  1
  H  H60  1  0.85290000  0.66440000  0.27650000  1
  H  H61  1  0.85290000  0.83560000  0.22350000  1
  H  H62  1  0.88410000  0.24060000  0.54130000  1
  H  H63  1  0.88410000  0.25940000  0.95870000  1
  H  H64  1  0.89640000  0.50810000  0.63680000  1
  H  H65  1  0.89640000  0.99190000  0.86320000  1
  H  H66  1  0.90090000  0.10950000  0.59970000  1
  H  H67  1  0.90090000  0.39050000  0.90030000  1
  H  H68  1  0.96340000  0.56070000  0.83680000  1
  H  H69  1  0.96340000  0.93930000  0.66320000  1
  H  H70  1  0.98170000  0.71250000  0.89200000  1
  H  H71  1  0.98170000  0.78750000  0.60800000  1
  H  H72  1  0.98400000  0.16010000  0.70290000  1
  H  H73  1  0.98400000  0.33990000  0.79710000  1
  C  C74  1  0.03400000  0.62460000  0.23500000  1
  C  C75  1  0.03400000  0.87540000  0.26500000  1
  C  C76  1  0.04040000  0.07853000  0.82693000  1
  C  C77  1  0.04040000  0.42147000  0.67307000  1
  C  C78  1  0.06380000  0.12780000  0.77950000  1
  C  C79  1  0.06380000  0.37220000  0.72050000  1
  C  C80  1  0.08400000  0.52540000  0.33050000  1
  C  C81  1  0.08400000  0.97460000  0.16950000  1
  C  C82  1  0.10590000  0.18060000  0.38810000  1
  C  C83  1  0.10590000  0.31940000  0.11190000  1
  C  C84  1  0.11720000  0.08940000  0.35430000  1
  C  C85  1  0.11720000  0.41060000  0.14570000  1
  C  C86  1  0.14700000  0.07761000  0.87441000  1
  C  C87  1  0.14700000  0.42239000  0.62559000  1
  C  C88  1  0.15480000  0.57131000  0.23731000  1
  C  C89  1  0.15480000  0.92869000  0.26269000  1
  C  C90  1  0.17180000  0.65630000  0.10570000  1
  C  C91  1  0.17180000  0.84370000  0.39430000  1
  C  C92  1  0.17930000  0.52170000  0.28540000  1
  C  C93  1  0.17930000  0.97830000  0.21460000  1
  C  C94  1  0.18200000  0.73480000  0.07050000  1
  C  C95  1  0.18200000  0.76520000  0.42950000  1
  C  C96  1  0.20920000  0.18029000  0.04679000  1
  C  C97  1  0.20920000  0.31971000  0.45321000  1
  C  C98  1  0.22060000  0.22360000  0.41540000  1
  C  C99  1  0.22060000  0.27640000  0.08460000  1
  C  C100  1  0.24480000  0.04193000  0.34663000  1
  C  C101  1  0.24480000  0.45807000  0.15337000  1
  C  C102  1  0.26260000  0.55907000  0.18867000  1
  C  C103  1  0.26260000  0.94093000  0.31133000  1
  C  C104  1  0.26880000  0.64646000  0.14986000  1
  C  C105  1  0.26880000  0.85354000  0.35014000  1
  C  C106  1  0.27000000  0.71730000  0.68560000  1
  C  C107  1  0.27000000  0.78270000  0.81440000  1
  C  C108  1  0.27310000  0.65930000  0.63410000  1
  C  C109  1  0.27310000  0.84070000  0.86590000  1
  C  C110  1  0.28870000  0.69569000  0.42149000  1
  C  C111  1  0.28870000  0.80431000  0.07851000  1
  C  C112  1  0.30370000  0.61285000  0.46045000  1
  C  C113  1  0.30370000  0.88715000  0.03955000  1
  C  C114  1  0.34930000  0.17610000  0.40700000  1
  C  C115  1  0.34930000  0.32390000  0.09300000  1
  C  C116  1  0.36190000  0.08790000  0.37360000  1
  C  C117  1  0.36190000  0.41210000  0.12640000  1
  C  C118  1  0.37380000  0.71650000  0.15840000  1
  C  C119  1  0.37380000  0.78350000  0.34160000  1
  C  C120  1  0.38660000  0.70490000  0.37710000  1
  C  C121  1  0.38660000  0.79510000  0.12290000  1
  C  C122  1  0.38760000  0.72020000  0.72180000  1
  C  C123  1  0.38760000  0.77980000  0.77820000  1
  C  C124  1  0.49590000  0.60590000  0.65020000  1
  C  C125  1  0.49590000  0.89410000  0.84980000  1
  C  C126  1  0.49760000  0.16510000  0.20210000  1
  C  C127  1  0.49760000  0.33490000  0.29790000  1
  C  C128  1  0.50240000  0.66510000  0.70210000  1
  C  C129  1  0.50240000  0.83490000  0.79790000  1
  C  C130  1  0.50410000  0.10590000  0.15020000  1
  C  C131  1  0.50410000  0.39410000  0.34980000  1
  C  C132  1  0.61240000  0.22020000  0.22180000  1
  C  C133  1  0.61240000  0.27980000  0.27820000  1
  C  C134  1  0.61340000  0.20490000  0.87710000  1
  C  C135  1  0.61340000  0.29510000  0.62290000  1
  C  C136  1  0.62620000  0.21650000  0.65840000  1
  C  C137  1  0.62620000  0.28350000  0.84160000  1
  C  C138  1  0.63810000  0.58790000  0.87360000  1
  C  C139  1  0.63810000  0.91210000  0.62640000  1
  C  C140  1  0.65070000  0.67610000  0.90700000  1
  C  C141  1  0.65070000  0.82390000  0.59300000  1
  C  C142  1  0.69630000  0.11285000  0.96045000  1
  C  C143  1  0.69630000  0.38715000  0.53955000  1
  C  C144  1  0.71130000  0.19569000  0.92149000  1
  C  C145  1  0.71130000  0.30431000  0.57851000  1
  C  C146  1  0.72690000  0.15930000  0.13410000  1
  C  C147  1  0.72690000  0.34070000  0.36590000  1
  C  C148  1  0.73000000  0.21730000  0.18560000  1
  C  C149  1  0.73000000  0.28270000  0.31440000  1
  C  C150  1  0.73120000  0.14646000  0.64986000  1
  C  C151  1  0.73120000  0.35354000  0.85014000  1
  C  C152  1  0.73740000  0.05907000  0.68867000  1
  C  C153  1  0.73740000  0.44093000  0.81133000  1
  C  C154  1  0.75520000  0.54193000  0.84663000  1
  C  C155  1  0.75520000  0.95807000  0.65337000  1
  C  C156  1  0.77940000  0.72360000  0.91540000  1
  C  C157  1  0.77940000  0.77640000  0.58460000  1
  C  C158  1  0.79080000  0.68029000  0.54679000  1
  C  C159  1  0.79080000  0.81971000  0.95321000  1
  C  C160  1  0.81800000  0.23480000  0.57050000  1
  C  C161  1  0.81800000  0.26520000  0.92950000  1
  C  C162  1  0.82070000  0.02170000  0.78540000  1
  C  C163  1  0.82070000  0.47830000  0.71460000  1
  C  C164  1  0.82820000  0.15630000  0.60570000  1
  C  C165  1  0.82820000  0.34370000  0.89430000  1
  C  C166  1  0.84520000  0.07131000  0.73731000  1
  C  C167  1  0.84520000  0.42869000  0.76269000  1
  C  C168  1  0.85300000  0.57761000  0.37441000  1
  C  C169  1  0.85300000  0.92239000  0.12559000  1
  C  C170  1  0.88280000  0.58940000  0.85430000  1
  C  C171  1  0.88280000  0.91060000  0.64570000  1
  C  C172  1  0.89410000  0.68060000  0.88810000  1
  C  C173  1  0.89410000  0.81940000  0.61190000  1
  C  C174  1  0.91600000  0.02540000  0.83050000  1
  C  C175  1  0.91600000  0.47460000  0.66950000  1
  C  C176  1  0.93620000  0.62780000  0.27950000  1
  C  C177  1  0.93620000  0.87220000  0.22050000  1
  C  C178  1  0.95960000  0.57853000  0.32693000  1
  C  C179  1  0.95960000  0.92147000  0.17307000  1
  C  C180  1  0.96600000  0.12460000  0.73500000  1
  C  C181  1  0.96600000  0.37540000  0.76500000  1
  N  N182  1  0.38490000  0.60185000  0.61635000  1
  N  N183  1  0.38490000  0.89815000  0.88365000  1
  N  N184  1  0.61510000  0.10185000  0.11635000  1
  N  N185  1  0.61510000  0.39815000  0.38365000  1
  O  O186  1  0.09620000  0.13091000  0.04871000  1
  O  O187  1  0.09620000  0.36909000  0.45129000  1
  O  O188  1  0.11340000  0.03527000  0.91917000  1
  O  O189  1  0.11340000  0.46473000  0.58083000  1
  O  O190  1  0.20680000  0.59712000  0.49502000  1
  O  O191  1  0.20680000  0.90288000  0.00498000  1
  O  O192  1  0.26810000  0.11228000  0.86868000  1
  O  O193  1  0.26810000  0.38772000  0.63132000  1
  O  O194  1  0.31460000  0.15715000  0.01675000  1
  O  O195  1  0.31460000  0.34285000  0.48325000  1
  O  O196  1  0.41560000  0.56140000  0.45970000  1
  O  O197  1  0.41560000  0.93860000  0.04030000  1
  O  O198  1  0.58440000  0.06140000  0.95970000  1
  O  O199  1  0.58440000  0.43860000  0.54030000  1
  O  O200  1  0.68540000  0.65715000  0.51675000  1
  O  O201  1  0.68540000  0.84285000  0.98325000  1
  O  O202  1  0.73190000  0.61228000  0.36868000  1
  O  O203  1  0.73190000  0.88772000  0.13132000  1
  O  O204  1  0.79320000  0.09712000  0.99502000  1
  O  O205  1  0.79320000  0.40288000  0.50498000  1
  O  O206  1  0.88660000  0.53527000  0.41917000  1
  O  O207  1  0.88660000  0.96473000  0.08083000  1
  O  O208  1  0.90380000  0.63091000  0.54871000  1
  O  O209  1  0.90380000  0.86909000  0.95129000  1
