# generated using pymatgen
data_Zn2H24C27(NO2)4
_symmetry_space_group_name_H-M   'P 1'
_cell_length_a   10.84710000
_cell_length_b   18.23200000
_cell_length_c   18.89400000
_cell_angle_alpha   108.71100000
_cell_angle_beta   90.00000000
_cell_angle_gamma   90.00000000
_symmetry_Int_Tables_number   1
_chemical_formula_structural   Zn2H24C27(NO2)4
_chemical_formula_sum   'Zn8 H96 C108 N16 O32'
_cell_volume   3539.07721318
_cell_formula_units_Z   4
loop_
 _symmetry_equiv_pos_site_id
 _symmetry_equiv_pos_as_xyz
  1  'x, y, z'
loop_
 _atom_site_type_symbol
 _atom_site_label
 _atom_site_symmetry_multiplicity
 _atom_site_fract_x
 _atom_site_fract_y
 _atom_site_fract_z
 _atom_site_occupancy
  Zn  Zn0  1  0.19397000  0.21126000  0.12507000  1
  Zn  Zn1  1  0.19518000  0.31637000  0.02802000  1
  Zn  Zn2  1  0.30482000  0.81637000  0.52802000  1
  Zn  Zn3  1  0.30603000  0.71126000  0.62507000  1
  Zn  Zn4  1  0.69397000  0.28874000  0.37493000  1
  Zn  Zn5  1  0.69518000  0.18363000  0.47198000  1
  Zn  Zn6  1  0.80482000  0.68363000  0.97198000  1
  Zn  Zn7  1  0.80603000  0.78874000  0.87493000  1
  H  H8  1  0.00760000  0.88540000  0.81760000  1
  H  H9  1  0.01400000  0.47570000  0.13600000  1
  H  H10  1  0.02620000  0.68130000  0.14220000  1
  H  H11  1  0.02660000  0.56660000  0.17890000  1
  H  H12  1  0.03860000  0.04110000  0.26860000  1
  H  H13  1  0.05000000  0.58830000  0.70410000  1
  H  H14  1  0.07290000  0.66520000  0.77330000  1
  H  H15  1  0.07740000  0.49140000  0.74400000  1
  H  H16  1  0.08520000  0.27210000  0.33750000  1
  H  H17  1  0.08560000  0.66750000  0.68970000  1
  H  H18  1  0.08670000  0.27220000  0.87760000  1
  H  H19  1  0.08950000  0.19310000  0.51350000  1
  H  H20  1  0.09960000  0.30870000  0.81140000  1
  H  H21  1  0.14740000  0.56740000  0.97780000  1
  H  H22  1  0.16910000  0.59240000  0.85160000  1
  H  H23  1  0.16920000  0.43290000  0.76530000  1
  H  H24  1  0.18350000  0.39610000  0.34250000  1
  H  H25  1  0.19660000  0.70190000  0.01830000  1
  H  H26  1  0.20100000  0.78300000  0.84220000  1
  H  H27  1  0.20850000  0.13130000  0.81230000  1
  H  H28  1  0.21230000  0.50500000  0.44690000  1
  H  H29  1  0.22410000  0.03090000  0.34760000  1
  H  H30  1  0.23560000  0.49560000  0.05700000  1
  H  H31  1  0.24230000  0.02360000  0.70780000  1
  H  H32  1  0.25770000  0.52360000  0.20780000  1
  H  H33  1  0.26440000  0.99560000  0.55700000  1
  H  H34  1  0.27590000  0.53090000  0.84760000  1
  H  H35  1  0.28770000  0.00500000  0.94690000  1
  H  H36  1  0.29150000  0.63130000  0.31230000  1
  H  H37  1  0.29900000  0.28300000  0.34220000  1
  H  H38  1  0.30340000  0.20190000  0.51830000  1
  H  H39  1  0.31650000  0.89610000  0.84250000  1
  H  H40  1  0.33080000  0.93290000  0.26530000  1
  H  H41  1  0.33090000  0.09240000  0.35160000  1
  H  H42  1  0.35260000  0.06740000  0.47780000  1
  H  H43  1  0.40040000  0.80870000  0.31140000  1
  H  H44  1  0.41050000  0.69310000  0.01350000  1
  H  H45  1  0.41330000  0.77220000  0.37760000  1
  H  H46  1  0.41440000  0.16750000  0.18970000  1
  H  H47  1  0.41480000  0.77210000  0.83750000  1
  H  H48  1  0.42260000  0.99140000  0.24400000  1
  H  H49  1  0.42710000  0.16520000  0.27330000  1
  H  H50  1  0.45000000  0.08830000  0.20410000  1
  H  H51  1  0.46140000  0.54110000  0.76860000  1
  H  H52  1  0.47340000  0.06660000  0.67890000  1
  H  H53  1  0.47380000  0.18130000  0.64220000  1
  H  H54  1  0.48600000  0.97570000  0.63600000  1
  H  H55  1  0.49240000  0.38540000  0.31760000  1
  H  H56  1  0.50760000  0.61460000  0.68240000  1
  H  H57  1  0.51400000  0.02430000  0.36400000  1
  H  H58  1  0.52620000  0.81870000  0.35780000  1
  H  H59  1  0.52660000  0.93340000  0.32110000  1
  H  H60  1  0.53860000  0.45890000  0.23140000  1
  H  H61  1  0.55000000  0.91170000  0.79590000  1
  H  H62  1  0.57290000  0.83480000  0.72670000  1
  H  H63  1  0.57740000  0.00860000  0.75600000  1
  H  H64  1  0.58520000  0.22790000  0.16250000  1
  H  H65  1  0.58560000  0.83250000  0.81030000  1
  H  H66  1  0.58670000  0.22780000  0.62240000  1
  H  H67  1  0.58950000  0.30690000  0.98650000  1
  H  H68  1  0.59960000  0.19130000  0.68860000  1
  H  H69  1  0.64740000  0.93260000  0.52220000  1
  H  H70  1  0.66910000  0.90760000  0.64840000  1
  H  H71  1  0.66920000  0.06710000  0.73470000  1
  H  H72  1  0.68350000  0.10390000  0.15750000  1
  H  H73  1  0.69660000  0.79810000  0.48170000  1
  H  H74  1  0.70100000  0.71700000  0.65780000  1
  H  H75  1  0.70850000  0.36870000  0.68770000  1
  H  H76  1  0.71230000  0.99500000  0.05310000  1
  H  H77  1  0.72410000  0.46910000  0.15240000  1
  H  H78  1  0.73560000  0.00440000  0.44300000  1
  H  H79  1  0.74230000  0.47640000  0.79220000  1
  H  H80  1  0.75770000  0.97640000  0.29220000  1
  H  H81  1  0.76440000  0.50440000  0.94300000  1
  H  H82  1  0.77590000  0.96910000  0.65240000  1
  H  H83  1  0.78770000  0.49500000  0.55310000  1
  H  H84  1  0.79150000  0.86870000  0.18770000  1
  H  H85  1  0.79900000  0.21700000  0.15780000  1
  H  H86  1  0.80340000  0.29810000  0.98170000  1
  H  H87  1  0.81650000  0.60390000  0.65750000  1
  H  H88  1  0.83080000  0.56710000  0.23470000  1
  H  H89  1  0.83090000  0.40760000  0.14840000  1
  H  H90  1  0.85260000  0.43260000  0.02220000  1
  H  H91  1  0.90040000  0.69130000  0.18860000  1
  H  H92  1  0.91050000  0.80690000  0.48650000  1
  H  H93  1  0.91330000  0.72780000  0.12240000  1
  H  H94  1  0.91440000  0.33250000  0.31030000  1
  H  H95  1  0.91480000  0.72790000  0.66250000  1
  H  H96  1  0.92260000  0.50860000  0.25600000  1
  H  H97  1  0.92710000  0.33480000  0.22670000  1
  H  H98  1  0.95000000  0.41170000  0.29590000  1
  H  H99  1  0.96140000  0.95890000  0.73140000  1
  H  H100  1  0.97340000  0.43340000  0.82110000  1
  H  H101  1  0.97380000  0.31870000  0.85780000  1
  H  H102  1  0.98600000  0.52430000  0.86400000  1
  H  H103  1  0.99240000  0.11460000  0.18240000  1
  C  C104  1  0.03290000  0.47530000  0.84460000  1
  C  C105  1  0.04040000  0.74360000  0.92940000  1
  C  C106  1  0.06370000  0.31590000  0.86080000  1
  C  C107  1  0.06740000  0.23180000  0.42520000  1
  C  C108  1  0.07080000  0.77270000  0.57670000  1
  C  C109  1  0.07140000  0.10800000  0.20110000  1
  C  C110  1  0.09650000  0.06800000  0.24830000  1
  C  C111  1  0.09870000  0.63600000  0.72240000  1
  C  C112  1  0.11140000  0.38930000  0.91510000  1
  C  C113  1  0.12340000  0.48220000  0.78560000  1
  C  C114  1  0.12990000  0.25810000  0.37440000  1
  C  C115  1  0.13240000  0.21110000  0.47850000  1
  C  C116  1  0.14570000  0.51290000  0.96780000  1
  C  C117  1  0.17790000  0.74280000  0.93020000  1
  C  C118  1  0.19360000  0.47340000  0.01090000  1
  C  C119  1  0.19810000  0.37830000  0.19800000  1
  C  C120  1  0.20500000  0.44420000  0.33620000  1
  C  C121  1  0.21400000  0.54770000  0.81750000  1
  C  C122  1  0.21780000  0.44920000  0.26530000  1
  C  C123  1  0.21940000  0.14730000  0.95780000  1
  C  C124  1  0.22330000  0.50870000  0.39830000  1
  C  C125  1  0.23070000  0.08340000  0.81860000  1
  C  C126  1  0.23130000  0.61600000  0.72230000  1
  C  C127  1  0.24080000  0.71630000  0.98140000  1
  C  C128  1  0.24260000  0.07870000  0.89000000  1
  C  C129  1  0.24330000  0.76420000  0.87690000  1
  C  C130  1  0.24960000  0.51950000  0.25650000  1
  C  C131  1  0.25040000  0.01950000  0.75650000  1
  C  C132  1  0.25670000  0.26420000  0.37690000  1
  C  C133  1  0.25740000  0.57870000  0.39000000  1
  C  C134  1  0.25920000  0.21630000  0.48140000  1
  C  C135  1  0.26870000  0.11600000  0.22230000  1
  C  C136  1  0.26930000  0.58340000  0.31860000  1
  C  C137  1  0.27670000  0.00870000  0.89830000  1
  C  C138  1  0.28060000  0.64730000  0.45780000  1
  C  C139  1  0.28220000  0.94920000  0.76530000  1
  C  C140  1  0.28600000  0.04770000  0.31750000  1
  C  C141  1  0.29500000  0.94420000  0.83620000  1
  C  C142  1  0.30190000  0.87830000  0.69800000  1
  C  C143  1  0.30640000  0.97340000  0.51090000  1
  C  C144  1  0.32210000  0.24280000  0.43020000  1
  C  C145  1  0.35430000  0.01290000  0.46780000  1
  C  C146  1  0.36760000  0.71110000  0.97850000  1
  C  C147  1  0.37010000  0.75810000  0.87440000  1
  C  C148  1  0.37660000  0.98220000  0.28560000  1
  C  C149  1  0.38860000  0.88930000  0.41510000  1
  C  C150  1  0.40130000  0.13600000  0.22240000  1
  C  C151  1  0.40350000  0.56800000  0.74830000  1
  C  C152  1  0.42860000  0.60800000  0.70110000  1
  C  C153  1  0.42920000  0.27270000  0.07670000  1
  C  C154  1  0.43260000  0.73180000  0.92520000  1
  C  C155  1  0.43630000  0.81590000  0.36080000  1
  C  C156  1  0.45960000  0.24360000  0.42940000  1
  C  C157  1  0.46710000  0.97530000  0.34460000  1
  C  C158  1  0.53290000  0.02470000  0.65540000  1
  C  C159  1  0.54040000  0.75640000  0.57060000  1
  C  C160  1  0.56370000  0.18410000  0.63920000  1
  C  C161  1  0.56740000  0.26820000  0.07480000  1
  C  C162  1  0.57080000  0.72730000  0.92330000  1
  C  C163  1  0.57140000  0.39200000  0.29890000  1
  C  C164  1  0.59650000  0.43200000  0.25170000  1
  C  C165  1  0.59870000  0.86400000  0.77760000  1
  C  C166  1  0.61140000  0.11070000  0.58490000  1
  C  C167  1  0.62340000  0.01780000  0.71440000  1
  C  C168  1  0.62990000  0.24190000  0.12560000  1
  C  C169  1  0.63240000  0.28890000  0.02150000  1
  C  C170  1  0.64570000  0.98710000  0.53220000  1
  C  C171  1  0.67790000  0.75720000  0.56980000  1
  C  C172  1  0.69360000  0.02660000  0.48910000  1
  C  C173  1  0.69810000  0.12170000  0.30200000  1
  C  C174  1  0.70500000  0.05580000  0.16380000  1
  C  C175  1  0.71400000  0.95230000  0.68250000  1
  C  C176  1  0.71780000  0.05080000  0.23470000  1
  C  C177  1  0.71940000  0.35270000  0.54220000  1
  C  C178  1  0.72330000  0.99130000  0.10170000  1
  C  C179  1  0.73070000  0.41660000  0.68140000  1
  C  C180  1  0.73130000  0.88400000  0.77770000  1
  C  C181  1  0.74080000  0.78370000  0.51860000  1
  C  C182  1  0.74260000  0.42130000  0.61000000  1
  C  C183  1  0.74330000  0.73580000  0.62310000  1
  C  C184  1  0.74960000  0.98050000  0.24350000  1
  C  C185  1  0.75040000  0.48050000  0.74350000  1
  C  C186  1  0.75670000  0.23580000  0.12310000  1
  C  C187  1  0.75740000  0.92130000  0.11000000  1
  C  C188  1  0.75920000  0.28370000  0.01860000  1
  C  C189  1  0.76870000  0.38400000  0.27770000  1
  C  C190  1  0.76930000  0.91660000  0.18140000  1
  C  C191  1  0.77670000  0.49130000  0.60170000  1
  C  C192  1  0.78060000  0.85270000  0.04220000  1
  C  C193  1  0.78220000  0.55080000  0.73470000  1
  C  C194  1  0.78600000  0.45230000  0.18250000  1
  C  C195  1  0.79500000  0.55580000  0.66380000  1
  C  C196  1  0.80190000  0.62170000  0.80200000  1
  C  C197  1  0.80640000  0.52660000  0.98910000  1
  C  C198  1  0.82210000  0.25720000  0.06980000  1
  C  C199  1  0.85430000  0.48710000  0.03220000  1
  C  C200  1  0.86760000  0.78890000  0.52150000  1
  C  C201  1  0.87010000  0.74190000  0.62560000  1
  C  C202  1  0.87660000  0.51780000  0.21440000  1
  C  C203  1  0.88860000  0.61070000  0.08490000  1
  C  C204  1  0.90130000  0.36400000  0.27760000  1
  C  C205  1  0.90350000  0.93200000  0.75170000  1
  C  C206  1  0.92860000  0.89200000  0.79890000  1
  C  C207  1  0.92920000  0.22730000  0.42330000  1
  C  C208  1  0.93260000  0.76820000  0.57480000  1
  C  C209  1  0.93630000  0.68410000  0.13920000  1
  C  C210  1  0.95960000  0.25640000  0.07060000  1
  C  C211  1  0.96710000  0.52470000  0.15540000  1
  N  N212  1  0.09400000  0.45890000  0.90690000  1
  N  N213  1  0.17160000  0.39590000  0.97712000  1
  N  N214  1  0.18170000  0.13785000  0.18471000  1
  N  N215  1  0.22130000  0.07330000  0.26150000  1
  N  N216  1  0.27870000  0.57330000  0.76150000  1
  N  N217  1  0.31830000  0.63785000  0.68471000  1
  N  N218  1  0.32840000  0.89590000  0.47712000  1
  N  N219  1  0.40600000  0.95890000  0.40690000  1
  N  N220  1  0.59400000  0.04110000  0.59310000  1
  N  N221  1  0.67160000  0.10410000  0.52288000  1
  N  N222  1  0.68170000  0.36215000  0.31529000  1
  N  N223  1  0.72130000  0.42670000  0.23850000  1
  N  N224  1  0.77870000  0.92670000  0.73850000  1
  N  N225  1  0.81830000  0.86215000  0.81529000  1
  N  N226  1  0.82840000  0.60410000  0.02288000  1
  N  N227  1  0.90600000  0.54110000  0.09310000  1
  O  O228  1  0.01140000  0.21758000  0.10533000  1
  O  O229  1  0.01240000  0.29710000  0.03750000  1
  O  O230  1  0.12120000  0.80760000  0.53720000  1
  O  O231  1  0.12650000  0.74031000  0.61587000  1
  O  O232  1  0.18550000  0.31507000  0.20923000  1
  O  O233  1  0.19660000  0.38870000  0.13611000  1
  O  O234  1  0.20490000  0.21078000  0.94790000  1
  O  O235  1  0.21550000  0.13529000  0.01860000  1
  O  O236  1  0.28450000  0.63529000  0.51860000  1
  O  O237  1  0.29510000  0.71078000  0.44790000  1
  O  O238  1  0.30340000  0.88870000  0.63611000  1
  O  O239  1  0.31450000  0.81507000  0.70923000  1
  O  O240  1  0.37350000  0.24031000  0.11587000  1
  O  O241  1  0.37880000  0.30760000  0.03720000  1
  O  O242  1  0.48760000  0.79710000  0.53750000  1
  O  O243  1  0.48860000  0.71758000  0.60533000  1
  O  O244  1  0.51140000  0.28242000  0.39467000  1
  O  O245  1  0.51240000  0.20290000  0.46250000  1
  O  O246  1  0.62120000  0.69240000  0.96280000  1
  O  O247  1  0.62650000  0.75969000  0.88413000  1
  O  O248  1  0.68550000  0.18493000  0.29077000  1
  O  O249  1  0.69660000  0.11130000  0.36389000  1
  O  O250  1  0.70490000  0.28922000  0.55210000  1
  O  O251  1  0.71550000  0.36471000  0.48140000  1
  O  O252  1  0.78450000  0.86471000  0.98140000  1
  O  O253  1  0.79510000  0.78922000  0.05210000  1
  O  O254  1  0.80340000  0.61130000  0.86389000  1
  O  O255  1  0.81450000  0.68493000  0.79077000  1
  O  O256  1  0.87350000  0.25969000  0.38413000  1
  O  O257  1  0.87880000  0.19240000  0.46280000  1
  O  O258  1  0.98760000  0.70290000  0.96250000  1
  O  O259  1  0.98860000  0.78242000  0.89467000  1
