# generated using pymatgen
data_AlPO4
_symmetry_space_group_name_H-M   'P 1'
_cell_length_a   8.91386182
_cell_length_b   8.91386182
_cell_length_c   14.30410000
_cell_angle_alpha   90.09289874
_cell_angle_beta   90.09289874
_cell_angle_gamma   110.01774997
_symmetry_Int_Tables_number   1
_chemical_formula_structural   AlPO4
_chemical_formula_sum   'Al8 P8 O32'
_cell_volume   1067.89221306
_cell_formula_units_Z   8
loop_
 _symmetry_equiv_pos_site_id
 _symmetry_equiv_pos_as_xyz
  1  'x, y, z'
loop_
 _atom_site_type_symbol
 _atom_site_label
 _atom_site_symmetry_multiplicity
 _atom_site_fract_x
 _atom_site_fract_y
 _atom_site_fract_z
 _atom_site_occupancy
  Al  Al0  1  0.59690000  0.13550000  0.62890000  1
  Al  Al1  1  0.13550000  0.59690000  0.12890000  1
  Al  Al2  1  0.74430000  0.97210000  0.01630000  1
  Al  Al3  1  0.97210000  0.74430000  0.51630000  1
  Al  Al4  1  0.25570000  0.02790000  0.98370000  1
  Al  Al5  1  0.02790000  0.25570000  0.48370000  1
  Al  Al6  1  0.40310000  0.86450000  0.37110000  1
  Al  Al7  1  0.86450000  0.40310000  0.87110000  1
  O  O8  1  0.85780000  0.07540000  0.44790000  1
  O  O9  1  0.07540000  0.85780000  0.94790000  1
  O  O10  1  0.65350000  0.27070000  0.88640000  1
  O  O11  1  0.27070000  0.65350000  0.38640000  1
  O  O12  1  0.57770000  0.07410000  0.75380000  1
  O  O13  1  0.07410000  0.57770000  0.25380000  1
  O  O14  1  0.66720000  0.97680000  0.57810000  1
  O  O15  1  0.97680000  0.66720000  0.07810000  1
  O  O16  1  0.64550000  0.98830000  0.90390000  1
  O  O17  1  0.98830000  0.64550000  0.40390000  1
  O  O18  1  0.78770000  0.79510000  0.50790000  1
  O  O19  1  0.79510000  0.78770000  0.00790000  1
  O  O20  1  0.60580000  0.95120000  0.11700000  1
  O  O21  1  0.95120000  0.60580000  0.61700000  1
  O  O22  1  0.40360000  0.12700000  0.58380000  1
  O  O23  1  0.12700000  0.40360000  0.08380000  1
  O  O24  1  0.59640000  0.87300000  0.41620000  1
  O  O25  1  0.87300000  0.59640000  0.91620000  1
  O  O26  1  0.39420000  0.04880000  0.88300000  1
  O  O27  1  0.04880000  0.39420000  0.38300000  1
  O  O28  1  0.21230000  0.20490000  0.49210000  1
  O  O29  1  0.20490000  0.21230000  0.99210000  1
  O  O30  1  0.35450000  0.01170000  0.09610000  1
  O  O31  1  0.01170000  0.35450000  0.59610000  1
  O  O32  1  0.33280000  0.02320000  0.42190000  1
  O  O33  1  0.02320000  0.33280000  0.92190000  1
  O  O34  1  0.42230000  0.92590000  0.24620000  1
  O  O35  1  0.92590000  0.42230000  0.74620000  1
  O  O36  1  0.34650000  0.72930000  0.11360000  1
  O  O37  1  0.72930000  0.34650000  0.61360000  1
  O  O38  1  0.14220000  0.92460000  0.55210000  1
  O  O39  1  0.92460000  0.14220000  0.05210000  1
  P  P40  1  0.56780000  0.09740000  0.85740000  1
  P  P41  1  0.09740000  0.56780000  0.35740000  1
  P  P42  1  0.72820000  0.93280000  0.48700000  1
  P  P43  1  0.93280000  0.72820000  0.98700000  1
  P  P44  1  0.27180000  0.06720000  0.51300000  1
  P  P45  1  0.06720000  0.27180000  0.01300000  1
  P  P46  1  0.43220000  0.90260000  0.14260000  1
  P  P47  1  0.90260000  0.43220000  0.64260000  1
