# generated using pymatgen
data_CdH24(C5N2)6
_symmetry_space_group_name_H-M   'P 1'
_cell_length_a   17.54200000
_cell_length_b   17.54200000
_cell_length_c   17.54200000
_cell_angle_alpha   90.00000000
_cell_angle_beta   90.00000000
_cell_angle_gamma   90.00000000
_symmetry_Int_Tables_number   1
_chemical_formula_structural   CdH24(C5N2)6
_chemical_formula_sum   'Cd4 H96 C120 N48'
_cell_volume   5398.05518409
_cell_formula_units_Z   4
loop_
 _symmetry_equiv_pos_site_id
 _symmetry_equiv_pos_as_xyz
  1  'x, y, z'
loop_
 _atom_site_type_symbol
 _atom_site_label
 _atom_site_symmetry_multiplicity
 _atom_site_fract_x
 _atom_site_fract_y
 _atom_site_fract_z
 _atom_site_occupancy
  Cd  Cd0  1  0.00000000  0.00000000  0.00000000  1
  Cd  Cd1  1  0.00000000  0.50000000  0.50000000  1
  Cd  Cd2  1  0.50000000  0.00000000  0.50000000  1
  Cd  Cd3  1  0.50000000  0.50000000  0.00000000  1
  H  H4  1  0.02800000  0.67060000  0.25560000  1
  H  H5  1  0.02800000  0.82940000  0.75560000  1
  H  H6  1  0.02950000  0.06140000  0.18500000  1
  H  H7  1  0.02950000  0.43860000  0.68500000  1
  H  H8  1  0.04900000  0.62860000  0.64030000  1
  H  H9  1  0.04900000  0.87140000  0.14030000  1
  H  H10  1  0.06140000  0.18500000  0.02950000  1
  H  H11  1  0.06140000  0.31500000  0.52950000  1
  H  H12  1  0.08580000  0.72010000  0.73260000  1
  H  H13  1  0.08580000  0.77990000  0.23260000  1
  H  H14  1  0.12860000  0.64030000  0.45100000  1
  H  H15  1  0.12860000  0.85970000  0.95100000  1
  H  H16  1  0.14030000  0.04900000  0.87140000  1
  H  H17  1  0.14030000  0.45100000  0.37140000  1
  H  H18  1  0.17060000  0.24440000  0.97200000  1
  H  H19  1  0.17060000  0.25560000  0.47200000  1
  H  H20  1  0.18500000  0.02950000  0.06140000  1
  H  H21  1  0.18500000  0.47050000  0.56140000  1
  H  H22  1  0.22010000  0.73260000  0.41420000  1
  H  H23  1  0.22010000  0.76740000  0.91420000  1
  H  H24  1  0.23260000  0.08580000  0.77990000  1
  H  H25  1  0.23260000  0.41420000  0.27990000  1
  H  H26  1  0.24440000  0.52800000  0.67060000  1
  H  H27  1  0.24440000  0.97200000  0.17060000  1
  H  H28  1  0.25560000  0.02800000  0.67060000  1
  H  H29  1  0.25560000  0.47200000  0.17060000  1
  H  H30  1  0.26740000  0.58580000  0.77990000  1
  H  H31  1  0.26740000  0.91420000  0.27990000  1
  H  H32  1  0.27990000  0.23260000  0.41420000  1
  H  H33  1  0.27990000  0.26740000  0.91420000  1
  H  H34  1  0.31500000  0.52950000  0.06140000  1
  H  H35  1  0.31500000  0.97050000  0.56140000  1
  H  H36  1  0.32940000  0.74440000  0.97200000  1
  H  H37  1  0.32940000  0.75560000  0.47200000  1
  H  H38  1  0.35970000  0.54900000  0.87140000  1
  H  H39  1  0.35970000  0.95100000  0.37140000  1
  H  H40  1  0.37140000  0.14030000  0.45100000  1
  H  H41  1  0.37140000  0.35970000  0.95100000  1
  H  H42  1  0.41420000  0.22010000  0.73260000  1
  H  H43  1  0.41420000  0.27990000  0.23260000  1
  H  H44  1  0.43860000  0.68500000  0.02950000  1
  H  H45  1  0.43860000  0.81500000  0.52950000  1
  H  H46  1  0.45100000  0.12860000  0.64030000  1
  H  H47  1  0.45100000  0.37140000  0.14030000  1
  H  H48  1  0.47050000  0.56140000  0.18500000  1
  H  H49  1  0.47050000  0.93860000  0.68500000  1
  H  H50  1  0.47200000  0.17060000  0.25560000  1
  H  H51  1  0.47200000  0.32940000  0.75560000  1
  H  H52  1  0.52800000  0.67060000  0.24440000  1
  H  H53  1  0.52800000  0.82940000  0.74440000  1
  H  H54  1  0.52950000  0.06140000  0.31500000  1
  H  H55  1  0.52950000  0.43860000  0.81500000  1
  H  H56  1  0.54900000  0.62860000  0.85970000  1
  H  H57  1  0.54900000  0.87140000  0.35970000  1
  H  H58  1  0.56140000  0.18500000  0.47050000  1
  H  H59  1  0.56140000  0.31500000  0.97050000  1
  H  H60  1  0.58580000  0.72010000  0.76740000  1
  H  H61  1  0.58580000  0.77990000  0.26740000  1
  H  H62  1  0.62860000  0.64030000  0.04900000  1
  H  H63  1  0.62860000  0.85970000  0.54900000  1
  H  H64  1  0.64030000  0.04900000  0.62860000  1
  H  H65  1  0.64030000  0.45100000  0.12860000  1
  H  H66  1  0.67060000  0.24440000  0.52800000  1
  H  H67  1  0.67060000  0.25560000  0.02800000  1
  H  H68  1  0.68500000  0.02950000  0.43860000  1
  H  H69  1  0.68500000  0.47050000  0.93860000  1
  H  H70  1  0.72010000  0.73260000  0.08580000  1
  H  H71  1  0.72010000  0.76740000  0.58580000  1
  H  H72  1  0.73260000  0.08580000  0.72010000  1
  H  H73  1  0.73260000  0.41420000  0.22010000  1
  H  H74  1  0.74440000  0.52800000  0.82940000  1
  H  H75  1  0.74440000  0.97200000  0.32940000  1
  H  H76  1  0.75560000  0.02800000  0.82940000  1
  H  H77  1  0.75560000  0.47200000  0.32940000  1
  H  H78  1  0.76740000  0.58580000  0.72010000  1
  H  H79  1  0.76740000  0.91420000  0.22010000  1
  H  H80  1  0.77990000  0.23260000  0.08580000  1
  H  H81  1  0.77990000  0.26740000  0.58580000  1
  H  H82  1  0.81500000  0.52950000  0.43860000  1
  H  H83  1  0.81500000  0.97050000  0.93860000  1
  H  H84  1  0.82940000  0.74440000  0.52800000  1
  H  H85  1  0.82940000  0.75560000  0.02800000  1
  H  H86  1  0.85970000  0.54900000  0.62860000  1
  H  H87  1  0.85970000  0.95100000  0.12860000  1
  H  H88  1  0.87140000  0.14030000  0.04900000  1
  H  H89  1  0.87140000  0.35970000  0.54900000  1
  H  H90  1  0.91420000  0.22010000  0.76740000  1
  H  H91  1  0.91420000  0.27990000  0.26740000  1
  H  H92  1  0.93860000  0.68500000  0.47050000  1
  H  H93  1  0.93860000  0.81500000  0.97050000  1
  H  H94  1  0.95100000  0.12860000  0.85970000  1
  H  H95  1  0.95100000  0.37140000  0.35970000  1
  H  H96  1  0.97050000  0.56140000  0.31500000  1
  H  H97  1  0.97050000  0.93860000  0.81500000  1
  H  H98  1  0.97200000  0.17060000  0.24440000  1
  H  H99  1  0.97200000  0.32940000  0.74440000  1
  C  C100  1  0.01050000  0.59150000  0.33560000  1
  C  C101  1  0.01050000  0.90850000  0.83560000  1
  C  C102  1  0.09150000  0.16440000  0.98950000  1
  C  C103  1  0.09150000  0.33560000  0.48950000  1
  C  C104  1  0.09190000  0.59610000  0.63450000  1
  C  C105  1  0.09190000  0.90390000  0.13450000  1
  C  C106  1  0.09610000  0.63450000  0.40810000  1
  C  C107  1  0.09610000  0.86550000  0.90810000  1
  C  C108  1  0.09790000  0.68010000  0.34580000  1
  C  C109  1  0.09790000  0.81990000  0.84580000  1
  C  C110  1  0.12810000  0.70780000  0.76410000  1
  C  C111  1  0.12810000  0.79220000  0.26410000  1
  C  C112  1  0.13450000  0.09190000  0.90390000  1
  C  C113  1  0.13450000  0.40810000  0.40390000  1
  C  C114  1  0.14470000  0.74670000  0.32720000  1
  C  C115  1  0.14470000  0.75330000  0.82720000  1
  C  C116  1  0.15420000  0.59790000  0.68010000  1
  C  C117  1  0.15420000  0.90210000  0.18010000  1
  C  C118  1  0.16440000  0.51050000  0.59150000  1
  C  C119  1  0.16440000  0.98950000  0.09150000  1
  C  C120  1  0.17280000  0.64470000  0.74670000  1
  C  C121  1  0.17280000  0.85530000  0.24670000  1
  C  C122  1  0.18010000  0.15420000  0.90210000  1
  C  C123  1  0.18010000  0.34580000  0.40210000  1
  C  C124  1  0.20780000  0.73590000  0.87190000  1
  C  C125  1  0.20780000  0.76410000  0.37190000  1
  C  C126  1  0.23590000  0.62810000  0.79220000  1
  C  C127  1  0.23590000  0.87190000  0.29220000  1
  C  C128  1  0.24670000  0.17280000  0.85530000  1
  C  C129  1  0.24670000  0.32720000  0.35530000  1
  C  C130  1  0.25330000  0.67280000  0.85530000  1
  C  C131  1  0.25330000  0.82720000  0.35530000  1
  C  C132  1  0.26410000  0.12810000  0.79220000  1
  C  C133  1  0.26410000  0.37190000  0.29220000  1
  C  C134  1  0.29220000  0.23590000  0.87190000  1
  C  C135  1  0.29220000  0.26410000  0.37190000  1
  C  C136  1  0.31990000  0.65420000  0.90210000  1
  C  C137  1  0.31990000  0.84580000  0.40210000  1
  C  C138  1  0.32720000  0.14470000  0.74670000  1
  C  C139  1  0.32720000  0.35530000  0.24670000  1
  C  C140  1  0.33560000  0.01050000  0.59150000  1
  C  C141  1  0.33560000  0.48950000  0.09150000  1
  C  C142  1  0.34580000  0.09790000  0.68010000  1
  C  C143  1  0.34580000  0.40210000  0.18010000  1
  C  C144  1  0.35530000  0.24670000  0.32720000  1
  C  C145  1  0.35530000  0.25330000  0.82720000  1
  C  C146  1  0.36550000  0.59190000  0.90390000  1
  C  C147  1  0.36550000  0.90810000  0.40390000  1
  C  C148  1  0.37190000  0.20780000  0.76410000  1
  C  C149  1  0.37190000  0.29220000  0.26410000  1
  C  C150  1  0.40210000  0.18010000  0.34580000  1
  C  C151  1  0.40210000  0.31990000  0.84580000  1
  C  C152  1  0.40390000  0.13450000  0.40810000  1
  C  C153  1  0.40390000  0.36550000  0.90810000  1
  C  C154  1  0.40810000  0.09610000  0.63450000  1
  C  C155  1  0.40810000  0.40390000  0.13450000  1
  C  C156  1  0.40850000  0.66440000  0.98950000  1
  C  C157  1  0.40850000  0.83560000  0.48950000  1
  C  C158  1  0.48950000  0.09150000  0.33560000  1
  C  C159  1  0.48950000  0.40850000  0.83560000  1
  C  C160  1  0.51050000  0.59150000  0.16440000  1
  C  C161  1  0.51050000  0.90850000  0.66440000  1
  C  C162  1  0.59150000  0.16440000  0.51050000  1
  C  C163  1  0.59150000  0.33560000  0.01050000  1
  C  C164  1  0.59190000  0.59610000  0.86550000  1
  C  C165  1  0.59190000  0.90390000  0.36550000  1
  C  C166  1  0.59610000  0.63450000  0.09190000  1
  C  C167  1  0.59610000  0.86550000  0.59190000  1
  C  C168  1  0.59790000  0.68010000  0.15420000  1
  C  C169  1  0.59790000  0.81990000  0.65420000  1
  C  C170  1  0.62810000  0.70780000  0.73590000  1
  C  C171  1  0.62810000  0.79220000  0.23590000  1
  C  C172  1  0.63450000  0.09190000  0.59610000  1
  C  C173  1  0.63450000  0.40810000  0.09610000  1
  C  C174  1  0.64470000  0.74670000  0.17280000  1
  C  C175  1  0.64470000  0.75330000  0.67280000  1
  C  C176  1  0.65420000  0.59790000  0.81990000  1
  C  C177  1  0.65420000  0.90210000  0.31990000  1
  C  C178  1  0.66440000  0.51050000  0.90850000  1
  C  C179  1  0.66440000  0.98950000  0.40850000  1
  C  C180  1  0.67280000  0.64470000  0.75330000  1
  C  C181  1  0.67280000  0.85530000  0.25330000  1
  C  C182  1  0.68010000  0.15420000  0.59790000  1
  C  C183  1  0.68010000  0.34580000  0.09790000  1
  C  C184  1  0.70780000  0.73590000  0.62810000  1
  C  C185  1  0.70780000  0.76410000  0.12810000  1
  C  C186  1  0.73590000  0.62810000  0.70780000  1
  C  C187  1  0.73590000  0.87190000  0.20780000  1
  C  C188  1  0.74670000  0.17280000  0.64470000  1
  C  C189  1  0.74670000  0.32720000  0.14470000  1
  C  C190  1  0.75330000  0.67280000  0.64470000  1
  C  C191  1  0.75330000  0.82720000  0.14470000  1
  C  C192  1  0.76410000  0.12810000  0.70780000  1
  C  C193  1  0.76410000  0.37190000  0.20780000  1
  C  C194  1  0.79220000  0.23590000  0.62810000  1
  C  C195  1  0.79220000  0.26410000  0.12810000  1
  C  C196  1  0.81990000  0.65420000  0.59790000  1
  C  C197  1  0.81990000  0.84580000  0.09790000  1
  C  C198  1  0.82720000  0.14470000  0.75330000  1
  C  C199  1  0.82720000  0.35530000  0.25330000  1
  C  C200  1  0.83560000  0.01050000  0.90850000  1
  C  C201  1  0.83560000  0.48950000  0.40850000  1
  C  C202  1  0.84580000  0.09790000  0.81990000  1
  C  C203  1  0.84580000  0.40210000  0.31990000  1
  C  C204  1  0.85530000  0.24670000  0.17280000  1
  C  C205  1  0.85530000  0.25330000  0.67280000  1
  C  C206  1  0.86550000  0.59190000  0.59610000  1
  C  C207  1  0.86550000  0.90810000  0.09610000  1
  C  C208  1  0.87190000  0.20780000  0.73590000  1
  C  C209  1  0.87190000  0.29220000  0.23590000  1
  C  C210  1  0.90210000  0.18010000  0.15420000  1
  C  C211  1  0.90210000  0.31990000  0.65420000  1
  C  C212  1  0.90390000  0.13450000  0.09190000  1
  C  C213  1  0.90390000  0.36550000  0.59190000  1
  C  C214  1  0.90810000  0.09610000  0.86550000  1
  C  C215  1  0.90810000  0.40390000  0.36550000  1
  C  C216  1  0.90850000  0.66440000  0.51050000  1
  C  C217  1  0.90850000  0.83560000  0.01050000  1
  C  C218  1  0.98950000  0.09150000  0.16440000  1
  C  C219  1  0.98950000  0.40850000  0.66440000  1
  N  N220  1  0.04160000  0.65220000  0.30030000  1
  N  N221  1  0.04160000  0.84780000  0.80030000  1
  N  N222  1  0.04200000  0.57940000  0.40160000  1
  N  N223  1  0.04200000  0.92060000  0.90160000  1
  N  N224  1  0.07940000  0.09840000  0.95800000  1
  N  N225  1  0.07940000  0.40160000  0.45800000  1
  N  N226  1  0.09840000  0.54200000  0.57940000  1
  N  N227  1  0.09840000  0.95800000  0.07940000  1
  N  N228  1  0.15220000  0.19970000  0.95840000  1
  N  N229  1  0.15220000  0.30030000  0.45840000  1
  N  N230  1  0.19970000  0.54160000  0.65220000  1
  N  N231  1  0.19970000  0.95840000  0.15220000  1
  N  N232  1  0.30030000  0.04160000  0.65220000  1
  N  N233  1  0.30030000  0.45840000  0.15220000  1
  N  N234  1  0.34780000  0.69970000  0.95840000  1
  N  N235  1  0.34780000  0.80030000  0.45840000  1
  N  N236  1  0.40160000  0.04200000  0.57940000  1
  N  N237  1  0.40160000  0.45800000  0.07940000  1
  N  N238  1  0.42060000  0.59840000  0.95800000  1
  N  N239  1  0.42060000  0.90160000  0.45800000  1
  N  N240  1  0.45800000  0.07940000  0.40160000  1
  N  N241  1  0.45800000  0.42060000  0.90160000  1
  N  N242  1  0.45840000  0.15220000  0.30030000  1
  N  N243  1  0.45840000  0.34780000  0.80030000  1
  N  N244  1  0.54160000  0.65220000  0.19970000  1
  N  N245  1  0.54160000  0.84780000  0.69970000  1
  N  N246  1  0.54200000  0.57940000  0.09840000  1
  N  N247  1  0.54200000  0.92060000  0.59840000  1
  N  N248  1  0.57940000  0.09840000  0.54200000  1
  N  N249  1  0.57940000  0.40160000  0.04200000  1
  N  N250  1  0.59840000  0.54200000  0.92060000  1
  N  N251  1  0.59840000  0.95800000  0.42060000  1
  N  N252  1  0.65220000  0.19970000  0.54160000  1
  N  N253  1  0.65220000  0.30030000  0.04160000  1
  N  N254  1  0.69970000  0.54160000  0.84780000  1
  N  N255  1  0.69970000  0.95840000  0.34780000  1
  N  N256  1  0.80030000  0.04160000  0.84780000  1
  N  N257  1  0.80030000  0.45840000  0.34780000  1
  N  N258  1  0.84780000  0.69970000  0.54160000  1
  N  N259  1  0.84780000  0.80030000  0.04160000  1
  N  N260  1  0.90160000  0.04200000  0.92060000  1
  N  N261  1  0.90160000  0.45800000  0.42060000  1
  N  N262  1  0.92060000  0.59840000  0.54200000  1
  N  N263  1  0.92060000  0.90160000  0.04200000  1
  N  N264  1  0.95800000  0.07940000  0.09840000  1
  N  N265  1  0.95800000  0.42060000  0.59840000  1
  N  N266  1  0.95840000  0.15220000  0.19970000  1
  N  N267  1  0.95840000  0.34780000  0.69970000  1
