# generated using pymatgen
data_TbC22(Cl2O)6
_symmetry_space_group_name_H-M   'P 1'
_cell_length_a   27.92000000
_cell_length_b   27.92000000
_cell_length_c   30.66925978
_cell_angle_alpha   62.92364700
_cell_angle_beta   62.92356383
_cell_angle_gamma   90.00010000
_symmetry_Int_Tables_number   1
_chemical_formula_structural   TbC22(Cl2O)6
_chemical_formula_sum   'Tb8 C176 Cl96 O48'
_cell_volume   18295.48586123
_cell_formula_units_Z   8
loop_
 _symmetry_equiv_pos_site_id
 _symmetry_equiv_pos_as_xyz
  1  'x, y, z'
loop_
 _atom_site_type_symbol
 _atom_site_label
 _atom_site_symmetry_multiplicity
 _atom_site_fract_x
 _atom_site_fract_y
 _atom_site_fract_z
 _atom_site_occupancy
  Tb  Tb0  1  0.94485000  0.08431000  0.00975000  1
  Tb  Tb1  1  0.91569000  0.45460000  0.49026000  1
  Tb  Tb2  1  0.90595000  0.94486000  0.50974000  1
  Tb  Tb3  1  0.54541000  0.90595000  0.00973000  1
  Tb  Tb4  1  0.45459000  0.09405000  0.99027000  1
  Tb  Tb5  1  0.09405000  0.05514000  0.49026000  1
  Tb  Tb6  1  0.08431000  0.54540000  0.50974000  1
  Tb  Tb7  1  0.05515000  0.91569000  0.99025000  1
  C  C8  1  0.99240000  0.07140000  0.16560000  1
  C  C9  1  0.98790000  0.88580000  0.88940000  1
  C  C10  1  0.98226000  0.91996000  0.15988000  1
  C  C11  1  0.97760000  0.12330000  0.08240000  1
  C  C12  1  0.97665000  0.93765000  0.80750000  1
  C  C13  1  0.97370000  0.88370000  0.21320000  1
  C  C14  1  0.96480000  0.95840000  0.58340000  1
  C  C15  1  0.95840000  0.95180000  0.08340000  1
  C  C16  1  0.95418000  0.90088000  0.68024000  1
  C  C17  1  0.95180000  0.45820000  0.58340000  1
  C  C18  1  0.94702000  0.91102000  0.14256000  1
  C  C19  1  0.94642000  0.94702000  0.64256000  1
  C  C20  1  0.94464000  0.84314000  0.39932000  1
  C  C21  1  0.94415000  0.81575000  0.37110000  1
  C  C22  1  0.93765000  0.71585000  0.30750000  1
  C  C23  1  0.93683000  0.89053000  0.73414000  1
  C  C24  1  0.93536000  0.85046000  0.91788000  1
  C  C25  1  0.92860000  0.65800000  0.33440000  1
  C  C26  1  0.92634000  0.83744000  0.25312000  1
  C  C27  1  0.92336000  0.90366000  0.83688000  1
  C  C28  1  0.92016000  0.98226000  0.65988000  1
  C  C29  1  0.91996000  0.35786000  0.65988000  1
  C  C30  1  0.91384000  0.88034000  0.40332000  1
  C  C31  1  0.91373000  0.80123000  0.31114000  1
  C  C32  1  0.91339000  0.82679000  0.34382000  1
  C  C33  1  0.91180000  0.90620000  0.43780000  1
  C  C34  1  0.91102000  0.41042000  0.64256000  1
  C  C35  1  0.90944000  0.92634000  0.75312000  1
  C  C36  1  0.90620000  0.15040000  0.93780000  1
  C  C37  1  0.90400000  0.85890000  0.89320000  1
  C  C38  1  0.90366000  0.73976000  0.33688000  1
  C  C39  1  0.90310000  0.97370000  0.71320000  1
  C  C40  1  0.90088000  0.86558000  0.18024000  1
  C  C41  1  0.89137000  0.24017000  0.87706000  1
  C  C42  1  0.89053000  0.82903000  0.23414000  1
  C  C43  1  0.88763000  0.91373000  0.81114000  1
  C  C44  1  0.88580000  0.62270000  0.38940000  1
  C  C45  1  0.88370000  0.31310000  0.71320000  1
  C  C46  1  0.88277000  0.89137000  0.37706000  1
  C  C47  1  0.88235000  0.86645000  0.34810000  1
  C  C48  1  0.88034000  0.18284000  0.90332000  1
  C  C49  1  0.87670000  0.56000000  0.41760000  1
  C  C50  1  0.86645000  0.26955000  0.84810000  1
  C  C51  1  0.86558000  0.41888000  0.68024000  1
  C  C52  1  0.85890000  0.70280000  0.39320000  1
  C  C53  1  0.85046000  0.64676000  0.41788000  1
  C  C54  1  0.84960000  0.34400000  0.56220000  1
  C  C55  1  0.84396000  0.24246000  0.60068000  1
  C  C56  1  0.84314000  0.15604000  0.89932000  1
  C  C57  1  0.83744000  0.32054000  0.75312000  1
  C  C58  1  0.82939000  0.91339000  0.84382000  1
  C  C59  1  0.82903000  0.37533000  0.73414000  1
  C  C60  1  0.82679000  0.24279000  0.84382000  1
  C  C61  1  0.81716000  0.28366000  0.59668000  1
  C  C62  1  0.81575000  0.18475000  0.87110000  1
  C  C63  1  0.81525000  0.18685000  0.62890000  1
  C  C64  1  0.81315000  0.94415000  0.87110000  1
  C  C65  1  0.80123000  0.27513000  0.81114000  1
  C  C66  1  0.79430000  0.97760000  0.58240000  1
  C  C67  1  0.78545000  0.88235000  0.84810000  1
  C  C68  1  0.77520000  0.01210000  0.61060000  1
  C  C69  1  0.76834000  0.06464000  0.58212000  1
  C  C70  1  0.76300000  0.99240000  0.66560000  1
  C  C71  1  0.75983000  0.26843000  0.62294000  1
  C  C72  1  0.75754000  0.94464000  0.89932000  1
  C  C73  1  0.75721000  0.17061000  0.65618000  1
  C  C74  1  0.75210000  0.09600000  0.60680000  1
  C  C75  1  0.74515000  0.02335000  0.69250000  1
  C  C76  1  0.74054000  0.07664000  0.66312000  1
  C  C77  1  0.73976000  0.25946000  0.83688000  1
  C  C78  1  0.73157000  0.88277000  0.87706000  1
  C  C79  1  0.73045000  0.21455000  0.65190000  1
  C  C80  1  0.72487000  0.11237000  0.68886000  1
  C  C81  1  0.71634000  0.91384000  0.90332000  1
  C  C82  1  0.71585000  0.25485000  0.80750000  1
  C  C83  1  0.70280000  0.24790000  0.89320000  1
  C  C84  1  0.68690000  0.09690000  0.78680000  1
  C  C85  1  0.67946000  0.09056000  0.74688000  1
  C  C86  1  0.65800000  0.23700000  0.83440000  1
  C  C87  1  0.65600000  0.91180000  0.93780000  1
  C  C88  1  0.64676000  0.23166000  0.91788000  1
  C  C89  1  0.64214000  0.07984000  0.84012000  1
  C  C90  1  0.62467000  0.06317000  0.76586000  1
  C  C91  1  0.62270000  0.22480000  0.88940000  1
  C  C92  1  0.58958000  0.05358000  0.85744000  1
  C  C93  1  0.58112000  0.04582000  0.81976000  1
  C  C94  1  0.56000000  0.20570000  0.91760000  1
  C  C95  1  0.54180000  0.03520000  0.91660000  1
  C  C96  1  0.45820000  0.96480000  0.08340000  1
  C  C97  1  0.44000000  0.79430000  0.08240000  1
  C  C98  1  0.41888000  0.95418000  0.18024000  1
  C  C99  1  0.41042000  0.94642000  0.14256000  1
  C  C100  1  0.37730000  0.77520000  0.11060000  1
  C  C101  1  0.37533000  0.93683000  0.23414000  1
  C  C102  1  0.35786000  0.92016000  0.15988000  1
  C  C103  1  0.35324000  0.76834000  0.08212000  1
  C  C104  1  0.34400000  0.08820000  0.06220000  1
  C  C105  1  0.34200000  0.76300000  0.16560000  1
  C  C106  1  0.32054000  0.90944000  0.25312000  1
  C  C107  1  0.31310000  0.90310000  0.21320000  1
  C  C108  1  0.29720000  0.75210000  0.10680000  1
  C  C109  1  0.28415000  0.74515000  0.19250000  1
  C  C110  1  0.28366000  0.08616000  0.09668000  1
  C  C111  1  0.27513000  0.88763000  0.31114000  1
  C  C112  1  0.26955000  0.78545000  0.34810000  1
  C  C113  1  0.26843000  0.11723000  0.12294000  1
  C  C114  1  0.26024000  0.74054000  0.16312000  1
  C  C115  1  0.25946000  0.92336000  0.33688000  1
  C  C116  1  0.25485000  0.97665000  0.30750000  1
  C  C117  1  0.24790000  0.90400000  0.39320000  1
  C  C118  1  0.24279000  0.82939000  0.34382000  1
  C  C119  1  0.24246000  0.05536000  0.10068000  1
  C  C120  1  0.24017000  0.73157000  0.37706000  1
  C  C121  1  0.23700000  0.00760000  0.33440000  1
  C  C122  1  0.23166000  0.93536000  0.41788000  1
  C  C123  1  0.22480000  0.98790000  0.38940000  1
  C  C124  1  0.21455000  0.11765000  0.15190000  1
  C  C125  1  0.20570000  0.02240000  0.41760000  1
  C  C126  1  0.19877000  0.72487000  0.18886000  1
  C  C127  1  0.18685000  0.05585000  0.12890000  1
  C  C128  1  0.18475000  0.81315000  0.37110000  1
  C  C129  1  0.18425000  0.81525000  0.12890000  1
  C  C130  1  0.18284000  0.71634000  0.40332000  1
  C  C131  1  0.17321000  0.75721000  0.15618000  1
  C  C132  1  0.17097000  0.62467000  0.26586000  1
  C  C133  1  0.17061000  0.08661000  0.15618000  1
  C  C134  1  0.16256000  0.67946000  0.24688000  1
  C  C135  1  0.15686000  0.84396000  0.10068000  1
  C  C136  1  0.15604000  0.75754000  0.39932000  1
  C  C137  1  0.15040000  0.65600000  0.43780000  1
  C  C138  1  0.14954000  0.35324000  0.58212000  1
  C  C139  1  0.14110000  0.29720000  0.60680000  1
  C  C140  1  0.13442000  0.58112000  0.31976000  1
  C  C141  1  0.13355000  0.73045000  0.15190000  1
  C  C142  1  0.12330000  0.44000000  0.58240000  1
  C  C143  1  0.11966000  0.81716000  0.09668000  1
  C  C144  1  0.11765000  0.13355000  0.65190000  1
  C  C145  1  0.11723000  0.10863000  0.62294000  1
  C  C146  1  0.11630000  0.68690000  0.28680000  1
  C  C147  1  0.11420000  0.37730000  0.61060000  1
  C  C148  1  0.11237000  0.08627000  0.18886000  1
  C  C149  1  0.10947000  0.17097000  0.76586000  1
  C  C150  1  0.10863000  0.75983000  0.12294000  1
  C  C151  1  0.09912000  0.13442000  0.81976000  1
  C  C152  1  0.09690000  0.02630000  0.28680000  1
  C  C153  1  0.09634000  0.26024000  0.66312000  1
  C  C154  1  0.09600000  0.14110000  0.10680000  1
  C  C155  1  0.09380000  0.84960000  0.06220000  1
  C  C156  1  0.09056000  0.07366000  0.24688000  1
  C  C157  1  0.08898000  0.58958000  0.35744000  1
  C  C158  1  0.08820000  0.09380000  0.56220000  1
  C  C159  1  0.08661000  0.17321000  0.65618000  1
  C  C160  1  0.08627000  0.19877000  0.68886000  1
  C  C161  1  0.08616000  0.11966000  0.59668000  1
  C  C162  1  0.08004000  0.64214000  0.34012000  1
  C  C163  1  0.07984000  0.01774000  0.34012000  1
  C  C164  1  0.07664000  0.09634000  0.16312000  1
  C  C165  1  0.07366000  0.16256000  0.74688000  1
  C  C166  1  0.07140000  0.34200000  0.66560000  1
  C  C167  1  0.06464000  0.14954000  0.08212000  1
  C  C168  1  0.06317000  0.10947000  0.26586000  1
  C  C169  1  0.06235000  0.28415000  0.69250000  1
  C  C170  1  0.05585000  0.18425000  0.62890000  1
  C  C171  1  0.05536000  0.15686000  0.60068000  1
  C  C172  1  0.05358000  0.05298000  0.35744000  1
  C  C173  1  0.05298000  0.08898000  0.85744000  1
  C  C174  1  0.04820000  0.54180000  0.41660000  1
  C  C175  1  0.04582000  0.09912000  0.31976000  1
  C  C176  1  0.04160000  0.04820000  0.91660000  1
  C  C177  1  0.03520000  0.04160000  0.41660000  1
  C  C178  1  0.02630000  0.11630000  0.78680000  1
  C  C179  1  0.02335000  0.06235000  0.19250000  1
  C  C180  1  0.02240000  0.87670000  0.91760000  1
  C  C181  1  0.01774000  0.08004000  0.84012000  1
  C  C182  1  0.01210000  0.11420000  0.11060000  1
  C  C183  1  0.00760000  0.92860000  0.83440000  1
  Cl  Cl184  1  0.99695000  0.00592000  0.25960000  1
  Cl  Cl185  1  0.99408000  0.75655000  0.24040000  1
  Cl  Cl186  1  0.98617000  0.82881000  0.42994000  1
  Cl  Cl187  1  0.98586000  0.77054000  0.36576000  1
  Cl  Cl188  1  0.98585000  0.85714000  0.65792000  1
  Cl  Cl189  1  0.97814000  0.10789000  0.76932000  1
  Cl  Cl190  1  0.97797000  0.34733000  0.61378000  1
  Cl  Cl191  1  0.97355000  0.62921000  0.29784000  1
  Cl  Cl192  1  0.96111000  0.02203000  0.88622000  1
  Cl  Cl193  1  0.94442000  0.83109000  0.78072000  1
  Cl  Cl194  1  0.93882000  0.27466000  0.88246000  1
  Cl  Cl195  1  0.92705000  0.02645000  0.20216000  1
  Cl  Cl196  1  0.91611000  0.25875000  0.57006000  1
  Cl  Cl197  1  0.91105000  0.79505000  0.98608000  1
  Cl  Cl198  1  0.90825000  0.03889000  0.61378000  1
  Cl  Cl199  1  0.89211000  0.24746000  0.73068000  1
  Cl  Cl200  1  0.87949000  0.34116000  0.82038000  1
  Cl  Cl201  1  0.87721000  0.02186000  0.73068000  1
  Cl  Cl202  1  0.86370000  0.98586000  0.86576000  1
  Cl  Cl203  1  0.85714000  0.85623000  0.15792000  1
  Cl  Cl204  1  0.85623000  0.48494000  0.65792000  1
  Cl  Cl205  1  0.85162000  0.13630000  0.63424000  1
  Cl  Cl206  1  0.84288000  0.93882000  0.38246000  1
  Cl  Cl207  1  0.84032000  0.81109000  0.93014000  1
  Cl  Cl208  1  0.83846000  0.87949000  0.32038000  1
  Cl  Cl209  1  0.83109000  0.77486000  0.28072000  1
  Cl  Cl210  1  0.82881000  0.08389000  0.92994000  1
  Cl  Cl211  1  0.81109000  0.72954000  0.43014000  1
  Cl  Cl212  1  0.80013000  0.83846000  0.82038000  1
  Cl  Cl213  1  0.79505000  0.60287000  0.48608000  1
  Cl  Cl214  1  0.78113000  0.08895000  0.51392000  1
  Cl  Cl215  1  0.77486000  0.38819000  0.78072000  1
  Cl  Cl216  1  0.77139000  0.92705000  0.70216000  1
  Cl  Cl217  1  0.77054000  0.14838000  0.86576000  1
  Cl  Cl218  1  0.75655000  0.26552000  0.74040000  1
  Cl  Cl219  1  0.75254000  0.12279000  0.76932000  1
  Cl  Cl220  1  0.74125000  0.98617000  0.92994000  1
  Cl  Cl221  1  0.74123000  0.15968000  0.56986000  1
  Cl  Cl222  1  0.73448000  0.99695000  0.75960000  1
  Cl  Cl223  1  0.72954000  0.25877000  0.93014000  1
  Cl  Cl224  1  0.72534000  0.32128000  0.61754000  1
  Cl  Cl225  1  0.67872000  0.84288000  0.88246000  1
  Cl  Cl226  1  0.65884000  0.19987000  0.67962000  1
  Cl  Cl227  1  0.65267000  0.09175000  0.88622000  1
  Cl  Cl228  1  0.62921000  0.22861000  0.79784000  1
  Cl  Cl229  1  0.61181000  0.05558000  0.71928000  1
  Cl  Cl230  1  0.60287000  0.21887000  0.98608000  1
  Cl  Cl231  1  0.51506000  0.01415000  0.84208000  1
  Cl  Cl232  1  0.48494000  0.98585000  0.15792000  1
  Cl  Cl233  1  0.39713000  0.78113000  0.01392000  1
  Cl  Cl234  1  0.38819000  0.94442000  0.28072000  1
  Cl  Cl235  1  0.37079000  0.77139000  0.20216000  1
  Cl  Cl236  1  0.34733000  0.90825000  0.11378000  1
  Cl  Cl237  1  0.34116000  0.80013000  0.32038000  1
  Cl  Cl238  1  0.32128000  0.15712000  0.11754000  1
  Cl  Cl239  1  0.27466000  0.67872000  0.38246000  1
  Cl  Cl240  1  0.27046000  0.74123000  0.06986000  1
  Cl  Cl241  1  0.26552000  0.00305000  0.24040000  1
  Cl  Cl242  1  0.25877000  0.84032000  0.43014000  1
  Cl  Cl243  1  0.25875000  0.01383000  0.07006000  1
  Cl  Cl244  1  0.24746000  0.87721000  0.23068000  1
  Cl  Cl245  1  0.24345000  0.73448000  0.25960000  1
  Cl  Cl246  1  0.22946000  0.85162000  0.13424000  1
  Cl  Cl247  1  0.22861000  0.07295000  0.29784000  1
  Cl  Cl248  1  0.22514000  0.61181000  0.21928000  1
  Cl  Cl249  1  0.21887000  0.91105000  0.48608000  1
  Cl  Cl250  1  0.20495000  0.39713000  0.51392000  1
  Cl  Cl251  1  0.19987000  0.16154000  0.17962000  1
  Cl  Cl252  1  0.18891000  0.27046000  0.56986000  1
  Cl  Cl253  1  0.17119000  0.91611000  0.07006000  1
  Cl  Cl254  1  0.16891000  0.22514000  0.71928000  1
  Cl  Cl255  1  0.16154000  0.12051000  0.67962000  1
  Cl  Cl256  1  0.15968000  0.18891000  0.06986000  1
  Cl  Cl257  1  0.15712000  0.06118000  0.61754000  1
  Cl  Cl258  1  0.14838000  0.86370000  0.36576000  1
  Cl  Cl259  1  0.14377000  0.51506000  0.34208000  1
  Cl  Cl260  1  0.14286000  0.14377000  0.84208000  1
  Cl  Cl261  1  0.13630000  0.01414000  0.13424000  1
  Cl  Cl262  1  0.12279000  0.97814000  0.26932000  1
  Cl  Cl263  1  0.12051000  0.65884000  0.17962000  1
  Cl  Cl264  1  0.10789000  0.75254000  0.26932000  1
  Cl  Cl265  1  0.09175000  0.96111000  0.38622000  1
  Cl  Cl266  1  0.08895000  0.20495000  0.01392000  1
  Cl  Cl267  1  0.08389000  0.74125000  0.42994000  1
  Cl  Cl268  1  0.07295000  0.97355000  0.79784000  1
  Cl  Cl269  1  0.06118000  0.72534000  0.11754000  1
  Cl  Cl270  1  0.05558000  0.16891000  0.21928000  1
  Cl  Cl271  1  0.03889000  0.97797000  0.11378000  1
  Cl  Cl272  1  0.02645000  0.37079000  0.70216000  1
  Cl  Cl273  1  0.02203000  0.65267000  0.38622000  1
  Cl  Cl274  1  0.02186000  0.89211000  0.23068000  1
  Cl  Cl275  1  0.01415000  0.14286000  0.34208000  1
  Cl  Cl276  1  0.01414000  0.22946000  0.63424000  1
  Cl  Cl277  1  0.01383000  0.17119000  0.57006000  1
  Cl  Cl278  1  0.00592000  0.24345000  0.75960000  1
  Cl  Cl279  1  0.00305000  0.99408000  0.74040000  1
  O  O280  1  0.99434000  0.48194000  0.57672000  1
  O  O281  1  0.98536000  0.01672000  0.45368000  1
  O  O282  1  0.98485000  0.09975000  0.05450000  1
  O  O283  1  0.98328000  0.93904000  0.04632000  1
  O  O284  1  0.95243000  0.94343000  0.41794000  1
  O  O285  1  0.94694000  0.15384000  0.08872000  1
  O  O286  1  0.94343000  0.12963000  0.91794000  1
  O  O287  1  0.94134000  0.99434000  0.07672000  1
  O  O288  1  0.93904000  0.47040000  0.54632000  1
  O  O289  1  0.92894000  0.94134000  0.57672000  1
  O  O290  1  0.90025000  0.53935000  0.44550000  1
  O  O291  1  0.88769000  0.14359000  0.98582000  1
  O  O292  1  0.87059000  0.88769000  0.48582000  1
  O  O293  1  0.87037000  0.36137000  0.58206000  1
  O  O294  1  0.85641000  0.37351000  0.51418000  1
  O  O295  1  0.84616000  0.53566000  0.41128000  1
  O  O296  1  0.84575000  0.98485000  0.55450000  1
  O  O297  1  0.75744000  0.94694000  0.58872000  1
  O  O298  1  0.63863000  0.95243000  0.91794000  1
  O  O299  1  0.62649000  0.87059000  0.98582000  1
  O  O300  1  0.53935000  0.15425000  0.94550000  1
  O  O301  1  0.53566000  0.24256000  0.91128000  1
  O  O302  1  0.52960000  0.98536000  0.95368000  1
  O  O303  1  0.51806000  0.07106000  0.92328000  1
  O  O304  1  0.48194000  0.92894000  0.07672000  1
  O  O305  1  0.47040000  0.01464000  0.04632000  1
  O  O306  1  0.46434000  0.75744000  0.08872000  1
  O  O307  1  0.46065000  0.84575000  0.05450000  1
  O  O308  1  0.37351000  0.12941000  0.01418000  1
  O  O309  1  0.36137000  0.04757000  0.08206000  1
  O  O310  1  0.24256000  0.05306000  0.41128000  1
  O  O311  1  0.15425000  0.01515000  0.44550000  1
  O  O312  1  0.15384000  0.46434000  0.58872000  1
  O  O313  1  0.14359000  0.62649000  0.48582000  1
  O  O314  1  0.12963000  0.63863000  0.41794000  1
  O  O315  1  0.12941000  0.11231000  0.51418000  1
  O  O316  1  0.11231000  0.85641000  0.01418000  1
  O  O317  1  0.09975000  0.46065000  0.55450000  1
  O  O318  1  0.07106000  0.05866000  0.42328000  1
  O  O319  1  0.06096000  0.52960000  0.45368000  1
  O  O320  1  0.05866000  0.00566000  0.92328000  1
  O  O321  1  0.05657000  0.87037000  0.08206000  1
  O  O322  1  0.05306000  0.84616000  0.91128000  1
  O  O323  1  0.04757000  0.05657000  0.58206000  1
  O  O324  1  0.01672000  0.06096000  0.95368000  1
  O  O325  1  0.01515000  0.90025000  0.94550000  1
  O  O326  1  0.01464000  0.98328000  0.54632000  1
  O  O327  1  0.00566000  0.51806000  0.42328000  1
