# generated using pymatgen
data_ZnH12C18N2O3
_symmetry_space_group_name_H-M   'P 1'
_cell_length_a   5.23510000
_cell_length_b   18.92810000
_cell_length_c   18.92810508
_cell_angle_alpha   88.90427467
_cell_angle_beta   82.05108979
_cell_angle_gamma   82.05130000
_symmetry_Int_Tables_number   1
_chemical_formula_structural   ZnH12C18N2O3
_chemical_formula_sum   'Zn4 H48 C72 N8 O12'
_cell_volume   1839.72713164
_cell_formula_units_Z   4
loop_
 _symmetry_equiv_pos_site_id
 _symmetry_equiv_pos_as_xyz
  1  'x, y, z'
loop_
 _atom_site_type_symbol
 _atom_site_label
 _atom_site_symmetry_multiplicity
 _atom_site_fract_x
 _atom_site_fract_y
 _atom_site_fract_z
 _atom_site_occupancy
  Zn  Zn0  1  0.29866000  0.05905000  0.51149000  1
  Zn  Zn1  1  0.64229000  0.48851000  0.05905000  1
  Zn  Zn2  1  0.86920000  0.94095000  0.48851000  1
  Zn  Zn3  1  0.18985000  0.51149000  0.94095000  1
  H  H4  1  0.14850000  0.94160000  0.81560000  1
  H  H5  1  0.87550000  0.98540000  0.08800000  1
  H  H6  1  0.64830000  0.04880000  0.29260000  1
  H  H7  1  0.82070000  0.69060000  0.11760000  1
  H  H8  1  0.94890000  0.01460000  0.91200000  1
  H  H9  1  0.90990000  0.18440000  0.94160000  1
  H  H10  1  0.31343000  0.92197000  0.53015000  1
  H  H11  1  0.86822000  0.42205000  0.96908000  1
  H  H12  1  0.89080000  0.82650000  0.83830000  1
  H  H13  1  0.55560000  0.17350000  0.16170000  1
  H  H14  1  0.70680000  0.63240000  0.99240000  1
  H  H15  1  0.98970000  0.95120000  0.70740000  1
  H  H16  1  0.59280000  0.90260000  0.09900000  1
  H  H17  1  0.30080000  0.99240000  0.36760000  1
  H  H18  1  0.83840000  0.20230000  0.82730000  1
  H  H19  1  0.95930000  0.18770000  0.59710000  1
  H  H20  1  0.90500000  0.29890000  0.63750000  1
  H  H21  1  0.62890000  0.30940000  0.88240000  1
  H  H22  1  0.59440000  0.09740000  0.90100000  1
  H  H23  1  0.27090000  0.83830000  0.17350000  1
  H  H24  1  0.71690000  0.40970000  0.69210000  1
  H  H25  1  0.50460000  0.90100000  0.90260000  1
  H  H26  1  0.30820000  0.09900000  0.09740000  1
  H  H27  1  0.06170000  0.11760000  0.30940000  1
  H  H28  1  0.30290000  0.70740000  0.04880000  1
  H  H29  1  0.31118000  0.57795000  0.03092000  1
  H  H30  1  0.33160000  0.36760000  0.00760000  1
  H  H31  1  0.66080000  0.00760000  0.63240000  1
  H  H32  1  0.87340000  0.30790000  0.40970000  1
  H  H33  1  0.44360000  0.59710000  0.81230000  1
  H  H34  1  0.84140000  0.70110000  0.36250000  1
  H  H35  1  0.59100000  0.69210000  0.59030000  1
  H  H36  1  0.48870000  0.88240000  0.69060000  1
  H  H37  1  0.95930000  0.17270000  0.20230000  1
  H  H38  1  0.45750000  0.63750000  0.70110000  1
  H  H39  1  0.74410000  0.81230000  0.40290000  1
  H  H40  1  0.65689000  0.08275000  0.47590000  1
  H  H41  1  0.33430000  0.82730000  0.79770000  1
  H  H42  1  0.81870000  0.59030000  0.30790000  1
  H  H43  1  0.13910000  0.91200000  0.98540000  1
  H  H44  1  0.28270000  0.16170000  0.82650000  1
  H  H45  1  0.79610000  0.36250000  0.29890000  1
  H  H46  1  0.03590000  0.81560000  0.05840000  1
  H  H47  1  0.90570000  0.05840000  0.18440000  1
  H  H48  1  0.03650000  0.08800000  0.01460000  1
  H  H49  1  0.86800000  0.79770000  0.17270000  1
  H  H50  1  0.85300000  0.40290000  0.18770000  1
  H  H51  1  0.05910000  0.29260000  0.95120000  1
  C  C52  1  0.02378000  0.18999000  0.97545000  1
  C  C53  1  0.82680000  0.69170000  0.16750000  1
  C  C54  1  0.27093000  0.13721000  0.72293000  1
  C  C55  1  0.78623000  0.02455000  0.18999000  1
  C  C56  1  0.76047000  0.37287000  0.16419000  1
  C  C57  1  0.74090000  0.56820000  0.17000000  1
  C  C58  1  0.76871000  0.98055000  0.13223000  1
  C  C59  1  0.63340000  0.01907000  0.25393000  1
  C  C60  1  0.00614000  0.72293000  0.86279000  1
  C  C61  1  0.95423000  0.66560000  0.90974000  1
  C  C62  1  0.00077000  0.97545000  0.81001000  1
  C  C63  1  0.88149000  0.01945000  0.86777000  1
  C  C64  1  0.60228000  0.93150000  0.13874000  1
  C  C65  1  0.59186000  0.27707000  0.13721000  1
  C  C66  1  0.85272000  0.78794000  0.86902000  1
  C  C67  1  0.45140000  0.96886000  0.26274000  1
  C  C68  1  0.74216000  0.67147000  0.96201000  1
  C  C69  1  0.07534000  0.16419000  0.62713000  1
  C  C70  1  0.90640000  0.98093000  0.74607000  1
  C  C71  1  0.92164000  0.24558000  0.72954000  1
  C  C72  1  0.43987000  0.92262000  0.20484000  1
  C  C73  1  0.50968000  0.21206000  0.13098000  1
  C  C74  1  0.29583000  0.96201000  0.32853000  1
  C  C75  1  0.52957000  0.33440000  0.09026000  1
  C  C76  1  0.81919000  0.24505000  0.80037000  1
  C  C77  1  0.63751000  0.79516000  0.92262000  1
  C  C78  1  0.86220000  0.30250000  0.68790000  1
  C  C79  1  0.57974000  0.73726000  0.96886000  1
  C  C80  1  0.67252000  0.06850000  0.86126000  1
  C  C81  1  0.08910000  0.17000000  0.43180000  1
  C  C82  1  0.68600000  0.30830000  0.83250000  1
  C  C83  1  0.27826000  0.86902000  0.21206000  1
  C  C84  1  0.13603000  0.90974000  0.33440000  1
  C  C85  1  0.73680000  0.36710000  0.71930000  1
  C  C86  1  0.63941000  0.36622000  0.79396000  1
  C  C87  1  0.35529000  0.20484000  0.07738000  1
  C  C88  1  0.68300000  0.03114000  0.73726000  1
  C  C89  1  0.37564000  0.32853000  0.03799000  1
  C  C90  1  0.13107000  0.86279000  0.27707000  1
  C  C91  1  0.46622000  0.86126000  0.93150000  1
  C  C92  1  0.34753000  0.74607000  0.01907000  1
  C  C93  1  0.56733000  0.07738000  0.79516000  1
  C  C94  1  0.99437000  0.20604000  0.36622000  1
  C  C95  1  0.25898000  0.13874000  0.06850000  1
  C  C96  1  0.28586000  0.26274000  0.03114000  1
  C  C97  1  0.00570000  0.16750000  0.30830000  1
  C  C98  1  0.47910000  0.43180000  0.83000000  1
  C  C99  1  0.89610000  0.28070000  0.36710000  1
  C  C100  1  0.69090000  0.83000000  0.56820000  1
  C  C101  1  0.58637000  0.03799000  0.67147000  1
  C  C102  1  0.86666000  0.83581000  0.37287000  1
  C  C103  1  0.25074000  0.86777000  0.98055000  1
  C  C104  1  0.18922000  0.81001000  0.02455000  1
  C  C105  1  0.56663000  0.79396000  0.63378000  1
  C  C106  1  0.93576000  0.19963000  0.24505000  1
  C  C107  1  0.54390000  0.71930000  0.63290000  1
  C  C108  1  0.48150000  0.83250000  0.69170000  1
  C  C109  1  0.89676000  0.75442000  0.27046000  1
  C  C110  1  0.85260000  0.69750000  0.31210000  1
  C  C111  1  0.44990000  0.68790000  0.69750000  1
  C  C112  1  0.35934000  0.13098000  0.78794000  1
  C  C113  1  0.83530000  0.31210000  0.30250000  1
  C  C114  1  0.38044000  0.80037000  0.75495000  1
  C  C115  1  0.29753000  0.62713000  0.83581000  1
  C  C116  1  0.09906000  0.13223000  0.01945000  1
  C  C117  1  0.82320000  0.63290000  0.28070000  1
  C  C118  1  0.34882000  0.72954000  0.75442000  1
  C  C119  1  0.11267000  0.25393000  0.98093000  1
  C  C120  1  0.83278000  0.27046000  0.24558000  1
  C  C121  1  0.86461000  0.75495000  0.19963000  1
  C  C122  1  0.38017000  0.09026000  0.66560000  1
  C  C123  1  0.79959000  0.63378000  0.20604000  1
  N  N124  1  0.73960000  0.30387000  0.18373000  1
  N  N125  1  0.25016000  0.10970000  0.60678000  1
  N  N126  1  0.07667000  0.18373000  0.69613000  1
  N  N127  1  0.64014000  0.39322000  0.10970000  1
  N  N128  1  0.96664000  0.89030000  0.39322000  1
  N  N129  1  0.95653000  0.81627000  0.30387000  1
  N  N130  1  0.22720000  0.69613000  0.81627000  1
  N  N131  1  0.14306000  0.60678000  0.89030000  1
  O  O132  1  0.73190000  0.51200000  0.21820000  1
  O  O133  1  0.79247000  0.55684000  0.11182000  1
  O  O134  1  0.86721000  0.47489000  0.97009000  1
  O  O135  1  0.16270000  0.97009000  0.52511000  1
  O  O136  1  0.09571000  0.11182000  0.44316000  1
  O  O137  1  0.04990000  0.21820000  0.48800000  1
  O  O138  1  0.46113000  0.44316000  0.88818000  1
  O  O139  1  0.31219000  0.52511000  0.02991000  1
  O  O140  1  0.75610000  0.78180000  0.51200000  1
  O  O141  1  0.46210000  0.48800000  0.78180000  1
  O  O142  1  0.65069000  0.88818000  0.55684000  1
  O  O143  1  0.65790000  0.02991000  0.47489000  1
