# generated using pymatgen
data_MnH16C24(NO2)2
_symmetry_space_group_name_H-M   'P 1'
_cell_length_a   14.09780000
_cell_length_b   17.58110000
_cell_length_c   18.78710000
_cell_angle_alpha   97.72300000
_cell_angle_beta   90.00000000
_cell_angle_gamma   90.00000000
_symmetry_Int_Tables_number   1
_chemical_formula_structural   MnH16C24(NO2)2
_chemical_formula_sum   'Mn8 H128 C192 N16 O32'
_cell_volume   4614.23619218
_cell_formula_units_Z   8
loop_
 _symmetry_equiv_pos_site_id
 _symmetry_equiv_pos_as_xyz
  1  'x, y, z'
loop_
 _atom_site_type_symbol
 _atom_site_label
 _atom_site_symmetry_multiplicity
 _atom_site_fract_x
 _atom_site_fract_y
 _atom_site_fract_z
 _atom_site_occupancy
  Mn  Mn0  1  0.92332000  0.86755000  0.49482000  1
  Mn  Mn1  1  0.57668000  0.86755000  0.99482000  1
  Mn  Mn2  1  0.42917000  0.61542000  0.99462000  1
  Mn  Mn3  1  0.07083000  0.61542000  0.49462000  1
  Mn  Mn4  1  0.92917000  0.38458000  0.50538000  1
  Mn  Mn5  1  0.57083000  0.38458000  0.00538000  1
  Mn  Mn6  1  0.42332000  0.13245000  0.00518000  1
  Mn  Mn7  1  0.07668000  0.13245000  0.50518000  1
  H  H8  1  0.84500000  0.97230000  0.70410000  1
  H  H9  1  0.65500000  0.97230000  0.20410000  1
  H  H10  1  0.36790000  0.96930000  0.03620000  1
  H  H11  1  0.13210000  0.96930000  0.53620000  1
  H  H12  1  0.45630000  0.96610000  0.28870000  1
  H  H13  1  0.04370000  0.96610000  0.78870000  1
  H  H14  1  0.48590000  0.91220000  0.17000000  1
  H  H15  1  0.01410000  0.91220000  0.67000000  1
  H  H16  1  0.75010000  0.90110000  0.61040000  1
  H  H17  1  0.74990000  0.90110000  0.11040000  1
  H  H18  1  0.27380000  0.90010000  0.10480000  1
  H  H19  1  0.22620000  0.90010000  0.60480000  1
  H  H20  1  0.84450000  0.89960000  0.80560000  1
  H  H21  1  0.65550000  0.89960000  0.30560000  1
  H  H22  1  0.36810000  0.89880000  0.36440000  1
  H  H23  1  0.13190000  0.89880000  0.86440000  1
  H  H24  1  0.37960000  0.85610000  0.63090000  1
  H  H25  1  0.12040000  0.85610000  0.13090000  1
  H  H26  1  0.28380000  0.84780000  0.89140000  1
  H  H27  1  0.21620000  0.84780000  0.39140000  1
  H  H28  1  0.84630000  0.84020000  0.18420000  1
  H  H29  1  0.65370000  0.84020000  0.68420000  1
  H  H30  1  0.49510000  0.83760000  0.82520000  1
  H  H31  1  0.00490000  0.83760000  0.32520000  1
  H  H32  1  0.75120000  0.83690000  0.88010000  1
  H  H33  1  0.74880000  0.83690000  0.38010000  1
  H  H34  1  0.47100000  0.78910000  0.70440000  1
  H  H35  1  0.02900000  0.78910000  0.20440000  1
  H  H36  1  0.37080000  0.77750000  0.96330000  1
  H  H37  1  0.12920000  0.77750000  0.46330000  1
  H  H38  1  0.84880000  0.76320000  0.28090000  1
  H  H39  1  0.65120000  0.76320000  0.78090000  1
  H  H40  1  0.91880000  0.74850000  0.78460000  1
  H  H41  1  0.58120000  0.74850000  0.28460000  1
  H  H42  1  0.34160000  0.72150000  0.20380000  1
  H  H43  1  0.15840000  0.72150000  0.70380000  1
  H  H44  1  0.84040000  0.70340000  0.51030000  1
  H  H45  1  0.65960000  0.70340000  0.01030000  1
  H  H46  1  0.95380000  0.69010000  0.66830000  1
  H  H47  1  0.54620000  0.69010000  0.16830000  1
  H  H48  1  0.83510000  0.68180000  0.86370000  1
  H  H49  1  0.66490000  0.68180000  0.36370000  1
  H  H50  1  0.35340000  0.65300000  0.31150000  1
  H  H51  1  0.14660000  0.65300000  0.81150000  1
  H  H52  1  0.75720000  0.63750000  0.07820000  1
  H  H53  1  0.74280000  0.63750000  0.57820000  1
  H  H54  1  0.90810000  0.59870000  0.11400000  1
  H  H55  1  0.59190000  0.59870000  0.61400000  1
  H  H56  1  0.39450000  0.59440000  0.15650000  1
  H  H57  1  0.10550000  0.59440000  0.65650000  1
  H  H58  1  0.82130000  0.58830000  0.93970000  1
  H  H59  1  0.67870000  0.58830000  0.43970000  1
  H  H60  1  0.26380000  0.58810000  0.38670000  1
  H  H61  1  0.23620000  0.58810000  0.88670000  1
  H  H62  1  0.48850000  0.58040000  0.81210000  1
  H  H63  1  0.01150000  0.58040000  0.31210000  1
  H  H64  1  0.99800000  0.53300000  0.18990000  1
  H  H65  1  0.50200000  0.53300000  0.68990000  1
  H  H66  1  0.31290000  0.52600000  0.23300000  1
  H  H67  1  0.18710000  0.52600000  0.73300000  1
  H  H68  1  0.76720000  0.51810000  0.51120000  1
  H  H69  1  0.73280000  0.51810000  0.01120000  1
  H  H70  1  0.32750000  0.50510000  0.78830000  1
  H  H71  1  0.17250000  0.50510000  0.28830000  1
  H  H72  1  0.82750000  0.49490000  0.71170000  1
  H  H73  1  0.67250000  0.49490000  0.21170000  1
  H  H74  1  0.26720000  0.48190000  0.98880000  1
  H  H75  1  0.23280000  0.48190000  0.48880000  1
  H  H76  1  0.81290000  0.47400000  0.26700000  1
  H  H77  1  0.68710000  0.47400000  0.76700000  1
  H  H78  1  0.49800000  0.46700000  0.31010000  1
  H  H79  1  0.00200000  0.46700000  0.81010000  1
  H  H80  1  0.98850000  0.41960000  0.68790000  1
  H  H81  1  0.51150000  0.41960000  0.18790000  1
  H  H82  1  0.76380000  0.41190000  0.11330000  1
  H  H83  1  0.73620000  0.41190000  0.61330000  1
  H  H84  1  0.32130000  0.41170000  0.56030000  1
  H  H85  1  0.17870000  0.41170000  0.06030000  1
  H  H86  1  0.89450000  0.40560000  0.34350000  1
  H  H87  1  0.60550000  0.40560000  0.84350000  1
  H  H88  1  0.40810000  0.40130000  0.38600000  1
  H  H89  1  0.09190000  0.40130000  0.88600000  1
  H  H90  1  0.25720000  0.36250000  0.42180000  1
  H  H91  1  0.24280000  0.36250000  0.92180000  1
  H  H92  1  0.85340000  0.34700000  0.18850000  1
  H  H93  1  0.64660000  0.34700000  0.68850000  1
  H  H94  1  0.33510000  0.31820000  0.63630000  1
  H  H95  1  0.16490000  0.31820000  0.13630000  1
  H  H96  1  0.45380000  0.30990000  0.83170000  1
  H  H97  1  0.04620000  0.30990000  0.33170000  1
  H  H98  1  0.34040000  0.29660000  0.98970000  1
  H  H99  1  0.15960000  0.29660000  0.48970000  1
  H  H100  1  0.84160000  0.27850000  0.29620000  1
  H  H101  1  0.65840000  0.27850000  0.79620000  1
  H  H102  1  0.41880000  0.25150000  0.71540000  1
  H  H103  1  0.08120000  0.25150000  0.21540000  1
  H  H104  1  0.34880000  0.23680000  0.21910000  1
  H  H105  1  0.15120000  0.23680000  0.71910000  1
  H  H106  1  0.87080000  0.22250000  0.53670000  1
  H  H107  1  0.62920000  0.22250000  0.03670000  1
  H  H108  1  0.97100000  0.21090000  0.79560000  1
  H  H109  1  0.52900000  0.21090000  0.29560000  1
  H  H110  1  0.25120000  0.16310000  0.61990000  1
  H  H111  1  0.24880000  0.16310000  0.11990000  1
  H  H112  1  0.99510000  0.16240000  0.67480000  1
  H  H113  1  0.50490000  0.16240000  0.17480000  1
  H  H114  1  0.34630000  0.15980000  0.31580000  1
  H  H115  1  0.15370000  0.15980000  0.81580000  1
  H  H116  1  0.78380000  0.15220000  0.60860000  1
  H  H117  1  0.71620000  0.15220000  0.10860000  1
  H  H118  1  0.87960000  0.14390000  0.86910000  1
  H  H119  1  0.62040000  0.14390000  0.36910000  1
  H  H120  1  0.86810000  0.10120000  0.13560000  1
  H  H121  1  0.63190000  0.10120000  0.63560000  1
  H  H122  1  0.34450000  0.10040000  0.69440000  1
  H  H123  1  0.15550000  0.10040000  0.19440000  1
  H  H124  1  0.77380000  0.09990000  0.39520000  1
  H  H125  1  0.72620000  0.09990000  0.89520000  1
  H  H126  1  0.25010000  0.09890000  0.88960000  1
  H  H127  1  0.24990000  0.09890000  0.38960000  1
  H  H128  1  0.98590000  0.08780000  0.33000000  1
  H  H129  1  0.51410000  0.08780000  0.83000000  1
  H  H130  1  0.95630000  0.03390000  0.21130000  1
  H  H131  1  0.54370000  0.03390000  0.71130000  1
  H  H132  1  0.86790000  0.03070000  0.46380000  1
  H  H133  1  0.63210000  0.03070000  0.96380000  1
  H  H134  1  0.34500000  0.02770000  0.79590000  1
  H  H135  1  0.15500000  0.02770000  0.29590000  1
  C  C136  1  0.32319000  0.99605000  0.06815000  1
  C  C137  1  0.17681000  0.99605000  0.56815000  1
  C  C138  1  0.29577000  0.99218000  0.65888000  1
  C  C139  1  0.20423000  0.99218000  0.15888000  1
  C  C140  1  0.36959000  0.97867000  0.77757000  1
  C  C141  1  0.13041000  0.97867000  0.27757000  1
  C  C142  1  0.43324000  0.96783000  0.90095000  1
  C  C143  1  0.06676000  0.96783000  0.40095000  1
  C  C144  1  0.26818000  0.95442000  0.10968000  1
  C  C145  1  0.23182000  0.95442000  0.60968000  1
  C  C146  1  0.35329000  0.94905000  0.70610000  1
  C  C147  1  0.14671000  0.94905000  0.20610000  1
  C  C148  1  0.42144000  0.93740000  0.82254000  1
  C  C149  1  0.07856000  0.93740000  0.32254000  1
  C  C150  1  0.80185000  0.92810000  0.83811000  1
  C  C151  1  0.69815000  0.92810000  0.33811000  1
  C  C152  1  0.43267000  0.91646000  0.27141000  1
  C  C153  1  0.06733000  0.91646000  0.77141000  1
  C  C154  1  0.75444000  0.89108000  0.38268000  1
  C  C155  1  0.74556000  0.89108000  0.88268000  1
  C  C156  1  0.45018000  0.88443000  0.20080000  1
  C  C157  1  0.04982000  0.88443000  0.70080000  1
  C  C158  1  0.39087000  0.87725000  0.67943000  1
  C  C159  1  0.10913000  0.87725000  0.17943000  1
  C  C160  1  0.38091000  0.87612000  0.31655000  1
  C  C161  1  0.11909000  0.87612000  0.81655000  1
  C  C162  1  0.45927000  0.86616000  0.79509000  1
  C  C163  1  0.04073000  0.86616000  0.29509000  1
  C  C164  1  0.75022000  0.84657000  0.10464000  1
  C  C165  1  0.74978000  0.84657000  0.60464000  1
  C  C166  1  0.44416000  0.83718000  0.72333000  1
  C  C167  1  0.05584000  0.83718000  0.22333000  1
  C  C168  1  0.41547000  0.81179000  0.17527000  1
  C  C169  1  0.08453000  0.81179000  0.67527000  1
  C  C170  1  0.80849000  0.81065000  0.14893000  1
  C  C171  1  0.69151000  0.81065000  0.64893000  1
  C  C172  1  0.34726000  0.80230000  0.29236000  1
  C  C173  1  0.15274000  0.80230000  0.79236000  1
  C  C174  1  0.27345000  0.79410000  0.88873000  1
  C  C175  1  0.22655000  0.79410000  0.38873000  1
  C  C176  1  0.43235000  0.77784000  0.09772000  1
  C  C177  1  0.06765000  0.77784000  0.59772000  1
  C  C178  1  0.36480000  0.77125000  0.22116000  1
  C  C179  1  0.13520000  0.77125000  0.72116000  1
  C  C180  1  0.29367000  0.75826000  0.34113000  1
  C  C181  1  0.20633000  0.75826000  0.84113000  1
  C  C182  1  0.32477000  0.75169000  0.93186000  1
  C  C183  1  0.17523000  0.75169000  0.43186000  1
  C  C184  1  0.80186000  0.73177000  0.54597000  1
  C  C185  1  0.69814000  0.73177000  0.04597000  1
  C  C186  1  0.81149000  0.73011000  0.14147000  1
  C  C187  1  0.68851000  0.73011000  0.64147000  1
  C  C188  1  0.87830000  0.71610000  0.26243000  1
  C  C189  1  0.62170000  0.71610000  0.76243000  1
  C  C190  1  0.93789000  0.70700000  0.38780000  1
  C  C191  1  0.56211000  0.70700000  0.88780000  1
  C  C192  1  0.89948000  0.69709000  0.76964000  1
  C  C193  1  0.60052000  0.69709000  0.26964000  1
  C  C194  1  0.75562000  0.69195000  0.08708000  1
  C  C195  1  0.74438000  0.69195000  0.58708000  1
  C  C196  1  0.86870000  0.68789000  0.18961000  1
  C  C197  1  0.63130000  0.68789000  0.68961000  1
  C  C198  1  0.30724000  0.67998000  0.34198000  1
  C  C199  1  0.19276000  0.67998000  0.84198000  1
  C  C200  1  0.93057000  0.67616000  0.30835000  1
  C  C201  1  0.56943000  0.67616000  0.80835000  1
  C  C202  1  0.92118000  0.66209000  0.70067000  1
  C  C203  1  0.57882000  0.66209000  0.20067000  1
  C  C204  1  0.84976000  0.65738000  0.81677000  1
  C  C205  1  0.65024000  0.65738000  0.31677000  1
  C  C206  1  0.25329000  0.64150000  0.38724000  1
  C  C207  1  0.24671000  0.64150000  0.88724000  1
  C  C208  1  0.91394000  0.61879000  0.16333000  1
  C  C209  1  0.58606000  0.61879000  0.66333000  1
  C  C210  1  0.97535000  0.60772000  0.28117000  1
  C  C211  1  0.52465000  0.60772000  0.78117000  1
  C  C212  1  0.89516000  0.58624000  0.67901000  1
  C  C213  1  0.60484000  0.58624000  0.17901000  1
  C  C214  1  0.82119000  0.58145000  0.79535000  1
  C  C215  1  0.67881000  0.58145000  0.29535000  1
  C  C216  1  0.96704000  0.57949000  0.20854000  1
  C  C217  1  0.53296000  0.57949000  0.70854000  1
  C  C218  1  0.34999000  0.55686000  0.13663000  1
  C  C219  1  0.15001000  0.55686000  0.63663000  1
  C  C220  1  0.77758000  0.55091000  0.91823000  1
  C  C221  1  0.72242000  0.55091000  0.41823000  1
  C  C222  1  0.92038000  0.54725000  0.60424000  1
  C  C223  1  0.57962000  0.54725000  0.10424000  1
  C  C224  1  0.84543000  0.54668000  0.72644000  1
  C  C225  1  0.65457000  0.54668000  0.22644000  1
  C  C226  1  0.76650000  0.53857000  0.84408000  1
  C  C227  1  0.73350000  0.53857000  0.34408000  1
  C  C228  1  0.30094000  0.51649000  0.18280000  1
  C  C229  1  0.19906000  0.51649000  0.68280000  1
  C  C230  1  0.77565000  0.50823000  0.46065000  1
  C  C231  1  0.72435000  0.50823000  0.96065000  1
  C  C232  1  0.27565000  0.49177000  0.03935000  1
  C  C233  1  0.22435000  0.49177000  0.53935000  1
  C  C234  1  0.80094000  0.48351000  0.31720000  1
  C  C235  1  0.69906000  0.48351000  0.81720000  1
  C  C236  1  0.26650000  0.46143000  0.65592000  1
  C  C237  1  0.23350000  0.46143000  0.15592000  1
  C  C238  1  0.34543000  0.45332000  0.77356000  1
  C  C239  1  0.15457000  0.45332000  0.27356000  1
  C  C240  1  0.42038000  0.45275000  0.89576000  1
  C  C241  1  0.07962000  0.45275000  0.39576000  1
  C  C242  1  0.27758000  0.44909000  0.58177000  1
  C  C243  1  0.22242000  0.44909000  0.08177000  1
  C  C244  1  0.84999000  0.44314000  0.36337000  1
  C  C245  1  0.65001000  0.44314000  0.86337000  1
  C  C246  1  0.46704000  0.42051000  0.29146000  1
  C  C247  1  0.03296000  0.42051000  0.79146000  1
  C  C248  1  0.32119000  0.41855000  0.70465000  1
  C  C249  1  0.17881000  0.41855000  0.20465000  1
  C  C250  1  0.39516000  0.41376000  0.82099000  1
  C  C251  1  0.10484000  0.41376000  0.32099000  1
  C  C252  1  0.47535000  0.39228000  0.21883000  1
  C  C253  1  0.02465000  0.39228000  0.71883000  1
  C  C254  1  0.41394000  0.38121000  0.33667000  1
  C  C255  1  0.08606000  0.38121000  0.83667000  1
  C  C256  1  0.75329000  0.35850000  0.11276000  1
  C  C257  1  0.74671000  0.35850000  0.61276000  1
  C  C258  1  0.34976000  0.34262000  0.68323000  1
  C  C259  1  0.15024000  0.34262000  0.18323000  1
  C  C260  1  0.42118000  0.33791000  0.79933000  1
  C  C261  1  0.07882000  0.33791000  0.29933000  1
  C  C262  1  0.43057000  0.32384000  0.19165000  1
  C  C263  1  0.06943000  0.32384000  0.69165000  1
  C  C264  1  0.80724000  0.32002000  0.15802000  1
  C  C265  1  0.69276000  0.32002000  0.65802000  1
  C  C266  1  0.36870000  0.31211000  0.31039000  1
  C  C267  1  0.13130000  0.31211000  0.81039000  1
  C  C268  1  0.25562000  0.30805000  0.41292000  1
  C  C269  1  0.24438000  0.30805000  0.91292000  1
  C  C270  1  0.39948000  0.30291000  0.73036000  1
  C  C271  1  0.10052000  0.30291000  0.23036000  1
  C  C272  1  0.43789000  0.29300000  0.11220000  1
  C  C273  1  0.06211000  0.29300000  0.61220000  1
  C  C274  1  0.37830000  0.28390000  0.23757000  1
  C  C275  1  0.12170000  0.28390000  0.73757000  1
  C  C276  1  0.31149000  0.26989000  0.35853000  1
  C  C277  1  0.18851000  0.26989000  0.85853000  1
  C  C278  1  0.30186000  0.26823000  0.95403000  1
  C  C279  1  0.19814000  0.26823000  0.45403000  1
  C  C280  1  0.82477000  0.24831000  0.56814000  1
  C  C281  1  0.67523000  0.24831000  0.06814000  1
  C  C282  1  0.79367000  0.24174000  0.15887000  1
  C  C283  1  0.70633000  0.24174000  0.65887000  1
  C  C284  1  0.86480000  0.22875000  0.27884000  1
  C  C285  1  0.63520000  0.22875000  0.77884000  1
  C  C286  1  0.93235000  0.22216000  0.40228000  1
  C  C287  1  0.56765000  0.22216000  0.90228000  1
  C  C288  1  0.77345000  0.20590000  0.61127000  1
  C  C289  1  0.72655000  0.20590000  0.11127000  1
  C  C290  1  0.84726000  0.19770000  0.20764000  1
  C  C291  1  0.65274000  0.19770000  0.70764000  1
  C  C292  1  0.30849000  0.18935000  0.35107000  1
  C  C293  1  0.19151000  0.18935000  0.85107000  1
  C  C294  1  0.91547000  0.18821000  0.32473000  1
  C  C295  1  0.58453000  0.18821000  0.82473000  1
  C  C296  1  0.94416000  0.16282000  0.77667000  1
  C  C297  1  0.55584000  0.16282000  0.27667000  1
  C  C298  1  0.25022000  0.15343000  0.39536000  1
  C  C299  1  0.24978000  0.15343000  0.89536000  1
  C  C300  1  0.95927000  0.13384000  0.70491000  1
  C  C301  1  0.54073000  0.13384000  0.20491000  1
  C  C302  1  0.88091000  0.12388000  0.18345000  1
  C  C303  1  0.61909000  0.12388000  0.68345000  1
  C  C304  1  0.89087000  0.12275000  0.82057000  1
  C  C305  1  0.60913000  0.12275000  0.32057000  1
  C  C306  1  0.95018000  0.11557000  0.29920000  1
  C  C307  1  0.54982000  0.11557000  0.79920000  1
  C  C308  1  0.25444000  0.10892000  0.11732000  1
  C  C309  1  0.24556000  0.10892000  0.61732000  1
  C  C310  1  0.93267000  0.08354000  0.22859000  1
  C  C311  1  0.56733000  0.08354000  0.72859000  1
  C  C312  1  0.30185000  0.07190000  0.66189000  1
  C  C313  1  0.19815000  0.07190000  0.16189000  1
  C  C314  1  0.92144000  0.06260000  0.67746000  1
  C  C315  1  0.57856000  0.06260000  0.17746000  1
  C  C316  1  0.85329000  0.05095000  0.79390000  1
  C  C317  1  0.64671000  0.05095000  0.29390000  1
  C  C318  1  0.76818000  0.04558000  0.39032000  1
  C  C319  1  0.73182000  0.04558000  0.89032000  1
  C  C320  1  0.93324000  0.03217000  0.59905000  1
  C  C321  1  0.56676000  0.03217000  0.09905000  1
  C  C322  1  0.86959000  0.02133000  0.72243000  1
  C  C323  1  0.63041000  0.02133000  0.22243000  1
  C  C324  1  0.79577000  0.00782000  0.84112000  1
  C  C325  1  0.70423000  0.00782000  0.34112000  1
  C  C326  1  0.82319000  0.00395000  0.43185000  1
  C  C327  1  0.67681000  0.00395000  0.93185000  1
  N  N328  1  0.81686000  0.92742000  0.42950000  1
  N  N329  1  0.68314000  0.92742000  0.92950000  1
  N  N330  1  0.80626000  0.80877000  0.55365000  1
  N  N331  1  0.69374000  0.80877000  0.05365000  1
  N  N332  1  0.31326000  0.67566000  0.93197000  1
  N  N333  1  0.18674000  0.67566000  0.43197000  1
  N  N334  1  0.33805000  0.54589000  0.06484000  1
  N  N335  1  0.16195000  0.54589000  0.56484000  1
  N  N336  1  0.83805000  0.45411000  0.43516000  1
  N  N337  1  0.66195000  0.45411000  0.93516000  1
  N  N338  1  0.81326000  0.32434000  0.56803000  1
  N  N339  1  0.68674000  0.32434000  0.06803000  1
  N  N340  1  0.30626000  0.19123000  0.94635000  1
  N  N341  1  0.19374000  0.19123000  0.44635000  1
  N  N342  1  0.31686000  0.07258000  0.07050000  1
  N  N343  1  0.18314000  0.07258000  0.57050000  1
  O  O344  1  0.90659000  0.96402000  0.57975000  1
  O  O345  1  0.59341000  0.96402000  0.07975000  1
  O  O346  1  0.46674000  0.92325000  0.94139000  1
  O  O347  1  0.03326000  0.92325000  0.44139000  1
  O  O348  1  0.47325000  0.81913000  0.05779000  1
  O  O349  1  0.02675000  0.81913000  0.55779000  1
  O  O350  1  0.91001000  0.77492000  0.40652000  1
  O  O351  1  0.58999000  0.77492000  0.90652000  1
  O  O352  1  0.40246000  0.71076000  0.07924000  1
  O  O353  1  0.09754000  0.71076000  0.57924000  1
  O  O354  1  0.97031000  0.66322000  0.42912000  1
  O  O355  1  0.52969000  0.66322000  0.92912000  1
  O  O356  1  0.95405000  0.58788000  0.56065000  1
  O  O357  1  0.54595000  0.58788000  0.06065000  1
  O  O358  1  0.40370000  0.52372000  0.90836000  1
  O  O359  1  0.09630000  0.52372000  0.40836000  1
  O  O360  1  0.90370000  0.47628000  0.59164000  1
  O  O361  1  0.59630000  0.47628000  0.09164000  1
  O  O362  1  0.45405000  0.41212000  0.93935000  1
  O  O363  1  0.04595000  0.41212000  0.43935000  1
  O  O364  1  0.47031000  0.33678000  0.07088000  1
  O  O365  1  0.02969000  0.33678000  0.57088000  1
  O  O366  1  0.90246000  0.28924000  0.42076000  1
  O  O367  1  0.59754000  0.28924000  0.92076000  1
  O  O368  1  0.41001000  0.22508000  0.09348000  1
  O  O369  1  0.08999000  0.22508000  0.59348000  1
  O  O370  1  0.97325000  0.18087000  0.44221000  1
  O  O371  1  0.52675000  0.18087000  0.94221000  1
  O  O372  1  0.96674000  0.07675000  0.55861000  1
  O  O373  1  0.53326000  0.07675000  0.05861000  1
  O  O374  1  0.40659000  0.03598000  0.92025000  1
  O  O375  1  0.09341000  0.03598000  0.42025000  1
