# generated using pymatgen
data_ZnH12C19N5O4
_symmetry_space_group_name_H-M   'P 1'
_cell_length_a   15.09450000
_cell_length_b   18.81835625
_cell_length_c   18.81835625
_cell_angle_alpha   113.12686653
_cell_angle_beta   105.50794031
_cell_angle_gamma   105.50794031
_symmetry_Int_Tables_number   1
_chemical_formula_structural   ZnH12C19N5O4
_chemical_formula_sum   'Zn6 H72 C114 N30 O24'
_cell_volume   4298.33615339
_cell_formula_units_Z   6
loop_
 _symmetry_equiv_pos_site_id
 _symmetry_equiv_pos_as_xyz
  1  'x, y, z'
loop_
 _atom_site_type_symbol
 _atom_site_label
 _atom_site_symmetry_multiplicity
 _atom_site_fract_x
 _atom_site_fract_y
 _atom_site_fract_z
 _atom_site_occupancy
  C  C0  1  0.43930667  0.11566333  0.88435667  1
  C  C1  1  0.85143000  0.12461000  0.88378000  1
  C  C2  1  0.35270000  0.71322000  0.29888000  1
  C  C3  1  0.16431000  0.85396000  0.17887000  1
  C  C4  1  0.63864000  0.06180000  0.97612000  1
  C  C5  1  0.38757000  0.06289000  0.97632000  1
  C  C6  1  0.89806000  0.97688000  0.06250000  1
  C  C7  1  0.12781000  0.97637000  0.06306000  1
  C  C8  1  0.47067000  0.17982000  0.86539000  1
  C  C9  1  0.41117000  0.12958000  0.95163000  1
  C  C10  1  0.14015000  0.95222000  0.12993000  1
  C  C11  1  0.92118000  0.08562000  0.02312000  1
  C  C12  1  0.66252000  0.02388000  0.08568000  1
  C  C13  1  0.41125000  0.02368000  0.08657000  1
  C  C14  1  0.15144000  0.08669000  0.02363000  1
  C  C15  1  0.05382000  0.70112000  0.41434000  1
  C  C16  1  0.36052000  0.41434000  0.71322000  1
  C  C17  1  0.42316000  0.08568000  0.06180000  1
  C  C18  1  0.16444000  0.06250000  0.08562000  1
  C  C19  1  0.67532000  0.08657000  0.06289000  1
  C  C20  1  0.93525000  0.06306000  0.08669000  1
  C  C21  1  0.17148000  0.90852000  0.25862000  1
  C  C22  1  0.47465000  0.26005000  0.91380000  1
  C  C23  1  0.13950000  0.20529000  0.99641000  1
  C  C24  1  0.41440000  0.20970000  0.99880000  1
  C  C25  1  0.41560000  0.00120000  0.21090000  1
  C  C26  1  0.14309000  0.00359000  0.20888000  1
  C  C27  1  0.19391000  0.88808000  0.32985000  1
  C  C28  1  0.50810000  0.33010000  0.89400000  1
  C  C29  1  0.18793000  0.17771000  0.04778000  1
  C  C30  1  0.45954000  0.04837000  0.17795000  1
  C  C31  1  0.86406000  0.67015000  0.55823000  1
  C  C32  1  0.17800000  0.56390000  0.66990000  1
  C  C33  1  0.44353000  0.27291000  0.97978000  1
  C  C34  1  0.15817000  0.98217000  0.27224000  1
  C  C35  1  0.71841000  0.17795000  0.12958000  1
  C  C36  1  0.98978000  0.12993000  0.17771000  1
  C  C37  1  0.17600000  0.29007000  0.01783000  1
  C  C38  1  0.46375000  0.02022000  0.29313000  1
  C  C39  1  0.55495000  0.11563000  0.23132000  1
  C  C40  1  0.67637000  0.23133333  0.11567667  1
  C  C41  1  0.96765000  0.11622000  0.24083000  1
  C  C42  1  0.27318000  0.24083000  0.12461000  1
  C  C43  1  0.91286000  0.74138000  0.64990000  1
  C  C44  1  0.21460000  0.65375000  0.73995000  1
  C  C45  1  0.06579000  0.20888000  0.20529000  1
  C  C46  1  0.79530000  0.21090000  0.20970000  1
  C  C47  1  0.56085000  0.08620000  0.34625000  1
  C  C48  1  0.17062000  0.70687000  0.72709000  1
  C  C49  1  0.88593000  0.72776000  0.70993000  1
  C  C50  1  0.26296000  0.35010000  0.09148000  1
  C  C51  1  0.69417000  0.55823000  0.88808000  1
  C  C52  1  0.60528000  0.13461000  0.31443000  1
  C  C53  1  0.38590000  0.89400000  0.56390000  1
  C  C54  1  0.31035000  0.32491000  0.14604000  1
  C  C55  1  0.70915000  0.31443000  0.17982000  1
  C  C56  1  0.98544000  0.82113000  0.67509000  1
  C  C57  1  0.01456000  0.17887000  0.32491000  1
  C  C58  1  0.29085000  0.68557000  0.82018000  1
  C  C59  1  0.68965000  0.67509000  0.85396000  1
  C  C60  1  0.61410000  0.10600000  0.43610000  1
  C  C61  1  0.39472000  0.86539000  0.68557000  1
  C  C62  1  0.30583000  0.44177000  0.11192000  1
  C  C63  1  0.73704000  0.64990000  0.90852000  1
  C  C64  1  0.11407000  0.27224000  0.29007000  1
  C  C65  1  0.82938000  0.29313000  0.27291000  1
  C  C66  1  0.43915000  0.91380000  0.65375000  1
  C  C67  1  0.20470000  0.78910000  0.79030000  1
  C  C68  1  0.93421000  0.79112000  0.79471000  1
  C  C69  1  0.78540000  0.34625000  0.26005000  1
  C  C70  1  0.08714000  0.25862000  0.35010000  1
  C  C71  1  0.72682000  0.75917000  0.87539000  1
  C  C72  1  0.03235000  0.88378000  0.75917000  1
  C  C73  1  0.32363000  0.76866667  0.88432333  1
  C  C74  1  0.44505000  0.88437000  0.76868000  1
  C  C75  1  0.53625000  0.97978000  0.70687000  1
  C  C76  1  0.82400000  0.70993000  0.98217000  1
  C  C77  1  0.01022000  0.87007000  0.82229000  1
  C  C78  1  0.28159000  0.82205000  0.87042000  1
  C  C79  1  0.84183000  0.01783000  0.72776000  1
  C  C80  1  0.55647000  0.72709000  0.02022000  1
  C  C81  1  0.82200000  0.43610000  0.33010000  1
  C  C82  1  0.13594000  0.32985000  0.44177000  1
  C  C83  1  0.54046000  0.95163000  0.82205000  1
  C  C84  1  0.81207000  0.82229000  0.95222000  1
  C  C85  1  0.49190000  0.66990000  0.10600000  1
  C  C86  1  0.80609000  0.11192000  0.67015000  1
  C  C87  1  0.85691000  0.99641000  0.79112000  1
  C  C88  1  0.58440000  0.99880000  0.78910000  1
  C  C89  1  0.58560000  0.79030000  0.00120000  1
  C  C90  1  0.86050000  0.79471000  0.00359000  1
  C  C91  1  0.52535000  0.73995000  0.08620000  1
  C  C92  1  0.82852000  0.09148000  0.74138000  1
  C  C93  1  0.06475000  0.93694000  0.91331000  1
  C  C94  1  0.32468000  0.91343000  0.93711000  1
  C  C95  1  0.83556000  0.93750000  0.91438000  1
  C  C96  1  0.57684000  0.91432000  0.93820000  1
  C  C97  1  0.63948000  0.58566000  0.28678000  1
  C  C98  1  0.94618000  0.29888000  0.58566000  1
  C  C99  1  0.84856000  0.91331000  0.97637000  1
  C  C100  1  0.58875000  0.97632000  0.91343000  1
  C  C101  1  0.33748000  0.97612000  0.91432000  1
  C  C102  1  0.07882000  0.91438000  0.97688000  1
  C  C103  1  0.85985000  0.04778000  0.87007000  1
  C  C104  1  0.58883000  0.87042000  0.04837000  1
  C  C105  1  0.52933000  0.82018000  0.13461000  1
  C  C106  1  0.87219000  0.02363000  0.93694000  1
  C  C107  1  0.10194000  0.02312000  0.93750000  1
  C  C108  1  0.61243000  0.93711000  0.02368000  1
  C  C109  1  0.36136000  0.93820000  0.02388000  1
  C  C110  1  0.83569000  0.14604000  0.82113000  1
  C  C111  1  0.64730000  0.28678000  0.70112000  1
  C  C112  1  0.14857000  0.87539000  0.11622000  1
  C  C113  1  0.56069333  0.88433667  0.11564333  1
  H  H114  1  0.51090000  0.83070000  0.17980000  1
  H  H115  1  0.61600000  0.24590000  0.77440000  1
  H  H116  1  0.82980000  0.19680000  0.83160000  1
  H  H117  1  0.64780000  0.10330000  0.96030000  1
  H  H118  1  0.90620000  0.96140000  0.10420000  1
  H  H119  1  0.32930000  0.79630000  0.27040000  1
  H  H120  1  0.56280000  0.93740000  0.14840000  1
  H  H121  1  0.85670000  0.16170000  0.93660000  1
  H  H122  1  0.08140000  0.16570000  0.94660000  1
  H  H123  1  0.35200000  0.95590000  0.17610000  1
  H  H124  1  0.94480000  0.14280000  0.03860000  1
  H  H125  1  0.68750000  0.03970000  0.14300000  1
  H  H126  1  0.45550000  0.14300000  0.10330000  1
  H  H127  1  0.19800000  0.10420000  0.14280000  1
  H  H128  1  0.05890000  0.72960000  0.52590000  1
  H  H129  1  0.39610000  0.22020000  0.04410000  1
  H  H130  1  0.13480000  0.05340000  0.21910000  1
  H  H131  1  0.62540000  0.21100000  0.06260000  1
  H  H132  1  0.37010000  0.52850000  0.75410000  1
  H  H133  1  0.92010000  0.06340000  0.22510000  1
  H  H134  1  0.14210000  0.30680000  0.98280000  1
  H  H135  1  0.43150000  0.98890000  0.31380000  1
  H  H136  1  0.15840000  0.77440000  0.52850000  1
  H  H137  1  0.46700000  0.52590000  0.79630000  1
  H  H138  1  0.44260000  0.32490000  0.01110000  1
  H  H139  1  0.15930000  0.01720000  0.32400000  1
  H  H140  1  0.58560000  0.14840000  0.21100000  1
  H  H141  1  0.11770000  0.68620000  0.67510000  1
  H  H142  1  0.83530000  0.67600000  0.69320000  1
  H  H143  1  0.08430000  0.21910000  0.16570000  1
  H  H144  1  0.30500000  0.22510000  0.16170000  1
  H  H145  1  0.82410000  0.17610000  0.22020000  1
  H  H146  1  0.63300000  0.63480000  0.80320000  1
  H  H147  1  0.00180000  0.83160000  0.63480000  1
  H  H148  1  0.33110000  0.82020000  0.65090000  1
  H  H149  1  0.31980000  0.65090000  0.83070000  1
  H  H150  1  0.68020000  0.34910000  0.16930000  1
  H  H151  1  0.66890000  0.17980000  0.34910000  1
  H  H152  1  0.99820000  0.16840000  0.36520000  1
  H  H153  1  0.36700000  0.36520000  0.19680000  1
  H  H154  1  0.17590000  0.82390000  0.77980000  1
  H  H155  1  0.69500000  0.77490000  0.83830000  1
  H  H156  1  0.91570000  0.78090000  0.83430000  1
  H  H157  1  0.16470000  0.32400000  0.30680000  1
  H  H158  1  0.88230000  0.31380000  0.32490000  1
  H  H159  1  0.41440000  0.85160000  0.78900000  1
  H  H160  1  0.84070000  0.98280000  0.67600000  1
  H  H161  1  0.55740000  0.67510000  0.98890000  1
  H  H162  1  0.53300000  0.47410000  0.20370000  1
  H  H163  1  0.84160000  0.22560000  0.47150000  1
  H  H164  1  0.56850000  0.01110000  0.68620000  1
  H  H165  1  0.85790000  0.69320000  0.01720000  1
  H  H166  1  0.07990000  0.93660000  0.77490000  1
  H  H167  1  0.62990000  0.47150000  0.24590000  1
  H  H168  1  0.37460000  0.78900000  0.93740000  1
  H  H169  1  0.86520000  0.94660000  0.78090000  1
  H  H170  1  0.60390000  0.77980000  0.95590000  1
  H  H171  1  0.94110000  0.27040000  0.47410000  1
  H  H172  1  0.80200000  0.89580000  0.85720000  1
  H  H173  1  0.54450000  0.85700000  0.89670000  1
  H  H174  1  0.31250000  0.96030000  0.85700000  1
  H  H175  1  0.05520000  0.85720000  0.96140000  1
  H  H176  1  0.64800000  0.04410000  0.82390000  1
  H  H177  1  0.91860000  0.83430000  0.05340000  1
  H  H178  1  0.14330000  0.83830000  0.06340000  1
  H  H179  1  0.43720000  0.06260000  0.85160000  1
  H  H180  1  0.67070000  0.20370000  0.72960000  1
  H  H181  1  0.09380000  0.03860000  0.89580000  1
  H  H182  1  0.35220000  0.89670000  0.03970000  1
  H  H183  1  0.17020000  0.80320000  0.16840000  1
  H  H184  1  0.38400000  0.75410000  0.22560000  1
  H  H185  1  0.48910000  0.16930000  0.82020000  1
  N  N186  1  0.95896000  0.64156000  0.36422000  1
  N  N187  1  0.35570000  0.76020000  0.26030000  1
  N  N188  1  0.26479000  0.36772000  0.65565000  1
  N  N189  1  0.62250000  0.37110000  0.65700000  1
  N  N190  1  0.66657000  0.71644000  0.33117000  1
  N  N191  1  0.33540000  0.66883000  0.38527000  1
  N  N192  1  0.60914000  0.34435000  0.71207000  1
  N  N193  1  0.96550000  0.34300000  0.71410000  1
  N  N194  1  0.10293000  0.71207000  0.36772000  1
  N  N195  1  0.31740000  0.72266000  0.35844000  1
  N  N196  1  0.74860000  0.71410000  0.37110000  1
  N  N197  1  0.40526000  0.36422000  0.72266000  1
  N  N198  1  0.04987000  0.38527000  0.71644000  1
  N  N199  1  0.09540000  0.73970000  0.49990000  1
  N  N200  1  0.40450000  0.49990000  0.76020000  1
  N  N201  1  0.59550000  0.50010000  0.23980000  1
  N  N202  1  0.90460000  0.26030000  0.50010000  1
  N  N203  1  0.95013000  0.61473000  0.28356000  1
  N  N204  1  0.59474000  0.63578000  0.27734000  1
  N  N205  1  0.25140000  0.28590000  0.62890000  1
  N  N206  1  0.68260000  0.27734000  0.64156000  1
  N  N207  1  0.89707000  0.28793000  0.63228000  1
  N  N208  1  0.03450000  0.65700000  0.28590000  1
  N  N209  1  0.39086000  0.65565000  0.28793000  1
  N  N210  1  0.66460000  0.33117000  0.61473000  1
  N  N211  1  0.33343000  0.28356000  0.66883000  1
  N  N212  1  0.37750000  0.62890000  0.34300000  1
  N  N213  1  0.73521000  0.63228000  0.34435000  1
  N  N214  1  0.64430000  0.23980000  0.73970000  1
  N  N215  1  0.04104000  0.35844000  0.63578000  1
  O  O216  1  0.10358000  0.53258000  0.60306000  1
  O  O217  1  0.78469000  0.60762000  0.53025000  1
  O  O218  1  0.23082000  0.83280000  0.31946000  1
  O  O219  1  0.54384000  0.31519000  0.83853000  1
  O  O220  1  0.91136000  0.68054000  0.51334000  1
  O  O221  1  0.22865000  0.52334000  0.68481000  1
  O  O222  1  0.17707000  0.92263000  0.39238000  1
  O  O223  1  0.50052000  0.39694000  0.92952000  1
  O  O224  1  0.60198000  0.51334000  0.83280000  1
  O  O225  1  0.29469000  0.83853000  0.52334000  1
  O  O226  1  0.74556000  0.53025000  0.92263000  1
  O  O227  1  0.42900000  0.92952000  0.53258000  1
  O  O228  1  0.57100000  0.07048000  0.46742000  1
  O  O229  1  0.25444000  0.46975000  0.07737000  1
  O  O230  1  0.70531000  0.16147000  0.47666000  1
  O  O231  1  0.39802000  0.48666000  0.16720000  1
  O  O232  1  0.49948000  0.60306000  0.07048000  1
  O  O233  1  0.82293000  0.07737000  0.60762000  1
  O  O234  1  0.77135000  0.47666000  0.31519000  1
  O  O235  1  0.08864000  0.31946000  0.48666000  1
  O  O236  1  0.45616000  0.68481000  0.16147000  1
  O  O237  1  0.76918000  0.16720000  0.68054000  1
  O  O238  1  0.21531000  0.39238000  0.46975000  1
  O  O239  1  0.89642000  0.46742000  0.39694000  1
  Zn  Zn240  1  0.15662000  0.40047000  0.60875000  1
  Zn  Zn241  1  0.54787000  0.39125000  0.79172000  1
  Zn  Zn242  1  0.24385000  0.79172000  0.40047000  1
  Zn  Zn243  1  0.75615000  0.20828000  0.59953000  1
  Zn  Zn244  1  0.45213000  0.60875000  0.20828000  1
  Zn  Zn245  1  0.84338000  0.59953000  0.39125000  1
