# generated using pymatgen
data_AgH10(C2N)6
_symmetry_space_group_name_H-M   'P 1'
_cell_length_a   10.36050000
_cell_length_b   10.52240000
_cell_length_c   15.01400000
_cell_angle_alpha   89.97900000
_cell_angle_beta   76.65600000
_cell_angle_gamma   89.98000000
_symmetry_Int_Tables_number   1
_chemical_formula_structural   AgH10(C2N)6
_chemical_formula_sum   'Ag4 H40 C48 N24'
_cell_volume   1592.59587264
_cell_formula_units_Z   4
loop_
 _symmetry_equiv_pos_site_id
 _symmetry_equiv_pos_as_xyz
  1  'x, y, z'
loop_
 _atom_site_type_symbol
 _atom_site_label
 _atom_site_symmetry_multiplicity
 _atom_site_fract_x
 _atom_site_fract_y
 _atom_site_fract_z
 _atom_site_occupancy
  Ag  Ag0  1  0.36222000  0.88787000  0.98461000  1
  Ag  Ag1  1  0.36223000  0.61213000  0.48461000  1
  Ag  Ag2  1  0.63777000  0.38787000  0.51539000  1
  Ag  Ag3  1  0.63778000  0.11213000  0.01539000  1
  H  H4  1  0.02300000  0.55800000  0.28300000  1
  H  H5  1  0.02900000  0.94300000  0.77900000  1
  H  H6  1  0.07300000  0.69700000  0.55800000  1
  H  H7  1  0.07900000  0.81400000  0.06400000  1
  H  H8  1  0.09900000  0.21500000  0.74800000  1
  H  H9  1  0.10300000  0.17400000  0.30700000  1
  H  H10  1  0.11500000  0.30800000  0.78700000  1
  H  H11  1  0.11800000  0.28100000  0.25600000  1
  H  H12  1  0.13400000  0.31600000  0.47400000  1
  H  H13  1  0.13600000  0.19100000  0.96900000  1
  H  H14  1  0.22500000  0.55500000  0.31900000  1
  H  H15  1  0.23400000  0.93800000  0.81300000  1
  H  H16  1  0.32200000  0.90000000  0.21300000  1
  H  H17  1  0.32400000  0.58700000  0.71500000  1
  H  H18  1  0.34000000  0.12100000  0.35800000  1
  H  H19  1  0.34200000  0.38100000  0.85600000  1
  H  H20  1  0.42200000  0.83400000  0.32600000  1
  H  H21  1  0.42600000  0.66300000  0.82100000  1
  H  H22  1  0.44300000  0.19100000  0.46700000  1
  H  H23  1  0.44600000  0.31100000  0.96500000  1
  H  H24  1  0.55400000  0.68900000  0.03500000  1
  H  H25  1  0.55700000  0.80900000  0.53300000  1
  H  H26  1  0.57400000  0.33700000  0.17900000  1
  H  H27  1  0.57800000  0.16600000  0.67400000  1
  H  H28  1  0.65800000  0.61900000  0.14400000  1
  H  H29  1  0.66000000  0.87900000  0.64200000  1
  H  H30  1  0.67600000  0.41300000  0.28500000  1
  H  H31  1  0.67800000  0.10000000  0.78700000  1
  H  H32  1  0.76600000  0.06200000  0.18700000  1
  H  H33  1  0.77500000  0.44500000  0.68100000  1
  H  H34  1  0.86400000  0.80900000  0.03100000  1
  H  H35  1  0.86600000  0.68400000  0.52600000  1
  H  H36  1  0.88200000  0.71900000  0.74400000  1
  H  H37  1  0.88500000  0.69200000  0.21300000  1
  H  H38  1  0.89700000  0.82600000  0.69300000  1
  H  H39  1  0.90100000  0.78500000  0.25200000  1
  H  H40  1  0.92100000  0.18600000  0.93600000  1
  H  H41  1  0.92700000  0.30300000  0.44200000  1
  H  H42  1  0.97100000  0.05700000  0.22100000  1
  H  H43  1  0.97700000  0.44200000  0.71700000  1
  C  C44  1  0.03160000  0.91230000  0.83680000  1
  C  C45  1  0.03270000  0.58860000  0.33670000  1
  C  C46  1  0.06030000  0.66380000  0.50330000  1
  C  C47  1  0.06060000  0.83630000  0.00310000  1
  C  C48  1  0.06390000  0.33420000  0.51420000  1
  C  C49  1  0.06430000  0.16580000  0.01330000  1
  C  C50  1  0.07950000  0.37220000  0.59880000  1
  C  C51  1  0.08000000  0.12800000  0.09880000  1
  C  C52  1  0.15230000  0.91060000  0.86070000  1
  C  C53  1  0.15280000  0.58910000  0.36080000  1
  C  C54  1  0.21190000  0.13360000  0.11940000  1
  C  C55  1  0.21190000  0.36630000  0.61930000  1
  C  C56  1  0.37130000  0.18150000  0.18420000  1
  C  C57  1  0.37230000  0.31800000  0.68400000  1
  C  C58  1  0.39000000  0.84430000  0.20010000  1
  C  C59  1  0.39030000  0.65480000  0.70030000  1
  C  C60  1  0.40680000  0.32150000  0.84140000  1
  C  C61  1  0.40700000  0.17810000  0.34150000  1
  C  C62  1  0.44300000  0.27570000  0.75340000  1
  C  C63  1  0.44350000  0.22410000  0.25300000  1
  C  C64  1  0.45090000  0.80790000  0.26920000  1
  C  C65  1  0.45120000  0.69220000  0.76840000  1
  C  C66  1  0.47480000  0.28030000  0.90540000  1
  C  C67  1  0.47510000  0.21950000  0.40470000  1
  C  C68  1  0.52490000  0.78050000  0.59530000  1
  C  C69  1  0.52520000  0.71970000  0.09460000  1
  C  C70  1  0.54880000  0.30780000  0.23160000  1
  C  C71  1  0.54910000  0.19210000  0.73080000  1
  C  C72  1  0.55650000  0.77590000  0.74700000  1
  C  C73  1  0.55700000  0.72430000  0.24660000  1
  C  C74  1  0.59300000  0.82190000  0.65850000  1
  C  C75  1  0.59320000  0.67850000  0.15860000  1
  C  C76  1  0.60970000  0.34520000  0.29970000  1
  C  C77  1  0.61000000  0.15570000  0.79990000  1
  C  C78  1  0.62770000  0.68200000  0.31600000  1
  C  C79  1  0.62870000  0.81850000  0.81580000  1
  C  C80  1  0.78810000  0.63370000  0.38070000  1
  C  C81  1  0.78810000  0.86640000  0.88060000  1
  C  C82  1  0.84720000  0.41090000  0.63920000  1
  C  C83  1  0.84770000  0.08940000  0.13930000  1
  C  C84  1  0.92000000  0.87200000  0.90120000  1
  C  C85  1  0.92050000  0.62780000  0.40120000  1
  C  C86  1  0.93570000  0.83420000  0.98670000  1
  C  C87  1  0.93610000  0.66580000  0.48580000  1
  C  C88  1  0.93940000  0.16370000  0.99690000  1
  C  C89  1  0.93970000  0.33620000  0.49670000  1
  C  C90  1  0.96730000  0.41140000  0.66330000  1
  C  C91  1  0.96840000  0.08770000  0.16320000  1
  N  N92  1  0.15090000  0.23840000  0.27300000  1
  N  N93  1  0.15130000  0.25950000  0.77230000  1
  N  N94  1  0.16870000  0.62700000  0.44180000  1
  N  N95  1  0.16900000  0.87330000  0.94170000  1
  N  N96  1  0.23830000  0.31760000  0.69720000  1
  N  N97  1  0.23840000  0.18250000  0.19700000  1
  N  N98  1  0.32250000  0.39870000  0.56270000  1
  N  N99  1  0.32300000  0.10130000  0.06220000  1
  N  N100  1  0.42470000  0.13240000  0.10410000  1
  N  N101  1  0.42520000  0.36740000  0.60410000  1
  N  N102  1  0.42640000  0.80370000  0.11400000  1
  N  N103  1  0.42680000  0.69610000  0.61410000  1
  N  N104  1  0.57320000  0.30390000  0.38590000  1
  N  N105  1  0.57360000  0.19630000  0.88600000  1
  N  N106  1  0.57480000  0.63260000  0.39590000  1
  N  N107  1  0.57530000  0.86760000  0.89590000  1
  N  N108  1  0.67700000  0.89870000  0.93780000  1
  N  N109  1  0.67750000  0.60130000  0.43730000  1
  N  N110  1  0.76160000  0.81750000  0.80300000  1
  N  N111  1  0.76170000  0.68240000  0.30280000  1
  N  N112  1  0.83100000  0.12670000  0.05830000  1
  N  N113  1  0.83130000  0.37300000  0.55820000  1
  N  N114  1  0.84870000  0.74050000  0.22770000  1
  N  N115  1  0.84910000  0.76160000  0.72700000  1
