# generated using pymatgen
data_CdH2C8S(NO2)2
_symmetry_space_group_name_H-M   'P 1'
_cell_length_a   13.05511789
_cell_length_b   13.05511789
_cell_length_c   13.05511789
_cell_angle_alpha   97.80188372
_cell_angle_beta   97.80188372
_cell_angle_gamma   97.80188372
_symmetry_Int_Tables_number   1
_chemical_formula_structural   CdH2C8S(NO2)2
_chemical_formula_sum   'Cd6 H12 C48 S6 N12 O24'
_cell_volume   2156.95117145
_cell_formula_units_Z   6
loop_
 _symmetry_equiv_pos_site_id
 _symmetry_equiv_pos_as_xyz
  1  'x, y, z'
loop_
 _atom_site_type_symbol
 _atom_site_label
 _atom_site_symmetry_multiplicity
 _atom_site_fract_x
 _atom_site_fract_y
 _atom_site_fract_z
 _atom_site_occupancy
  C  C0  1  0.66740000  0.81300000  0.51400000  1
  C  C1  1  0.88940000  0.44900000  0.30420000  1
  C  C2  1  0.13622000  0.61272000  0.62412000  1
  C  C3  1  0.94622000  0.35412000  0.43922000  1
  C  C4  1  0.29200000  0.99540000  0.47910000  1
  C  C5  1  0.35272000  0.07782000  0.45092000  1
  C  C6  1  0.99540000  0.47910000  0.29200000  1
  C  C7  1  0.24846000  0.64644000  0.61367000  1
  C  C8  1  0.30420000  0.88940000  0.44900000  1
  C  C9  1  0.05311000  0.38732000  0.42873000  1
  C  C10  1  0.38732000  0.42873000  0.05311000  1
  C  C11  1  0.55100000  0.69580000  0.11060000  1
  C  C12  1  0.35412000  0.43922000  0.94622000  1
  C  C13  1  0.52090000  0.70800000  0.00460000  1
  C  C14  1  0.61367000  0.24846000  0.64644000  1
  C  C15  1  0.07782000  0.45092000  0.35272000  1
  C  C16  1  0.42873000  0.05311000  0.38732000  1
  C  C17  1  0.56078000  0.05378000  0.64588000  1
  C  C18  1  0.64644000  0.61367000  0.24846000  1
  C  C19  1  0.81300000  0.51400000  0.66740000  1
  C  C20  1  0.48600000  0.33260000  0.18700000  1
  C  C21  1  0.61272000  0.62412000  0.13622000  1
  C  C22  1  0.45092000  0.35272000  0.07782000  1
  C  C23  1  0.62412000  0.13622000  0.61272000  1
  C  C24  1  0.37588000  0.86378000  0.38728000  1
  C  C25  1  0.54908000  0.64728000  0.92218000  1
  C  C26  1  0.38728000  0.37588000  0.86378000  1
  C  C27  1  0.51400000  0.66740000  0.81300000  1
  C  C28  1  0.18700000  0.48600000  0.33260000  1
  C  C29  1  0.35356000  0.38633000  0.75154000  1
  C  C30  1  0.43922000  0.94622000  0.35412000  1
  C  C31  1  0.57127000  0.94689000  0.61268000  1
  C  C32  1  0.92218000  0.54908000  0.64728000  1
  C  C33  1  0.38633000  0.75154000  0.35356000  1
  C  C34  1  0.47910000  0.29200000  0.99540000  1
  C  C35  1  0.64588000  0.56078000  0.05378000  1
  C  C36  1  0.44900000  0.30420000  0.88940000  1
  C  C37  1  0.61268000  0.57127000  0.94689000  1
  C  C38  1  0.94689000  0.61268000  0.57127000  1
  C  C39  1  0.69580000  0.11060000  0.55100000  1
  C  C40  1  0.75154000  0.35356000  0.38633000  1
  C  C41  1  0.00460000  0.52090000  0.70800000  1
  C  C42  1  0.64728000  0.92218000  0.54908000  1
  C  C43  1  0.70800000  0.00460000  0.52090000  1
  C  C44  1  0.05378000  0.64588000  0.56078000  1
  C  C45  1  0.86378000  0.38728000  0.37588000  1
  C  C46  1  0.11060000  0.55100000  0.69580000  1
  C  C47  1  0.33260000  0.18700000  0.48600000  1
  Cd  Cd48  1  0.60340000  0.45946000  0.69655000  1
  Cd  Cd49  1  0.69655000  0.60340000  0.45946000  1
  Cd  Cd50  1  0.54054000  0.30345000  0.39660000  1
  Cd  Cd51  1  0.45946000  0.69655000  0.60340000  1
  Cd  Cd52  1  0.30345000  0.39660000  0.54054000  1
  Cd  Cd53  1  0.39660000  0.54054000  0.30345000  1
  H  H54  1  0.75940000  0.99080000  0.48060000  1
  H  H55  1  0.16360000  0.52790000  0.73760000  1
  H  H56  1  0.52790000  0.73760000  0.16360000  1
  H  H57  1  0.48060000  0.75940000  0.99080000  1
  H  H58  1  0.26240000  0.83640000  0.47210000  1
  H  H59  1  0.00920000  0.51940000  0.24060000  1
  H  H60  1  0.99080000  0.48060000  0.75940000  1
  H  H61  1  0.73760000  0.16360000  0.52790000  1
  H  H62  1  0.51940000  0.24060000  0.00920000  1
  H  H63  1  0.47210000  0.26240000  0.83640000  1
  H  H64  1  0.83640000  0.47210000  0.26240000  1
  H  H65  1  0.24060000  0.00920000  0.51940000  1
  N  N66  1  0.93593000  0.29298000  0.51368000  1
  N  N67  1  0.35144000  0.49779000  0.12040000  1
  N  N68  1  0.29298000  0.51368000  0.93593000  1
  N  N69  1  0.48632000  0.06407000  0.70702000  1
  N  N70  1  0.12040000  0.35144000  0.49779000  1
  N  N71  1  0.50221000  0.87960000  0.64856000  1
  N  N72  1  0.49779000  0.12040000  0.35144000  1
  N  N73  1  0.87960000  0.64856000  0.50221000  1
  N  N74  1  0.51368000  0.93593000  0.29298000  1
  N  N75  1  0.70702000  0.48632000  0.06407000  1
  N  N76  1  0.64856000  0.50221000  0.87960000  1
  N  N77  1  0.06407000  0.70702000  0.48632000  1
  O  O78  1  0.37830000  0.26389000  0.44981000  1
  O  O79  1  0.28110000  0.74128000  0.62002000  1
  O  O80  1  0.72916000  0.79959000  0.45119000  1
  O  O81  1  0.62002000  0.28110000  0.74128000  1
  O  O82  1  0.57716000  0.60151000  0.30746000  1
  O  O83  1  0.44981000  0.37830000  0.26389000  1
  O  O84  1  0.73611000  0.55019000  0.62170000  1
  O  O85  1  0.60151000  0.30746000  0.57716000  1
  O  O86  1  0.45119000  0.72916000  0.79959000  1
  O  O87  1  0.25872000  0.37998000  0.71890000  1
  O  O88  1  0.79959000  0.45119000  0.72916000  1
  O  O89  1  0.30746000  0.57716000  0.60151000  1
  O  O90  1  0.69254000  0.42284000  0.39849000  1
  O  O91  1  0.20041000  0.54881000  0.27084000  1
  O  O92  1  0.74128000  0.62002000  0.28110000  1
  O  O93  1  0.54881000  0.27084000  0.20041000  1
  O  O94  1  0.39849000  0.69254000  0.42284000  1
  O  O95  1  0.26389000  0.44981000  0.37830000  1
  O  O96  1  0.55019000  0.62170000  0.73611000  1
  O  O97  1  0.42284000  0.39849000  0.69254000  1
  O  O98  1  0.37998000  0.71890000  0.25872000  1
  O  O99  1  0.27084000  0.20041000  0.54881000  1
  O  O100  1  0.71890000  0.25872000  0.37998000  1
  O  O101  1  0.62170000  0.73611000  0.55019000  1
  S  S102  1  0.71900000  0.43535000  0.94832000  1
  S  S103  1  0.43535000  0.94832000  0.71900000  1
  S  S104  1  0.05168000  0.28100000  0.56465000  1
  S  S105  1  0.94832000  0.71900000  0.43535000  1
  S  S106  1  0.56465000  0.05168000  0.28100000  1
  S  S107  1  0.28100000  0.56465000  0.05168000  1
