# generated using pymatgen
data_FeCuH24C30S2(N2O3)2
_symmetry_space_group_name_H-M   'P 1'
_cell_length_a   11.69210000
_cell_length_b   11.84290000
_cell_length_c   13.48290000
_cell_angle_alpha   90.00000000
_cell_angle_beta   90.00000000
_cell_angle_gamma   90.00000000
_symmetry_Int_Tables_number   1
_chemical_formula_structural   FeCuH24C30S2(N2O3)2
_chemical_formula_sum   'Fe2 Cu2 H48 C60 S4 N8 O12'
_cell_volume   1866.95520057
_cell_formula_units_Z   2
loop_
 _symmetry_equiv_pos_site_id
 _symmetry_equiv_pos_as_xyz
  1  'x, y, z'
loop_
 _atom_site_type_symbol
 _atom_site_label
 _atom_site_symmetry_multiplicity
 _atom_site_fract_x
 _atom_site_fract_y
 _atom_site_fract_z
 _atom_site_occupancy
  Fe  Fe0  1  0.21339000  1.00000000  0.50000000  1
  Fe  Fe1  1  0.78661000  0.50000000  0.00000000  1
  Cu  Cu2  1  0.28270000  0.00000000  0.00000000  1
  Cu  Cu3  1  0.71730000  0.50000000  0.50000000  1
  H  H4  1  0.05700000  0.04950000  0.64440000  1
  H  H5  1  0.86820000  0.07640000  0.86830000  1
  H  H6  1  0.06550000  0.07860000  0.87110000  1
  H  H7  1  0.86250000  0.08250000  0.56860000  1
  H  H8  1  0.50000000  0.08390000  0.12490000  1
  H  H9  1  0.69680000  0.08490000  0.12790000  1
  H  H10  1  0.56360000  0.08750000  0.42890000  1
  H  H11  1  0.39430000  0.10760000  0.58050000  1
  H  H12  1  0.06880000  0.17590000  0.49350000  1
  H  H13  1  0.27590000  0.21620000  0.45910000  1
  H  H14  1  0.42770000  0.21660000  0.92750000  1
  H  H15  1  0.14360000  0.22390000  0.07640000  1
  H  H16  1  0.85640000  0.27610000  0.57640000  1
  H  H17  1  0.57230000  0.28340000  0.42750000  1
  H  H18  1  0.72410000  0.28380000  0.95910000  1
  H  H19  1  0.93120000  0.32410000  0.99350000  1
  H  H20  1  0.60570000  0.39240000  0.08050000  1
  H  H21  1  0.43640000  0.41250000  0.92890000  1
  H  H22  1  0.30320000  0.41510000  0.62790000  1
  H  H23  1  0.50000000  0.41610000  0.62490000  1
  H  H24  1  0.13750000  0.41750000  0.06860000  1
  H  H25  1  0.93450000  0.42140000  0.37110000  1
  H  H26  1  0.13180000  0.42360000  0.36830000  1
  H  H27  1  0.94300000  0.45050000  0.14440000  1
  H  H28  1  0.94300000  0.54950000  0.85560000  1
  H  H29  1  0.13180000  0.57640000  0.63170000  1
  H  H30  1  0.93450000  0.57860000  0.62890000  1
  H  H31  1  0.13750000  0.58250000  0.93140000  1
  H  H32  1  0.50000000  0.58390000  0.37510000  1
  H  H33  1  0.30320000  0.58490000  0.37210000  1
  H  H34  1  0.43640000  0.58750000  0.07110000  1
  H  H35  1  0.60570000  0.60760000  0.91950000  1
  H  H36  1  0.93120000  0.67590000  0.00650000  1
  H  H37  1  0.72410000  0.71620000  0.04090000  1
  H  H38  1  0.57230000  0.71660000  0.57250000  1
  H  H39  1  0.85640000  0.72390000  0.42360000  1
  H  H40  1  0.14360000  0.77610000  0.92360000  1
  H  H41  1  0.42770000  0.78340000  0.07250000  1
  H  H42  1  0.27590000  0.78380000  0.54090000  1
  H  H43  1  0.06880000  0.82410000  0.50650000  1
  H  H44  1  0.39430000  0.89240000  0.41950000  1
  H  H45  1  0.56360000  0.91250000  0.57110000  1
  H  H46  1  0.69680000  0.91510000  0.87210000  1
  H  H47  1  0.50000000  0.91610000  0.87510000  1
  H  H48  1  0.86250000  0.91750000  0.43140000  1
  H  H49  1  0.06550000  0.92140000  0.12890000  1
  H  H50  1  0.86820000  0.92360000  0.13170000  1
  H  H51  1  0.05700000  0.95050000  0.35560000  1
  C  C52  1  0.72050000  0.00000000  0.00000000  1
  C  C53  1  0.84610000  0.00000000  0.00000000  1
  C  C54  1  0.90700000  0.04570000  0.92210000  1
  C  C55  1  0.02570000  0.04610000  0.92350000  1
  C  C56  1  0.54000000  0.04930000  0.07360000  1
  C  C57  1  0.24080000  0.04930000  0.64070000  1
  C  C58  1  0.65860000  0.05030000  0.07560000  1
  C  C59  1  0.71240000  0.06330000  0.49960000  1
  C  C60  1  0.12320000  0.07500000  0.61340000  1
  C  C61  1  0.31490000  0.10840000  0.57760000  1
  C  C62  1  0.80050000  0.12120000  0.54180000  1
  C  C63  1  0.62530000  0.12440000  0.45790000  1
  C  C64  1  0.13050000  0.14760000  0.52930000  1
  C  C65  1  0.24800000  0.16960000  0.50900000  1
  C  C66  1  0.79720000  0.23820000  0.54460000  1
  C  C67  1  0.62960000  0.24250000  0.45910000  1
  C  C68  1  0.37040000  0.25750000  0.95910000  1
  C  C69  1  0.20280000  0.26180000  0.04460000  1
  C  C70  1  0.75200000  0.33040000  0.00900000  1
  C  C71  1  0.86950000  0.35240000  0.02930000  1
  C  C72  1  0.37470000  0.37560000  0.95790000  1
  C  C73  1  0.19950000  0.37880000  0.04180000  1
  C  C74  1  0.68510000  0.39160000  0.07760000  1
  C  C75  1  0.87680000  0.42500000  0.11340000  1
  C  C76  1  0.28760000  0.43670000  0.99960000  1
  C  C77  1  0.34140000  0.44970000  0.57560000  1
  C  C78  1  0.75920000  0.45070000  0.14070000  1
  C  C79  1  0.46000000  0.45070000  0.57360000  1
  C  C80  1  0.97430000  0.45390000  0.42350000  1
  C  C81  1  0.09300000  0.45430000  0.42210000  1
  C  C82  1  0.15390000  0.50000000  0.50000000  1
  C  C83  1  0.27950000  0.50000000  0.50000000  1
  C  C84  1  0.09300000  0.54570000  0.57790000  1
  C  C85  1  0.97430000  0.54610000  0.57650000  1
  C  C86  1  0.46000000  0.54930000  0.42640000  1
  C  C87  1  0.75920000  0.54930000  0.85930000  1
  C  C88  1  0.34140000  0.55030000  0.42440000  1
  C  C89  1  0.28760000  0.56330000  0.00040000  1
  C  C90  1  0.87680000  0.57500000  0.88660000  1
  C  C91  1  0.68510000  0.60840000  0.92240000  1
  C  C92  1  0.19950000  0.62120000  0.95820000  1
  C  C93  1  0.37470000  0.62440000  0.04210000  1
  C  C94  1  0.86950000  0.64760000  0.97070000  1
  C  C95  1  0.75200000  0.66960000  0.99100000  1
  C  C96  1  0.20280000  0.73820000  0.95540000  1
  C  C97  1  0.37040000  0.74250000  0.04090000  1
  C  C98  1  0.62960000  0.75750000  0.54090000  1
  C  C99  1  0.79720000  0.76180000  0.45540000  1
  C  C100  1  0.24800000  0.83040000  0.49100000  1
  C  C101  1  0.13050000  0.85240000  0.47070000  1
  C  C102  1  0.62530000  0.87560000  0.54210000  1
  C  C103  1  0.80050000  0.87880000  0.45820000  1
  C  C104  1  0.31490000  0.89160000  0.42240000  1
  C  C105  1  0.12320000  0.92500000  0.38660000  1
  C  C106  1  0.71240000  0.93670000  0.50040000  1
  C  C107  1  0.65860000  0.94970000  0.92440000  1
  C  C108  1  0.24080000  0.95070000  0.35930000  1
  C  C109  1  0.54000000  0.95070000  0.92640000  1
  C  C110  1  0.02570000  0.95390000  0.07650000  1
  C  C111  1  0.90700000  0.95430000  0.07790000  1
  S  S112  1  0.27910000  0.03847000  0.25981000  1
  S  S113  1  0.72090000  0.46153000  0.75981000  1
  S  S114  1  0.72090000  0.53847000  0.24019000  1
  S  S115  1  0.27910000  0.96153000  0.74019000  1
  N  N116  1  0.08450000  0.00000000  0.00000000  1
  N  N117  1  0.48130000  0.00000000  0.00000000  1
  N  N118  1  0.28530000  0.20190000  0.00470000  1
  N  N119  1  0.71470000  0.29810000  0.50470000  1
  N  N120  1  0.51870000  0.50000000  0.50000000  1
  N  N121  1  0.91550000  0.50000000  0.50000000  1
  N  N122  1  0.71470000  0.70190000  0.49530000  1
  N  N123  1  0.28530000  0.79810000  0.99530000  1
  O  O124  1  0.28470000  0.03580000  0.82750000  1
  O  O125  1  0.38900000  0.08410000  0.28580000  1
  O  O126  1  0.19140000  0.12180000  0.25040000  1
  O  O127  1  0.80860000  0.37820000  0.75040000  1
  O  O128  1  0.61100000  0.41590000  0.78580000  1
  O  O129  1  0.71530000  0.46420000  0.32750000  1
  O  O130  1  0.71530000  0.53580000  0.67250000  1
  O  O131  1  0.61100000  0.58410000  0.21420000  1
  O  O132  1  0.80860000  0.62180000  0.24960000  1
  O  O133  1  0.19140000  0.87820000  0.74960000  1
  O  O134  1  0.38900000  0.91590000  0.71420000  1
  O  O135  1  0.28470000  0.96420000  0.17250000  1
