# generated using pymatgen
data_ZnH15C11Br(NO)2
_symmetry_space_group_name_H-M   'P 1'
_cell_length_a   10.48680000
_cell_length_b   17.77860000
_cell_length_c   17.77860000
_cell_angle_alpha   120.00000000
_cell_angle_beta   90.00000000
_cell_angle_gamma   90.00000000
_symmetry_Int_Tables_number   1
_chemical_formula_structural   ZnH15C11Br(NO)2
_chemical_formula_sum   'Zn6 H90 C66 Br6 N12 O12'
_cell_volume   2870.57391995
_cell_formula_units_Z   6
loop_
 _symmetry_equiv_pos_site_id
 _symmetry_equiv_pos_as_xyz
  1  'x, y, z'
loop_
 _atom_site_type_symbol
 _atom_site_label
 _atom_site_symmetry_multiplicity
 _atom_site_fract_x
 _atom_site_fract_y
 _atom_site_fract_z
 _atom_site_occupancy
  Zn  Zn0  1  0.08943000  0.54262000  0.07043000  1
  Zn  Zn1  1  0.25609000  0.07043000  0.52781000  1
  Zn  Zn2  1  0.42276000  0.52781000  0.45738000  1
  Zn  Zn3  1  0.58943000  0.45738000  0.92957000  1
  Zn  Zn4  1  0.75609000  0.92957000  0.47219000  1
  Zn  Zn5  1  0.92276000  0.47219000  0.54262000  1
  H  H6  1  0.00770000  0.39700000  0.32690000  1
  H  H7  1  0.01220000  0.79460000  0.61260000  1
  H  H8  1  0.01323000  0.83640000  0.32270000  1
  H  H9  1  0.03157000  0.34630000  0.91960000  1
  H  H10  1  0.03540000  0.62560000  0.47230000  1
  H  H11  1  0.04017000  0.27310000  0.72600000  1
  H  H12  1  0.06230000  0.52170000  0.32540000  1
  H  H13  1  0.08847000  0.35450000  0.72200000  1
  H  H14  1  0.09207000  0.25650000  0.85340000  1
  H  H15  1  0.12397000  0.57300000  0.67640000  1
  H  H16  1  0.12937000  0.62080000  0.95200000  1
  H  H17  1  0.13630000  0.22110000  0.52310000  1
  H  H18  1  0.14213000  0.78380000  0.42010000  1
  H  H19  1  0.15083000  0.97310000  0.35140000  1
  H  H20  1  0.16433000  0.92040000  0.44630000  1
  H  H21  1  0.17437000  0.32690000  0.92990000  1
  H  H22  1  0.17887000  0.61260000  0.81800000  1
  H  H23  1  0.17990000  0.32270000  0.48630000  1
  H  H24  1  0.19823000  0.91960000  0.57330000  1
  H  H25  1  0.20207000  0.47230000  0.84670000  1
  H  H26  1  0.20683000  0.72600000  0.45290000  1
  H  H27  1  0.22897000  0.32540000  0.80370000  1
  H  H28  1  0.25513000  0.72200000  0.36750000  1
  H  H29  1  0.25873000  0.85340000  0.59690000  1
  H  H30  1  0.29063000  0.67640000  0.10340000  1
  H  H31  1  0.29603000  0.95200000  0.33120000  1
  H  H32  1  0.30297000  0.52310000  0.30200000  1
  H  H33  1  0.30880000  0.42010000  0.63630000  1
  H  H34  1  0.31750000  0.35140000  0.37830000  1
  H  H35  1  0.33100000  0.44630000  0.52590000  1
  H  H36  1  0.34103000  0.92990000  0.60300000  1
  H  H37  1  0.34553000  0.81800000  0.20540000  1
  H  H38  1  0.34657000  0.48630000  0.16360000  1
  H  H39  1  0.36490000  0.57330000  0.65370000  1
  H  H40  1  0.36873000  0.84670000  0.37440000  1
  H  H41  1  0.37350000  0.45290000  0.72690000  1
  H  H42  1  0.39563000  0.80370000  0.47830000  1
  H  H43  1  0.42180000  0.36750000  0.64550000  1
  H  H44  1  0.42540000  0.59690000  0.74350000  1
  H  H45  1  0.45730000  0.10340000  0.42700000  1
  H  H46  1  0.46270000  0.33120000  0.37920000  1
  H  H47  1  0.46963000  0.30200000  0.77890000  1
  H  H48  1  0.47547000  0.63630000  0.21620000  1
  H  H49  1  0.48417000  0.37830000  0.02690000  1
  H  H50  1  0.49767000  0.52590000  0.07960000  1
  H  H51  1  0.50770000  0.60300000  0.67310000  1
  H  H52  1  0.51220000  0.20540000  0.38740000  1
  H  H53  1  0.51323000  0.16360000  0.67730000  1
  H  H54  1  0.53157000  0.65370000  0.08040000  1
  H  H55  1  0.53540000  0.37440000  0.52770000  1
  H  H56  1  0.54017000  0.72690000  0.27400000  1
  H  H57  1  0.56230000  0.47830000  0.67460000  1
  H  H58  1  0.58847000  0.64550000  0.27800000  1
  H  H59  1  0.59207000  0.74350000  0.14660000  1
  H  H60  1  0.62397000  0.42700000  0.32360000  1
  H  H61  1  0.62937000  0.37920000  0.04800000  1
  H  H62  1  0.63630000  0.77890000  0.47690000  1
  H  H63  1  0.64213000  0.21620000  0.57990000  1
  H  H64  1  0.65083000  0.02690000  0.64860000  1
  H  H65  1  0.66433000  0.07960000  0.55370000  1
  H  H66  1  0.67437000  0.67310000  0.07010000  1
  H  H67  1  0.67887000  0.38740000  0.18200000  1
  H  H68  1  0.67990000  0.67730000  0.51370000  1
  H  H69  1  0.69823000  0.08040000  0.42670000  1
  H  H70  1  0.70207000  0.52770000  0.15330000  1
  H  H71  1  0.70683000  0.27400000  0.54710000  1
  H  H72  1  0.72897000  0.67460000  0.19630000  1
  H  H73  1  0.75513000  0.27800000  0.63250000  1
  H  H74  1  0.75873000  0.14660000  0.40310000  1
  H  H75  1  0.79063000  0.32360000  0.89660000  1
  H  H76  1  0.79603000  0.04800000  0.66880000  1
  H  H77  1  0.80297000  0.47690000  0.69800000  1
  H  H78  1  0.80880000  0.57990000  0.36370000  1
  H  H79  1  0.81750000  0.64860000  0.62170000  1
  H  H80  1  0.83100000  0.55370000  0.47410000  1
  H  H81  1  0.84103000  0.07010000  0.39700000  1
  H  H82  1  0.84553000  0.18200000  0.79460000  1
  H  H83  1  0.84657000  0.51370000  0.83640000  1
  H  H84  1  0.86490000  0.42670000  0.34630000  1
  H  H85  1  0.86873000  0.15330000  0.62560000  1
  H  H86  1  0.87350000  0.54710000  0.27310000  1
  H  H87  1  0.89563000  0.19630000  0.52170000  1
  H  H88  1  0.92180000  0.63250000  0.35450000  1
  H  H89  1  0.92540000  0.40310000  0.25650000  1
  H  H90  1  0.95730000  0.89660000  0.57300000  1
  H  H91  1  0.96270000  0.66880000  0.62080000  1
  H  H92  1  0.96963000  0.69800000  0.22110000  1
  H  H93  1  0.97547000  0.36370000  0.78380000  1
  H  H94  1  0.98417000  0.62170000  0.97310000  1
  H  H95  1  0.99767000  0.47410000  0.92040000  1
  C  C96  1  0.01240000  0.56490000  0.45190000  1
  C  C97  1  0.01827000  0.56740000  0.84330000  1
  C  C98  1  0.04713000  0.72210000  0.21850000  1
  C  C99  1  0.05157000  0.58680000  0.93370000  1
  C  C100  1  0.05457000  0.33460000  0.75920000  1
  C  C101  1  0.06867000  0.55950000  0.70880000  1
  C  C102  1  0.07213000  0.80490000  0.27890000  1
  C  C103  1  0.10177000  0.58470000  0.79460000  1
  C  C104  1  0.10797000  0.31760000  0.88890000  1
  C  C105  1  0.12880000  0.52180000  0.46910000  1
  C  C106  1  0.14897000  0.35440000  0.83170000  1
  C  C107  1  0.17907000  0.45190000  0.88700000  1
  C  C108  1  0.18493000  0.84330000  0.27590000  1
  C  C109  1  0.21380000  0.21850000  0.49640000  1
  C  C110  1  0.21823000  0.93370000  0.34690000  1
  C  C111  1  0.22123000  0.75920000  0.42460000  1
  C  C112  1  0.23533000  0.70880000  0.14930000  1
  C  C113  1  0.23880000  0.27890000  0.47400000  1
  C  C114  1  0.26843000  0.79460000  0.20990000  1
  C  C115  1  0.27463000  0.88890000  0.57130000  1
  C  C116  1  0.29547000  0.46910000  0.94730000  1
  C  C117  1  0.31563000  0.83170000  0.47730000  1
  C  C118  1  0.34573000  0.88700000  0.43510000  1
  C  C119  1  0.35160000  0.27590000  0.43260000  1
  C  C120  1  0.38047000  0.49640000  0.27790000  1
  C  C121  1  0.38490000  0.34690000  0.41320000  1
  C  C122  1  0.38790000  0.42460000  0.66540000  1
  C  C123  1  0.40200000  0.14930000  0.44050000  1
  C  C124  1  0.40547000  0.47400000  0.19510000  1
  C  C125  1  0.43510000  0.20990000  0.41530000  1
  C  C126  1  0.44130000  0.57130000  0.68240000  1
  C  C127  1  0.46213000  0.94730000  0.47820000  1
  C  C128  1  0.48230000  0.47730000  0.64560000  1
  C  C129  1  0.51240000  0.43510000  0.54810000  1
  C  C130  1  0.51827000  0.43260000  0.15670000  1
  C  C131  1  0.54713000  0.27790000  0.78150000  1
  C  C132  1  0.55157000  0.41320000  0.06630000  1
  C  C133  1  0.55457000  0.66540000  0.24080000  1
  C  C134  1  0.56867000  0.44050000  0.29120000  1
  C  C135  1  0.57213000  0.19510000  0.72110000  1
  C  C136  1  0.60177000  0.41530000  0.20540000  1
  C  C137  1  0.60797000  0.68240000  0.11110000  1
  C  C138  1  0.62880000  0.47820000  0.53090000  1
  C  C139  1  0.64897000  0.64560000  0.16830000  1
  C  C140  1  0.67907000  0.54810000  0.11300000  1
  C  C141  1  0.68493000  0.15670000  0.72410000  1
  C  C142  1  0.71380000  0.78150000  0.50360000  1
  C  C143  1  0.71823000  0.06630000  0.65310000  1
  C  C144  1  0.72123000  0.24080000  0.57540000  1
  C  C145  1  0.73533000  0.29120000  0.85070000  1
  C  C146  1  0.73880000  0.72110000  0.52600000  1
  C  C147  1  0.76843000  0.20540000  0.79010000  1
  C  C148  1  0.77463000  0.11110000  0.42870000  1
  C  C149  1  0.79547000  0.53090000  0.05270000  1
  C  C150  1  0.81563000  0.16830000  0.52270000  1
  C  C151  1  0.84573000  0.11300000  0.56490000  1
  C  C152  1  0.85160000  0.72410000  0.56740000  1
  C  C153  1  0.88047000  0.50360000  0.72210000  1
  C  C154  1  0.88490000  0.65310000  0.58680000  1
  C  C155  1  0.88790000  0.57540000  0.33460000  1
  C  C156  1  0.90200000  0.85070000  0.55950000  1
  C  C157  1  0.90547000  0.52600000  0.80490000  1
  C  C158  1  0.93510000  0.79010000  0.58470000  1
  C  C159  1  0.94130000  0.42870000  0.31760000  1
  C  C160  1  0.96213000  0.05270000  0.52180000  1
  C  C161  1  0.98230000  0.52270000  0.35440000  1
  Br  Br162  1  0.07898000  0.45179000  0.13126000  1
  Br  Br163  1  0.24564000  0.13126000  0.67947000  1
  Br  Br164  1  0.41231000  0.67947000  0.54821000  1
  Br  Br165  1  0.57898000  0.54821000  0.86874000  1
  Br  Br166  1  0.74564000  0.86874000  0.32053000  1
  Br  Br167  1  0.91231000  0.32053000  0.45179000  1
  N  N168  1  0.06977000  0.50660000  0.94060000  1
  N  N169  1  0.12953000  0.67250000  0.15470000  1
  N  N170  1  0.23643000  0.94060000  0.43400000  1
  N  N171  1  0.29620000  0.15470000  0.48220000  1
  N  N172  1  0.40310000  0.43400000  0.49340000  1
  N  N173  1  0.46287000  0.48220000  0.32750000  1
  N  N174  1  0.56977000  0.49340000  0.05940000  1
  N  N175  1  0.62953000  0.32750000  0.84530000  1
  N  N176  1  0.73643000  0.05940000  0.56600000  1
  N  N177  1  0.79620000  0.84530000  0.51780000  1
  N  N178  1  0.90310000  0.56600000  0.50660000  1
  N  N179  1  0.96287000  0.51780000  0.67250000  1
  O  O180  1  0.06133000  0.09210000  0.52200000  1
  O  O181  1  0.11800000  0.48880000  0.51510000  1
  O  O182  1  0.22800000  0.52200000  0.42990000  1
  O  O183  1  0.28467000  0.51510000  0.02630000  1
  O  O184  1  0.39467000  0.42990000  0.90790000  1
  O  O185  1  0.45133000  0.02630000  0.51120000  1
  O  O186  1  0.56133000  0.90790000  0.47800000  1
  O  O187  1  0.61800000  0.51120000  0.48490000  1
  O  O188  1  0.72800000  0.47800000  0.57010000  1
  O  O189  1  0.78467000  0.48490000  0.97370000  1
  O  O190  1  0.89467000  0.57010000  0.09210000  1
  O  O191  1  0.95133000  0.97370000  0.48880000  1
