# generated using pymatgen
data_Zn4H20C37O20
_symmetry_space_group_name_H-M   'P 1'
_cell_length_a   12.16000000
_cell_length_b   26.33100000
_cell_length_c   26.46800000
_cell_angle_alpha   90.00000000
_cell_angle_beta   90.00000000
_cell_angle_gamma   90.00000000
_symmetry_Int_Tables_number   1
_chemical_formula_structural   Zn4H20C37O20
_chemical_formula_sum   'Zn16 H80 C148 O80'
_cell_volume   8474.65552128
_cell_formula_units_Z   4
loop_
 _symmetry_equiv_pos_site_id
 _symmetry_equiv_pos_as_xyz
  1  'x, y, z'
loop_
 _atom_site_type_symbol
 _atom_site_label
 _atom_site_symmetry_multiplicity
 _atom_site_fract_x
 _atom_site_fract_y
 _atom_site_fract_z
 _atom_site_occupancy
  Zn  Zn0  1  0.01045000  0.25000000  0.30355000  1
  Zn  Zn1  1  0.01045000  0.75000000  0.19645000  1
  Zn  Zn2  1  0.08493000  0.04039000  0.49294000  1
  Zn  Zn3  1  0.08493000  0.45961000  0.49294000  1
  Zn  Zn4  1  0.08493000  0.54039000  0.00706000  1
  Zn  Zn5  1  0.08493000  0.95961000  0.00706000  1
  Zn  Zn6  1  0.16448000  0.25000000  0.72288000  1
  Zn  Zn7  1  0.16448000  0.75000000  0.77712000  1
  Zn  Zn8  1  0.83552000  0.25000000  0.22288000  1
  Zn  Zn9  1  0.83552000  0.75000000  0.27712000  1
  Zn  Zn10  1  0.91507000  0.04039000  0.99294000  1
  Zn  Zn11  1  0.91507000  0.45961000  0.99294000  1
  Zn  Zn12  1  0.91507000  0.54039000  0.50706000  1
  Zn  Zn13  1  0.91507000  0.95961000  0.50706000  1
  Zn  Zn14  1  0.98955000  0.25000000  0.80355000  1
  Zn  Zn15  1  0.98955000  0.75000000  0.69645000  1
  H  H16  1  0.00480000  0.13190000  0.62630000  1
  H  H17  1  0.00480000  0.36810000  0.62630000  1
  H  H18  1  0.00480000  0.63190000  0.87370000  1
  H  H19  1  0.00480000  0.86810000  0.87370000  1
  H  H20  1  0.10290000  0.12580000  0.88850000  1
  H  H21  1  0.10290000  0.37420000  0.88850000  1
  H  H22  1  0.10290000  0.62580000  0.61150000  1
  H  H23  1  0.10290000  0.87420000  0.61150000  1
  H  H24  1  0.19640000  0.13150000  0.24560000  1
  H  H25  1  0.19640000  0.36850000  0.24560000  1
  H  H26  1  0.19640000  0.63150000  0.25440000  1
  H  H27  1  0.19640000  0.86850000  0.25440000  1
  H  H28  1  0.23780000  0.02790000  0.13550000  1
  H  H29  1  0.23780000  0.47210000  0.13550000  1
  H  H30  1  0.23780000  0.52790000  0.36450000  1
  H  H31  1  0.23780000  0.97210000  0.36450000  1
  H  H32  1  0.31420000  0.00930000  0.88920000  1
  H  H33  1  0.31420000  0.49070000  0.88920000  1
  H  H34  1  0.31420000  0.50930000  0.61080000  1
  H  H35  1  0.31420000  0.99070000  0.61080000  1
  H  H36  1  0.33560000  0.00970000  0.30570000  1
  H  H37  1  0.33560000  0.49030000  0.30570000  1
  H  H38  1  0.33560000  0.50970000  0.19430000  1
  H  H39  1  0.33560000  0.99030000  0.19430000  1
  H  H40  1  0.34130000  0.11840000  0.78350000  1
  H  H41  1  0.34130000  0.38160000  0.78350000  1
  H  H42  1  0.34130000  0.61840000  0.71650000  1
  H  H43  1  0.34130000  0.88160000  0.71650000  1
  H  H44  1  0.41980000  0.05170000  0.74170000  1
  H  H45  1  0.41980000  0.44830000  0.74170000  1
  H  H46  1  0.41980000  0.55170000  0.75830000  1
  H  H47  1  0.41980000  0.94830000  0.75830000  1
  H  H48  1  0.42700000  0.02960000  0.17840000  1
  H  H49  1  0.42700000  0.47040000  0.17840000  1
  H  H50  1  0.42700000  0.52960000  0.32160000  1
  H  H51  1  0.42700000  0.97040000  0.32160000  1
  H  H52  1  0.48050000  0.07410000  0.27230000  1
  H  H53  1  0.48050000  0.42590000  0.27230000  1
  H  H54  1  0.48050000  0.57410000  0.22770000  1
  H  H55  1  0.48050000  0.92590000  0.22770000  1
  H  H56  1  0.51950000  0.07410000  0.77230000  1
  H  H57  1  0.51950000  0.42590000  0.77230000  1
  H  H58  1  0.51950000  0.57410000  0.72770000  1
  H  H59  1  0.51950000  0.92590000  0.72770000  1
  H  H60  1  0.57300000  0.02960000  0.67840000  1
  H  H61  1  0.57300000  0.47040000  0.67840000  1
  H  H62  1  0.57300000  0.52960000  0.82160000  1
  H  H63  1  0.57300000  0.97040000  0.82160000  1
  H  H64  1  0.58020000  0.05170000  0.24170000  1
  H  H65  1  0.58020000  0.44830000  0.24170000  1
  H  H66  1  0.58020000  0.55170000  0.25830000  1
  H  H67  1  0.58020000  0.94830000  0.25830000  1
  H  H68  1  0.65870000  0.11840000  0.28350000  1
  H  H69  1  0.65870000  0.38160000  0.28350000  1
  H  H70  1  0.65870000  0.61840000  0.21650000  1
  H  H71  1  0.65870000  0.88160000  0.21650000  1
  H  H72  1  0.66440000  0.00970000  0.80570000  1
  H  H73  1  0.66440000  0.49030000  0.80570000  1
  H  H74  1  0.66440000  0.50970000  0.69430000  1
  H  H75  1  0.66440000  0.99030000  0.69430000  1
  H  H76  1  0.68580000  0.00930000  0.38920000  1
  H  H77  1  0.68580000  0.49070000  0.38920000  1
  H  H78  1  0.68580000  0.50930000  0.11080000  1
  H  H79  1  0.68580000  0.99070000  0.11080000  1
  H  H80  1  0.76220000  0.02790000  0.63550000  1
  H  H81  1  0.76220000  0.47210000  0.63550000  1
  H  H82  1  0.76220000  0.52790000  0.86450000  1
  H  H83  1  0.76220000  0.97210000  0.86450000  1
  H  H84  1  0.80360000  0.13150000  0.74560000  1
  H  H85  1  0.80360000  0.36850000  0.74560000  1
  H  H86  1  0.80360000  0.63150000  0.75440000  1
  H  H87  1  0.80360000  0.86850000  0.75440000  1
  H  H88  1  0.89710000  0.12580000  0.38850000  1
  H  H89  1  0.89710000  0.37420000  0.38850000  1
  H  H90  1  0.89710000  0.62580000  0.11150000  1
  H  H91  1  0.89710000  0.87420000  0.11150000  1
  H  H92  1  0.99520000  0.13190000  0.12630000  1
  H  H93  1  0.99520000  0.36810000  0.12630000  1
  H  H94  1  0.99520000  0.63190000  0.37370000  1
  H  H95  1  0.99520000  0.86810000  0.37370000  1
  C  C96  1  0.02510000  0.18072000  0.21378000  1
  C  C97  1  0.02510000  0.31928000  0.21378000  1
  C  C98  1  0.02510000  0.68072000  0.28622000  1
  C  C99  1  0.02510000  0.81928000  0.28622000  1
  C  C100  1  0.05460000  0.11786000  0.14343000  1
  C  C101  1  0.05460000  0.38214000  0.14343000  1
  C  C102  1  0.05460000  0.61786000  0.35657000  1
  C  C103  1  0.05460000  0.88214000  0.35657000  1
  C  C104  1  0.07130000  0.05198000  0.07508000  1
  C  C105  1  0.07130000  0.44802000  0.07508000  1
  C  C106  1  0.07130000  0.55198000  0.42492000  1
  C  C107  1  0.07130000  0.94802000  0.42492000  1
  C  C108  1  0.08800000  0.13798000  0.18927000  1
  C  C109  1  0.08800000  0.36202000  0.18927000  1
  C  C110  1  0.08800000  0.63798000  0.31073000  1
  C  C111  1  0.08800000  0.86202000  0.31073000  1
  C  C112  1  0.11030000  0.07679000  0.12336000  1
  C  C113  1  0.11030000  0.42321000  0.12336000  1
  C  C114  1  0.11030000  0.57679000  0.37664000  1
  C  C115  1  0.11030000  0.92321000  0.37664000  1
  C  C116  1  0.13500000  0.03984000  0.93822000  1
  C  C117  1  0.13500000  0.46016000  0.93822000  1
  C  C118  1  0.13500000  0.53984000  0.56178000  1
  C  C119  1  0.13500000  0.96016000  0.56178000  1
  C  C120  1  0.16310000  0.10916000  0.87450000  1
  C  C121  1  0.16310000  0.39084000  0.87450000  1
  C  C122  1  0.16310000  0.60916000  0.62550000  1
  C  C123  1  0.16310000  0.89084000  0.62550000  1
  C  C124  1  0.17300000  0.17751000  0.80971000  1
  C  C125  1  0.17300000  0.32249000  0.80971000  1
  C  C126  1  0.17300000  0.67751000  0.69029000  1
  C  C127  1  0.17300000  0.82249000  0.69029000  1
  C  C128  1  0.17480000  0.11766000  0.21484000  1
  C  C129  1  0.17480000  0.38234000  0.21484000  1
  C  C130  1  0.17480000  0.61766000  0.28516000  1
  C  C131  1  0.17480000  0.88234000  0.28516000  1
  C  C132  1  0.19880000  0.06374000  0.89528000  1
  C  C133  1  0.19880000  0.43626000  0.89528000  1
  C  C134  1  0.19880000  0.56374000  0.60472000  1
  C  C135  1  0.19880000  0.93626000  0.60472000  1
  C  C136  1  0.20010000  0.05541000  0.14904000  1
  C  C137  1  0.20010000  0.44459000  0.14904000  1
  C  C138  1  0.20010000  0.55541000  0.35096000  1
  C  C139  1  0.20010000  0.94459000  0.35096000  1
  C  C140  1  0.21630000  0.13017000  0.83281000  1
  C  C141  1  0.21630000  0.36983000  0.83281000  1
  C  C142  1  0.21630000  0.63017000  0.66719000  1
  C  C143  1  0.21630000  0.86983000  0.66719000  1
  C  C144  1  0.23120000  0.07623000  0.19501000  1
  C  C145  1  0.23120000  0.42377000  0.19501000  1
  C  C146  1  0.23120000  0.57623000  0.30499000  1
  C  C147  1  0.23120000  0.92377000  0.30499000  1
  C  C148  1  0.28820000  0.03906000  0.87462000  1
  C  C149  1  0.28820000  0.46094000  0.87462000  1
  C  C150  1  0.28820000  0.53906000  0.62538000  1
  C  C151  1  0.28820000  0.96094000  0.62538000  1
  C  C152  1  0.30520000  0.10476000  0.81129000  1
  C  C153  1  0.30520000  0.39524000  0.81129000  1
  C  C154  1  0.30520000  0.60476000  0.68871000  1
  C  C155  1  0.30520000  0.89524000  0.68871000  1
  C  C156  1  0.33940000  0.05883000  0.83182000  1
  C  C157  1  0.33940000  0.44117000  0.83182000  1
  C  C158  1  0.33940000  0.55883000  0.66818000  1
  C  C159  1  0.33940000  0.94117000  0.66818000  1
  C  C160  1  0.38140000  0.01801000  0.20624000  1
  C  C161  1  0.38140000  0.48199000  0.20624000  1
  C  C162  1  0.38140000  0.51801000  0.29376000  1
  C  C163  1  0.38140000  0.98199000  0.29376000  1
  C  C164  1  0.45370000  0.00000000  0.25000000  1
  C  C165  1  0.45370000  0.50000000  0.25000000  1
  C  C166  1  0.47480000  0.04408000  0.76712000  1
  C  C167  1  0.47480000  0.45592000  0.76712000  1
  C  C168  1  0.47480000  0.54408000  0.73288000  1
  C  C169  1  0.47480000  0.95592000  0.73288000  1
  C  C170  1  0.52520000  0.04408000  0.26712000  1
  C  C171  1  0.52520000  0.45592000  0.26712000  1
  C  C172  1  0.52520000  0.54408000  0.23288000  1
  C  C173  1  0.52520000  0.95592000  0.23288000  1
  C  C174  1  0.54630000  0.00000000  0.75000000  1
  C  C175  1  0.54630000  0.50000000  0.75000000  1
  C  C176  1  0.61860000  0.01801000  0.70624000  1
  C  C177  1  0.61860000  0.48199000  0.70624000  1
  C  C178  1  0.61860000  0.51801000  0.79376000  1
  C  C179  1  0.61860000  0.98199000  0.79376000  1
  C  C180  1  0.66060000  0.05883000  0.33182000  1
  C  C181  1  0.66060000  0.44117000  0.33182000  1
  C  C182  1  0.66060000  0.55883000  0.16818000  1
  C  C183  1  0.66060000  0.94117000  0.16818000  1
  C  C184  1  0.69480000  0.10476000  0.31129000  1
  C  C185  1  0.69480000  0.39524000  0.31129000  1
  C  C186  1  0.69480000  0.60476000  0.18871000  1
  C  C187  1  0.69480000  0.89524000  0.18871000  1
  C  C188  1  0.71180000  0.03906000  0.37462000  1
  C  C189  1  0.71180000  0.46094000  0.37462000  1
  C  C190  1  0.71180000  0.53906000  0.12538000  1
  C  C191  1  0.71180000  0.96094000  0.12538000  1
  C  C192  1  0.76880000  0.07623000  0.69501000  1
  C  C193  1  0.76880000  0.42377000  0.69501000  1
  C  C194  1  0.76880000  0.57623000  0.80499000  1
  C  C195  1  0.76880000  0.92377000  0.80499000  1
  C  C196  1  0.78370000  0.13017000  0.33281000  1
  C  C197  1  0.78370000  0.36983000  0.33281000  1
  C  C198  1  0.78370000  0.63017000  0.16719000  1
  C  C199  1  0.78370000  0.86983000  0.16719000  1
  C  C200  1  0.79990000  0.05541000  0.64904000  1
  C  C201  1  0.79990000  0.44459000  0.64904000  1
  C  C202  1  0.79990000  0.55541000  0.85096000  1
  C  C203  1  0.79990000  0.94459000  0.85096000  1
  C  C204  1  0.80120000  0.06374000  0.39528000  1
  C  C205  1  0.80120000  0.43626000  0.39528000  1
  C  C206  1  0.80120000  0.56374000  0.10472000  1
  C  C207  1  0.80120000  0.93626000  0.10472000  1
  C  C208  1  0.82520000  0.11766000  0.71484000  1
  C  C209  1  0.82520000  0.38234000  0.71484000  1
  C  C210  1  0.82520000  0.61766000  0.78516000  1
  C  C211  1  0.82520000  0.88234000  0.78516000  1
  C  C212  1  0.82700000  0.17751000  0.30971000  1
  C  C213  1  0.82700000  0.32249000  0.30971000  1
  C  C214  1  0.82700000  0.67751000  0.19029000  1
  C  C215  1  0.82700000  0.82249000  0.19029000  1
  C  C216  1  0.83690000  0.10916000  0.37450000  1
  C  C217  1  0.83690000  0.39084000  0.37450000  1
  C  C218  1  0.83690000  0.60916000  0.12550000  1
  C  C219  1  0.83690000  0.89084000  0.12550000  1
  C  C220  1  0.86500000  0.03984000  0.43822000  1
  C  C221  1  0.86500000  0.46016000  0.43822000  1
  C  C222  1  0.86500000  0.53984000  0.06178000  1
  C  C223  1  0.86500000  0.96016000  0.06178000  1
  C  C224  1  0.88970000  0.07679000  0.62336000  1
  C  C225  1  0.88970000  0.42321000  0.62336000  1
  C  C226  1  0.88970000  0.57679000  0.87664000  1
  C  C227  1  0.88970000  0.92321000  0.87664000  1
  C  C228  1  0.91200000  0.13798000  0.68927000  1
  C  C229  1  0.91200000  0.36202000  0.68927000  1
  C  C230  1  0.91200000  0.63798000  0.81073000  1
  C  C231  1  0.91200000  0.86202000  0.81073000  1
  C  C232  1  0.92870000  0.05198000  0.57508000  1
  C  C233  1  0.92870000  0.44802000  0.57508000  1
  C  C234  1  0.92870000  0.55198000  0.92492000  1
  C  C235  1  0.92870000  0.94802000  0.92492000  1
  C  C236  1  0.94540000  0.11786000  0.64343000  1
  C  C237  1  0.94540000  0.38214000  0.64343000  1
  C  C238  1  0.94540000  0.61786000  0.85657000  1
  C  C239  1  0.94540000  0.88214000  0.85657000  1
  C  C240  1  0.97490000  0.18072000  0.71378000  1
  C  C241  1  0.97490000  0.31928000  0.71378000  1
  C  C242  1  0.97490000  0.68072000  0.78622000  1
  C  C243  1  0.97490000  0.81928000  0.78622000  1
  O  O244  1  0.00750000  0.07229000  0.55305000  1
  O  O245  1  0.00750000  0.42771000  0.55305000  1
  O  O246  1  0.00750000  0.57229000  0.94695000  1
  O  O247  1  0.00750000  0.92771000  0.94695000  1
  O  O248  1  0.04650000  0.06050000  0.94968000  1
  O  O249  1  0.04650000  0.43950000  0.94968000  1
  O  O250  1  0.04650000  0.56050000  0.55032000  1
  O  O251  1  0.04650000  0.93950000  0.55032000  1
  O  O252  1  0.06150000  0.19591000  0.69256000  1
  O  O253  1  0.06150000  0.30409000  0.69256000  1
  O  O254  1  0.06150000  0.69591000  0.80744000  1
  O  O255  1  0.06150000  0.80409000  0.80744000  1
  O  O256  1  0.06470000  0.19760000  0.25434000  1
  O  O257  1  0.06470000  0.30240000  0.25434000  1
  O  O258  1  0.06470000  0.69760000  0.24566000  1
  O  O259  1  0.06470000  0.80240000  0.24566000  1
  O  O260  1  0.09000000  0.19647000  0.83149000  1
  O  O261  1  0.09000000  0.30353000  0.83149000  1
  O  O262  1  0.09000000  0.69647000  0.66851000  1
  O  O263  1  0.09000000  0.80353000  0.66851000  1
  O  O264  1  0.12030000  0.01188000  0.06189000  1
  O  O265  1  0.12030000  0.48812000  0.06189000  1
  O  O266  1  0.12030000  0.51188000  0.43811000  1
  O  O267  1  0.12030000  0.98812000  0.43811000  1
  O  O268  1  0.17440000  0.00049000  0.95712000  1
  O  O269  1  0.17440000  0.49951000  0.95712000  1
  O  O270  1  0.17440000  0.50049000  0.54288000  1
  O  O271  1  0.17440000  0.99951000  0.54288000  1
  O  O272  1  0.21900000  0.19437000  0.77127000  1
  O  O273  1  0.21900000  0.30563000  0.77127000  1
  O  O274  1  0.21900000  0.69437000  0.72873000  1
  O  O275  1  0.21900000  0.80563000  0.72873000  1
  O  O276  1  0.31500000  0.05830000  0.22405000  1
  O  O277  1  0.31500000  0.44170000  0.22405000  1
  O  O278  1  0.31500000  0.55830000  0.27595000  1
  O  O279  1  0.31500000  0.94170000  0.27595000  1
  O  O280  1  0.42320000  0.02959000  0.81314000  1
  O  O281  1  0.42320000  0.47041000  0.81314000  1
  O  O282  1  0.42320000  0.52959000  0.68686000  1
  O  O283  1  0.42320000  0.97041000  0.68686000  1
  O  O284  1  0.57680000  0.02959000  0.31314000  1
  O  O285  1  0.57680000  0.47041000  0.31314000  1
  O  O286  1  0.57680000  0.52959000  0.18686000  1
  O  O287  1  0.57680000  0.97041000  0.18686000  1
  O  O288  1  0.68500000  0.05830000  0.72405000  1
  O  O289  1  0.68500000  0.44170000  0.72405000  1
  O  O290  1  0.68500000  0.55830000  0.77595000  1
  O  O291  1  0.68500000  0.94170000  0.77595000  1
  O  O292  1  0.78100000  0.19437000  0.27127000  1
  O  O293  1  0.78100000  0.30563000  0.27127000  1
  O  O294  1  0.78100000  0.69437000  0.22873000  1
  O  O295  1  0.78100000  0.80563000  0.22873000  1
  O  O296  1  0.82560000  0.00049000  0.45712000  1
  O  O297  1  0.82560000  0.49951000  0.45712000  1
  O  O298  1  0.82560000  0.50049000  0.04288000  1
  O  O299  1  0.82560000  0.99951000  0.04288000  1
  O  O300  1  0.87970000  0.01188000  0.56189000  1
  O  O301  1  0.87970000  0.48812000  0.56189000  1
  O  O302  1  0.87970000  0.51188000  0.93811000  1
  O  O303  1  0.87970000  0.98812000  0.93811000  1
  O  O304  1  0.91000000  0.19647000  0.33149000  1
  O  O305  1  0.91000000  0.30353000  0.33149000  1
  O  O306  1  0.91000000  0.69647000  0.16851000  1
  O  O307  1  0.91000000  0.80353000  0.16851000  1
  O  O308  1  0.93530000  0.19760000  0.75434000  1
  O  O309  1  0.93530000  0.30240000  0.75434000  1
  O  O310  1  0.93530000  0.69760000  0.74566000  1
  O  O311  1  0.93530000  0.80240000  0.74566000  1
  O  O312  1  0.93850000  0.19591000  0.19256000  1
  O  O313  1  0.93850000  0.30409000  0.19256000  1
  O  O314  1  0.93850000  0.69591000  0.30744000  1
  O  O315  1  0.93850000  0.80409000  0.30744000  1
  O  O316  1  0.95350000  0.06050000  0.44968000  1
  O  O317  1  0.95350000  0.43950000  0.44968000  1
  O  O318  1  0.95350000  0.56050000  0.05032000  1
  O  O319  1  0.95350000  0.93950000  0.05032000  1
  O  O320  1  0.99250000  0.07229000  0.05305000  1
  O  O321  1  0.99250000  0.42771000  0.05305000  1
  O  O322  1  0.99250000  0.57229000  0.44695000  1
  O  O323  1  0.99250000  0.92771000  0.44695000  1
