# generated using pymatgen
data_Cu3H24C28(N8Cl)2
_symmetry_space_group_name_H-M   'P 1'
_cell_length_a   16.81059953
_cell_length_b   16.81059953
_cell_length_c   16.81059953
_cell_angle_alpha   94.94377355
_cell_angle_beta   94.94377355
_cell_angle_gamma   94.94377355
_symmetry_Int_Tables_number   1
_chemical_formula_structural   Cu3H24C28(N8Cl)2
_chemical_formula_sum   'Cu9 H72 C84 N48 Cl6'
_cell_volume   4694.31665931
_cell_formula_units_Z   3
loop_
 _symmetry_equiv_pos_site_id
 _symmetry_equiv_pos_as_xyz
  1  'x, y, z'
loop_
 _atom_site_type_symbol
 _atom_site_label
 _atom_site_symmetry_multiplicity
 _atom_site_fract_x
 _atom_site_fract_y
 _atom_site_fract_z
 _atom_site_occupancy
  C  C0  1  0.12320000  0.59000000  0.61860000  1
  C  C1  1  0.78940000  0.28530000  0.25330000  1
  C  C2  1  0.75030000  0.25860000  0.17690000  1
  C  C3  1  0.32030000  0.71020000  0.84610000  1
  C  C4  1  0.24280000  0.65560000  0.70250000  1
  C  C5  1  0.78350000  0.90980000  0.52810000  1
  C  C6  1  0.33890000  0.47210000  0.06480000  1
  C  C7  1  0.76990000  0.54840000  0.84520000  1
  C  C8  1  0.36700000  0.40800000  0.16770000  1
  C  C9  1  0.83950000  0.56590000  0.89580000  1
  C  C10  1  0.62900000  0.72740000  0.31320000  1
  C  C11  1  0.76720000  0.77330000  0.51800000  1
  C  C12  1  0.71020000  0.84610000  0.32030000  1
  C  C13  1  0.86290000  0.90960000  0.55540000  1
  C  C14  1  0.77330000  0.51800000  0.76720000  1
  C  C15  1  0.55300000  0.22660000  0.61640000  1
  C  C16  1  0.31320000  0.62900000  0.72740000  1
  C  C17  1  0.40800000  0.16770000  0.36700000  1
  C  C18  1  0.22660000  0.61640000  0.55300000  1
  C  C19  1  0.06480000  0.33890000  0.47210000  1
  C  C20  1  0.55540000  0.86290000  0.90960000  1
  C  C21  1  0.15390000  0.67970000  0.28980000  1
  C  C22  1  0.17690000  0.75030000  0.25860000  1
  C  C23  1  0.52810000  0.78350000  0.90980000  1
  C  C24  1  0.65560000  0.70250000  0.24280000  1
  C  C25  1  0.84520000  0.76990000  0.54840000  1
  C  C26  1  0.89580000  0.83950000  0.56590000  1
  C  C27  1  0.56590000  0.89580000  0.83950000  1
  C  C28  1  0.90960000  0.55540000  0.86290000  1
  C  C29  1  0.74140000  0.82310000  0.24970000  1
  C  C30  1  0.25330000  0.78940000  0.28530000  1
  C  C31  1  0.59000000  0.61860000  0.12320000  1
  C  C32  1  0.83230000  0.63300000  0.59200000  1
  C  C33  1  0.61640000  0.55300000  0.22660000  1
  C  C34  1  0.52790000  0.93520000  0.66110000  1
  C  C35  1  0.71470000  0.74670000  0.21060000  1
  C  C36  1  0.38140000  0.87680000  0.41000000  1
  C  C37  1  0.54840000  0.84520000  0.76990000  1
  C  C38  1  0.27260000  0.68680000  0.37100000  1
  C  C39  1  0.09020000  0.47190000  0.21650000  1
  C  C40  1  0.29750000  0.75720000  0.34440000  1
  C  C41  1  0.51800000  0.76720000  0.77330000  1
  C  C42  1  0.48200000  0.23280000  0.22670000  1
  C  C43  1  0.70250000  0.24280000  0.65560000  1
  C  C44  1  0.90980000  0.52810000  0.78350000  1
  C  C45  1  0.72740000  0.31320000  0.62900000  1
  C  C46  1  0.45160000  0.15480000  0.23010000  1
  C  C47  1  0.61860000  0.12320000  0.59000000  1
  C  C48  1  0.28530000  0.25330000  0.78940000  1
  C  C49  1  0.47210000  0.06480000  0.33890000  1
  C  C50  1  0.38360000  0.44700000  0.77340000  1
  C  C51  1  0.16770000  0.36700000  0.40800000  1
  C  C52  1  0.41000000  0.38140000  0.87680000  1
  C  C53  1  0.74670000  0.21060000  0.71470000  1
  C  C54  1  0.25860000  0.17690000  0.75030000  1
  C  C55  1  0.09040000  0.44460000  0.13710000  1
  C  C56  1  0.43410000  0.10420000  0.16050000  1
  C  C57  1  0.10420000  0.16050000  0.43410000  1
  C  C58  1  0.15480000  0.23010000  0.45160000  1
  C  C59  1  0.34440000  0.29750000  0.75720000  1
  C  C60  1  0.47190000  0.21650000  0.09020000  1
  C  C61  1  0.82310000  0.24970000  0.74140000  1
  C  C62  1  0.44460000  0.13710000  0.09040000  1
  C  C63  1  0.84610000  0.32030000  0.71020000  1
  C  C64  1  0.93520000  0.66110000  0.52790000  1
  C  C65  1  0.77340000  0.38360000  0.44700000  1
  C  C66  1  0.59200000  0.83230000  0.63300000  1
  C  C67  1  0.68680000  0.37100000  0.27260000  1
  C  C68  1  0.44700000  0.77340000  0.38360000  1
  C  C69  1  0.22670000  0.48200000  0.23280000  1
  C  C70  1  0.13710000  0.09040000  0.44460000  1
  C  C71  1  0.28980000  0.15390000  0.67970000  1
  C  C72  1  0.23280000  0.22670000  0.48200000  1
  C  C73  1  0.37100000  0.27260000  0.68680000  1
  C  C74  1  0.16050000  0.43410000  0.10420000  1
  C  C75  1  0.63300000  0.59200000  0.83230000  1
  C  C76  1  0.23010000  0.45160000  0.15480000  1
  C  C77  1  0.66110000  0.52790000  0.93520000  1
  C  C78  1  0.21650000  0.09020000  0.47190000  1
  C  C79  1  0.75720000  0.34440000  0.29750000  1
  C  C80  1  0.67970000  0.28980000  0.15390000  1
  C  C81  1  0.24970000  0.74140000  0.82310000  1
  C  C82  1  0.21060000  0.71470000  0.74670000  1
  C  C83  1  0.87680000  0.41000000  0.38140000  1
  Cl  Cl84  1  0.01093000  0.56899000  0.36779000  1
  Cl  Cl85  1  0.36779000  0.01093000  0.56899000  1
  Cl  Cl86  1  0.43101000  0.63221000  0.98907000  1
  Cl  Cl87  1  0.56899000  0.36779000  0.01093000  1
  Cl  Cl88  1  0.63221000  0.98907000  0.43101000  1
  Cl  Cl89  1  0.98907000  0.43101000  0.63221000  1
  Cu  Cu90  1  1.00000000  0.50000000  0.50000000  1
  Cu  Cu91  1  0.38101000  0.16033000  0.54152000  1
  Cu  Cu92  1  0.16033000  0.54152000  0.38101000  1
  Cu  Cu93  1  0.45848000  0.61899000  0.83967000  1
  Cu  Cu94  1  0.50000000  0.50000000  0.00000000  1
  Cu  Cu95  1  0.50000000  0.00000000  0.50000000  1
  Cu  Cu96  1  0.54152000  0.38101000  0.16033000  1
  Cu  Cu97  1  0.83967000  0.45848000  0.61899000  1
  Cu  Cu98  1  0.61899000  0.83967000  0.45848000  1
  H  H99  1  0.76260000  0.95880000  0.52310000  1
  H  H100  1  0.91010000  0.41410000  0.34040000  1
  H  H101  1  0.34680000  0.72790000  0.89610000  1
  H  H102  1  0.31190000  0.49970000  0.02670000  1
  H  H103  1  0.36220000  0.38270000  0.21430000  1
  H  H104  1  0.83520000  0.26340000  0.27290000  1
  H  H105  1  0.83870000  0.58400000  0.94960000  1
  H  H106  1  0.59150000  0.69400000  0.33520000  1
  H  H107  1  0.54080000  0.27800000  0.63300000  1
  H  H108  1  0.77150000  0.22110000  0.14310000  1
  H  H109  1  0.38270000  0.21430000  0.36220000  1
  H  H110  1  0.72540000  0.50340000  0.73520000  1
  H  H111  1  0.72790000  0.89610000  0.34680000  1
  H  H112  1  0.73520000  0.72540000  0.50340000  1
  H  H113  1  0.02670000  0.31190000  0.49970000  1
  H  H114  1  0.89460000  0.95790000  0.56690000  1
  H  H115  1  0.56690000  0.89460000  0.95790000  1
  H  H116  1  0.10390000  0.65320000  0.27210000  1
  H  H117  1  0.14310000  0.77150000  0.22110000  1
  H  H118  1  0.78570000  0.63780000  0.61730000  1
  H  H119  1  0.52310000  0.76260000  0.95880000  1
  H  H120  1  0.50030000  0.97330000  0.68810000  1
  H  H121  1  0.34040000  0.91010000  0.41410000  1
  H  H122  1  0.04120000  0.47690000  0.23740000  1
  H  H123  1  0.58400000  0.94960000  0.83870000  1
  H  H124  1  0.27800000  0.63300000  0.54080000  1
  H  H125  1  0.33520000  0.59150000  0.69400000  1
  H  H126  1  0.26340000  0.27290000  0.83520000  1
  H  H127  1  0.58590000  0.65960000  0.08990000  1
  H  H128  1  0.63300000  0.54080000  0.27800000  1
  H  H129  1  0.27290000  0.83520000  0.26340000  1
  H  H130  1  0.49660000  0.26480000  0.27460000  1
  H  H131  1  0.95790000  0.56690000  0.89460000  1
  H  H132  1  0.69400000  0.33520000  0.59150000  1
  H  H133  1  0.77890000  0.85690000  0.22850000  1
  H  H134  1  0.94960000  0.83870000  0.58400000  1
  H  H135  1  0.05040000  0.16130000  0.41600000  1
  H  H136  1  0.22110000  0.14310000  0.77150000  1
  H  H137  1  0.30600000  0.66480000  0.40850000  1
  H  H138  1  0.04210000  0.43310000  0.10540000  1
  H  H139  1  0.50340000  0.73520000  0.72540000  1
  H  H140  1  0.36700000  0.45920000  0.72200000  1
  H  H141  1  0.72710000  0.16480000  0.73660000  1
  H  H142  1  0.41410000  0.34040000  0.91010000  1
  H  H143  1  0.73660000  0.72710000  0.16480000  1
  H  H144  1  0.66480000  0.40850000  0.30600000  1
  H  H145  1  0.72200000  0.36700000  0.45920000  1
  H  H146  1  0.41600000  0.05040000  0.16130000  1
  H  H147  1  0.95880000  0.52310000  0.76260000  1
  H  H148  1  0.65960000  0.08990000  0.58590000  1
  H  H149  1  0.49970000  0.02670000  0.31190000  1
  H  H150  1  0.47690000  0.23740000  0.04120000  1
  H  H151  1  0.21430000  0.36220000  0.38270000  1
  H  H152  1  0.85690000  0.22850000  0.77890000  1
  H  H153  1  0.89610000  0.34680000  0.72790000  1
  H  H154  1  0.43310000  0.10540000  0.04210000  1
  H  H155  1  0.10540000  0.04210000  0.43310000  1
  H  H156  1  0.97330000  0.68810000  0.50030000  1
  H  H157  1  0.26480000  0.27460000  0.49660000  1
  H  H158  1  0.27210000  0.10390000  0.65320000  1
  H  H159  1  0.27460000  0.49660000  0.26480000  1
  H  H160  1  0.61730000  0.78570000  0.63780000  1
  H  H161  1  0.22850000  0.77890000  0.85690000  1
  H  H162  1  0.45920000  0.72200000  0.36700000  1
  H  H163  1  0.40850000  0.30600000  0.66480000  1
  H  H164  1  0.16130000  0.41600000  0.05040000  1
  H  H165  1  0.16480000  0.73660000  0.72710000  1
  H  H166  1  0.63780000  0.61730000  0.78570000  1
  H  H167  1  0.68810000  0.50030000  0.97330000  1
  H  H168  1  0.65320000  0.27210000  0.10390000  1
  H  H169  1  0.08990000  0.58590000  0.65960000  1
  H  H170  1  0.23740000  0.04120000  0.47690000  1
  N  N171  1  0.30690000  0.44270000  0.12800000  1
  N  N172  1  0.10338000  0.56438000  0.54398000  1
  N  N173  1  0.73500000  0.84250000  0.50830000  1
  N  N174  1  0.20020000  0.62380000  0.62780000  1
  N  N175  1  0.65510000  0.79860000  0.35210000  1
  N  N176  1  0.35210000  0.65510000  0.79860000  1
  N  N177  1  0.50080000  0.16810000  0.58190000  1
  N  N178  1  0.16810000  0.58190000  0.50080000  1
  N  N179  1  0.06482000  0.41292000  0.45632000  1
  N  N180  1  0.41539000  0.13119000  0.43149000  1
  N  N181  1  0.41292000  0.45632000  0.06482000  1
  N  N182  1  0.43149000  0.41539000  0.13119000  1
  N  N183  1  0.20140000  0.64790000  0.34490000  1
  N  N184  1  0.13119000  0.43149000  0.41539000  1
  N  N185  1  0.62380000  0.62780000  0.20020000  1
  N  N186  1  0.54398000  0.10338000  0.56438000  1
  N  N187  1  0.62780000  0.20020000  0.62380000  1
  N  N188  1  0.45632000  0.06482000  0.41292000  1
  N  N189  1  0.50830000  0.73500000  0.84250000  1
  N  N190  1  0.84250000  0.50830000  0.73500000  1
  N  N191  1  0.44270000  0.12800000  0.30690000  1
  N  N192  1  0.56438000  0.54398000  0.10338000  1
  N  N193  1  0.87200000  0.69310000  0.55730000  1
  N  N194  1  0.58190000  0.50080000  0.16810000  1
  N  N195  1  0.41810000  0.49920000  0.83190000  1
  N  N196  1  0.12800000  0.30690000  0.44270000  1
  N  N197  1  0.43562000  0.45602000  0.89662000  1
  N  N198  1  0.55730000  0.87200000  0.69310000  1
  N  N199  1  0.15750000  0.49170000  0.26500000  1
  N  N200  1  0.49170000  0.26500000  0.15750000  1
  N  N201  1  0.54368000  0.93518000  0.58708000  1
  N  N202  1  0.37220000  0.79980000  0.37620000  1
  N  N203  1  0.45602000  0.89662000  0.43562000  1
  N  N204  1  0.37620000  0.37220000  0.79980000  1
  N  N205  1  0.86881000  0.56851000  0.58461000  1
  N  N206  1  0.79860000  0.35210000  0.65510000  1
  N  N207  1  0.56851000  0.58461000  0.86881000  1
  N  N208  1  0.58708000  0.54368000  0.93518000  1
  N  N209  1  0.58461000  0.86881000  0.56851000  1
  N  N210  1  0.93518000  0.58708000  0.54368000  1
  N  N211  1  0.83190000  0.41810000  0.49920000  1
  N  N212  1  0.49920000  0.83190000  0.41810000  1
  N  N213  1  0.64790000  0.34490000  0.20140000  1
  N  N214  1  0.34490000  0.20140000  0.64790000  1
  N  N215  1  0.79980000  0.37620000  0.37220000  1
  N  N216  1  0.26500000  0.15750000  0.49170000  1
  N  N217  1  0.89662000  0.43562000  0.45602000  1
  N  N218  1  0.69310000  0.55730000  0.87200000  1
