# generated using pymatgen
data_CdH26C18(NO)4
_symmetry_space_group_name_H-M   'P 1'
_cell_length_a   16.16720000
_cell_length_b   16.82830000
_cell_length_c   17.69070000
_cell_angle_alpha   90.00000000
_cell_angle_beta   90.00000000
_cell_angle_gamma   90.00000000
_symmetry_Int_Tables_number   1
_chemical_formula_structural   CdH26C18(NO)4
_chemical_formula_sum   'Cd8 H208 C144 N32 O32'
_cell_volume   4813.04668578
_cell_formula_units_Z   8
loop_
 _symmetry_equiv_pos_site_id
 _symmetry_equiv_pos_as_xyz
  1  'x, y, z'
loop_
 _atom_site_type_symbol
 _atom_site_label
 _atom_site_symmetry_multiplicity
 _atom_site_fract_x
 _atom_site_fract_y
 _atom_site_fract_z
 _atom_site_occupancy
  Cd  Cd0  1  0.32943000  0.77661000  0.24584000  1
  Cd  Cd1  1  0.67057000  0.27661000  0.24584000  1
  Cd  Cd2  1  0.17057000  0.27661000  0.25416000  1
  Cd  Cd3  1  0.82943000  0.77661000  0.25416000  1
  Cd  Cd4  1  0.17057000  0.22339000  0.74584000  1
  Cd  Cd5  1  0.82943000  0.72339000  0.74584000  1
  Cd  Cd6  1  0.32943000  0.72339000  0.75416000  1
  Cd  Cd7  1  0.67057000  0.22339000  0.75416000  1
  H  H8  1  0.08150000  0.50410000  0.02440000  1
  H  H9  1  0.91850000  0.00410000  0.02440000  1
  H  H10  1  0.42580000  0.88920000  0.02490000  1
  H  H11  1  0.57420000  0.38920000  0.02490000  1
  H  H12  1  0.47920000  0.37240000  0.03330000  1
  H  H13  1  0.52080000  0.87240000  0.03330000  1
  H  H14  1  0.10070000  0.11440000  0.04800000  1
  H  H15  1  0.89930000  0.61440000  0.04800000  1
  H  H16  1  0.00440000  0.12120000  0.05550000  1
  H  H17  1  0.99560000  0.62120000  0.05550000  1
  H  H18  1  0.07430000  0.81140000  0.05680000  1
  H  H19  1  0.92570000  0.31140000  0.05680000  1
  H  H20  1  0.45150000  0.03150000  0.05910000  1
  H  H21  1  0.54850000  0.53150000  0.05910000  1
  H  H22  1  0.05370000  0.98720000  0.06000000  1
  H  H23  1  0.94630000  0.48720000  0.06000000  1
  H  H24  1  0.45350000  0.51410000  0.06610000  1
  H  H25  1  0.54650000  0.01410000  0.06610000  1
  H  H26  1  0.40910000  0.21190000  0.07890000  1
  H  H27  1  0.59090000  0.71190000  0.07890000  1
  H  H28  1  0.16020000  0.36750000  0.09140000  1
  H  H29  1  0.83980000  0.86750000  0.09140000  1
  H  H30  1  0.35200000  0.66840000  0.09300000  1
  H  H31  1  0.64800000  0.16840000  0.09300000  1
  H  H32  1  0.09260000  0.59640000  0.17170000  1
  H  H33  1  0.90740000  0.09640000  0.17170000  1
  H  H34  1  0.15200000  0.52290000  0.17610000  1
  H  H35  1  0.84800000  0.02290000  0.17610000  1
  H  H36  1  0.03000000  0.75660000  0.17830000  1
  H  H37  1  0.97000000  0.25660000  0.17830000  1
  H  H38  1  0.17650000  0.99810000  0.18040000  1
  H  H39  1  0.82350000  0.49810000  0.18040000  1
  H  H40  1  0.11310000  0.92790000  0.18080000  1
  H  H41  1  0.88690000  0.42790000  0.18080000  1
  H  H42  1  0.46630000  0.28990000  0.18200000  1
  H  H43  1  0.53370000  0.78990000  0.18200000  1
  H  H44  1  0.02460000  0.46950000  0.18260000  1
  H  H45  1  0.97540000  0.96950000  0.18260000  1
  H  H46  1  0.41180000  0.45260000  0.19010000  1
  H  H47  1  0.58820000  0.95260000  0.19010000  1
  H  H48  1  0.35310000  0.52640000  0.19510000  1
  H  H49  1  0.64690000  0.02640000  0.19510000  1
  H  H50  1  0.38740000  0.11440000  0.19620000  1
  H  H51  1  0.61260000  0.61440000  0.19620000  1
  H  H52  1  0.32030000  0.04760000  0.19900000  1
  H  H53  1  0.67970000  0.54760000  0.19900000  1
  H  H54  1  0.48050000  0.57880000  0.20470000  1
  H  H55  1  0.51950000  0.07880000  0.20470000  1
  H  H56  1  0.05340000  0.08090000  0.21260000  1
  H  H57  1  0.94660000  0.58090000  0.21260000  1
  H  H58  1  0.44250000  0.96560000  0.23430000  1
  H  H59  1  0.55750000  0.46560000  0.23430000  1
  H  H60  1  0.05750000  0.46560000  0.26570000  1
  H  H61  1  0.94250000  0.96560000  0.26570000  1
  H  H62  1  0.44660000  0.58090000  0.28740000  1
  H  H63  1  0.55340000  0.08090000  0.28740000  1
  H  H64  1  0.01950000  0.07880000  0.29530000  1
  H  H65  1  0.98050000  0.57880000  0.29530000  1
  H  H66  1  0.17970000  0.54760000  0.30100000  1
  H  H67  1  0.82030000  0.04760000  0.30100000  1
  H  H68  1  0.11260000  0.61440000  0.30380000  1
  H  H69  1  0.88740000  0.11440000  0.30380000  1
  H  H70  1  0.14690000  0.02640000  0.30490000  1
  H  H71  1  0.85310000  0.52640000  0.30490000  1
  H  H72  1  0.08820000  0.95260000  0.30990000  1
  H  H73  1  0.91180000  0.45260000  0.30990000  1
  H  H74  1  0.47540000  0.96950000  0.31740000  1
  H  H75  1  0.52460000  0.46950000  0.31740000  1
  H  H76  1  0.03370000  0.78990000  0.31800000  1
  H  H77  1  0.96630000  0.28990000  0.31800000  1
  H  H78  1  0.38690000  0.42790000  0.31920000  1
  H  H79  1  0.61310000  0.92790000  0.31920000  1
  H  H80  1  0.32350000  0.49810000  0.31960000  1
  H  H81  1  0.67650000  0.99810000  0.31960000  1
  H  H82  1  0.47000000  0.25660000  0.32170000  1
  H  H83  1  0.53000000  0.75660000  0.32170000  1
  H  H84  1  0.34800000  0.02290000  0.32390000  1
  H  H85  1  0.65200000  0.52290000  0.32390000  1
  H  H86  1  0.40740000  0.09640000  0.32830000  1
  H  H87  1  0.59260000  0.59640000  0.32830000  1
  H  H88  1  0.14800000  0.16840000  0.40700000  1
  H  H89  1  0.85200000  0.66840000  0.40700000  1
  H  H90  1  0.33980000  0.86750000  0.40860000  1
  H  H91  1  0.66020000  0.36750000  0.40860000  1
  H  H92  1  0.09090000  0.71190000  0.42110000  1
  H  H93  1  0.90910000  0.21190000  0.42110000  1
  H  H94  1  0.04650000  0.01410000  0.43390000  1
  H  H95  1  0.95350000  0.51410000  0.43390000  1
  H  H96  1  0.44630000  0.48720000  0.44000000  1
  H  H97  1  0.55370000  0.98720000  0.44000000  1
  H  H98  1  0.04850000  0.53150000  0.44090000  1
  H  H99  1  0.95150000  0.03150000  0.44090000  1
  H  H100  1  0.42570000  0.31140000  0.44320000  1
  H  H101  1  0.57430000  0.81140000  0.44320000  1
  H  H102  1  0.49560000  0.62120000  0.44450000  1
  H  H103  1  0.50440000  0.12120000  0.44450000  1
  H  H104  1  0.39930000  0.61440000  0.45200000  1
  H  H105  1  0.60070000  0.11440000  0.45200000  1
  H  H106  1  0.02080000  0.87240000  0.46670000  1
  H  H107  1  0.97920000  0.37240000  0.46670000  1
  H  H108  1  0.07420000  0.38920000  0.47510000  1
  H  H109  1  0.92580000  0.88920000  0.47510000  1
  H  H110  1  0.41850000  0.00410000  0.47560000  1
  H  H111  1  0.58150000  0.50410000  0.47560000  1
  H  H112  1  0.41850000  0.49590000  0.52440000  1
  H  H113  1  0.58150000  0.99590000  0.52440000  1
  H  H114  1  0.07420000  0.11080000  0.52490000  1
  H  H115  1  0.92580000  0.61080000  0.52490000  1
  H  H116  1  0.02080000  0.62760000  0.53330000  1
  H  H117  1  0.97920000  0.12760000  0.53330000  1
  H  H118  1  0.39930000  0.88560000  0.54800000  1
  H  H119  1  0.60070000  0.38560000  0.54800000  1
  H  H120  1  0.49560000  0.87880000  0.55550000  1
  H  H121  1  0.50440000  0.37880000  0.55550000  1
  H  H122  1  0.42570000  0.18860000  0.55680000  1
  H  H123  1  0.57430000  0.68860000  0.55680000  1
  H  H124  1  0.04850000  0.96850000  0.55910000  1
  H  H125  1  0.95150000  0.46850000  0.55910000  1
  H  H126  1  0.44630000  0.01280000  0.56000000  1
  H  H127  1  0.55370000  0.51280000  0.56000000  1
  H  H128  1  0.04650000  0.48590000  0.56610000  1
  H  H129  1  0.95350000  0.98590000  0.56610000  1
  H  H130  1  0.09090000  0.78810000  0.57890000  1
  H  H131  1  0.90910000  0.28810000  0.57890000  1
  H  H132  1  0.33980000  0.63250000  0.59140000  1
  H  H133  1  0.66020000  0.13250000  0.59140000  1
  H  H134  1  0.14800000  0.33160000  0.59300000  1
  H  H135  1  0.85200000  0.83160000  0.59300000  1
  H  H136  1  0.40740000  0.40360000  0.67170000  1
  H  H137  1  0.59260000  0.90360000  0.67170000  1
  H  H138  1  0.34800000  0.47710000  0.67610000  1
  H  H139  1  0.65200000  0.97710000  0.67610000  1
  H  H140  1  0.47000000  0.24340000  0.67830000  1
  H  H141  1  0.53000000  0.74340000  0.67830000  1
  H  H142  1  0.32350000  0.00190000  0.68040000  1
  H  H143  1  0.67650000  0.50190000  0.68040000  1
  H  H144  1  0.38690000  0.07210000  0.68080000  1
  H  H145  1  0.61310000  0.57210000  0.68080000  1
  H  H146  1  0.03370000  0.71010000  0.68200000  1
  H  H147  1  0.96630000  0.21010000  0.68200000  1
  H  H148  1  0.47540000  0.53050000  0.68260000  1
  H  H149  1  0.52460000  0.03050000  0.68260000  1
  H  H150  1  0.08820000  0.54740000  0.69010000  1
  H  H151  1  0.91180000  0.04740000  0.69010000  1
  H  H152  1  0.14690000  0.47360000  0.69510000  1
  H  H153  1  0.85310000  0.97360000  0.69510000  1
  H  H154  1  0.11260000  0.88560000  0.69620000  1
  H  H155  1  0.88740000  0.38560000  0.69620000  1
  H  H156  1  0.17970000  0.95240000  0.69900000  1
  H  H157  1  0.82030000  0.45240000  0.69900000  1
  H  H158  1  0.01950000  0.42120000  0.70470000  1
  H  H159  1  0.98050000  0.92120000  0.70470000  1
  H  H160  1  0.44660000  0.91910000  0.71260000  1
  H  H161  1  0.55340000  0.41910000  0.71260000  1
  H  H162  1  0.05750000  0.03440000  0.73430000  1
  H  H163  1  0.94250000  0.53440000  0.73430000  1
  H  H164  1  0.44250000  0.53440000  0.76570000  1
  H  H165  1  0.55750000  0.03440000  0.76570000  1
  H  H166  1  0.05340000  0.41910000  0.78740000  1
  H  H167  1  0.94660000  0.91910000  0.78740000  1
  H  H168  1  0.48050000  0.92120000  0.79530000  1
  H  H169  1  0.51950000  0.42120000  0.79530000  1
  H  H170  1  0.32030000  0.45240000  0.80100000  1
  H  H171  1  0.67970000  0.95240000  0.80100000  1
  H  H172  1  0.38740000  0.38560000  0.80380000  1
  H  H173  1  0.61260000  0.88560000  0.80380000  1
  H  H174  1  0.35310000  0.97360000  0.80490000  1
  H  H175  1  0.64690000  0.47360000  0.80490000  1
  H  H176  1  0.41180000  0.04740000  0.80990000  1
  H  H177  1  0.58820000  0.54740000  0.80990000  1
  H  H178  1  0.02460000  0.03050000  0.81740000  1
  H  H179  1  0.97540000  0.53050000  0.81740000  1
  H  H180  1  0.46630000  0.21010000  0.81800000  1
  H  H181  1  0.53370000  0.71010000  0.81800000  1
  H  H182  1  0.11310000  0.57210000  0.81920000  1
  H  H183  1  0.88690000  0.07210000  0.81920000  1
  H  H184  1  0.17650000  0.50190000  0.81960000  1
  H  H185  1  0.82350000  0.00190000  0.81960000  1
  H  H186  1  0.03000000  0.74340000  0.82170000  1
  H  H187  1  0.97000000  0.24340000  0.82170000  1
  H  H188  1  0.15200000  0.97710000  0.82390000  1
  H  H189  1  0.84800000  0.47710000  0.82390000  1
  H  H190  1  0.09260000  0.90360000  0.82830000  1
  H  H191  1  0.90740000  0.40360000  0.82830000  1
  H  H192  1  0.35200000  0.83160000  0.90700000  1
  H  H193  1  0.64800000  0.33160000  0.90700000  1
  H  H194  1  0.16020000  0.13250000  0.90860000  1
  H  H195  1  0.83980000  0.63250000  0.90860000  1
  H  H196  1  0.40910000  0.28810000  0.92110000  1
  H  H197  1  0.59090000  0.78810000  0.92110000  1
  H  H198  1  0.45350000  0.98590000  0.93390000  1
  H  H199  1  0.54650000  0.48590000  0.93390000  1
  H  H200  1  0.05370000  0.51280000  0.94000000  1
  H  H201  1  0.94630000  0.01280000  0.94000000  1
  H  H202  1  0.45150000  0.46850000  0.94090000  1
  H  H203  1  0.54850000  0.96850000  0.94090000  1
  H  H204  1  0.07430000  0.68860000  0.94320000  1
  H  H205  1  0.92570000  0.18860000  0.94320000  1
  H  H206  1  0.00440000  0.37880000  0.94450000  1
  H  H207  1  0.99560000  0.87880000  0.94450000  1
  H  H208  1  0.10070000  0.38560000  0.95200000  1
  H  H209  1  0.89930000  0.88560000  0.95200000  1
  H  H210  1  0.47920000  0.12760000  0.96670000  1
  H  H211  1  0.52080000  0.62760000  0.96670000  1
  H  H212  1  0.42580000  0.61080000  0.97510000  1
  H  H213  1  0.57420000  0.11080000  0.97510000  1
  H  H214  1  0.08150000  0.99590000  0.97560000  1
  H  H215  1  0.91850000  0.49590000  0.97560000  1
  C  C216  1  0.47800000  0.61190000  0.00210000  1
  C  C217  1  0.52200000  0.11190000  0.00210000  1
  C  C218  1  0.04080000  0.01310000  0.01240000  1
  C  C219  1  0.95920000  0.51310000  0.01240000  1
  C  C220  1  0.04870000  0.10280000  0.02300000  1
  C  C221  1  0.95130000  0.60280000  0.02300000  1
  C  C222  1  0.49680000  0.53020000  0.03140000  1
  C  C223  1  0.50320000  0.03020000  0.03140000  1
  C  C224  1  0.02200000  0.81570000  0.07830000  1
  C  C225  1  0.97800000  0.31570000  0.07830000  1
  C  C226  1  0.46410000  0.21260000  0.09420000  1
  C  C227  1  0.53590000  0.71260000  0.09420000  1
  C  C228  1  0.10770000  0.34600000  0.09800000  1
  C  C229  1  0.89230000  0.84600000  0.09800000  1
  C  C230  1  0.40430000  0.68910000  0.10260000  1
  C  C231  1  0.59570000  0.18910000  0.10260000  1
  C  C232  1  0.00320000  0.28550000  0.14530000  1
  C  C233  1  0.99680000  0.78550000  0.14530000  1
  C  C234  1  0.49610000  0.25540000  0.15120000  1
  C  C235  1  0.50390000  0.75540000  0.15120000  1
  C  C236  1  0.11220000  0.55410000  0.20440000  1
  C  C237  1  0.88780000  0.05410000  0.20440000  1
  C  C238  1  0.15300000  0.95640000  0.21150000  1
  C  C239  1  0.84700000  0.45640000  0.21150000  1
  C  C240  1  0.39190000  0.49410000  0.22350000  1
  C  C241  1  0.60810000  0.99410000  0.22350000  1
  C  C242  1  0.03980000  0.50150000  0.22600000  1
  C  C243  1  0.96020000  0.00150000  0.22600000  1
  C  C244  1  0.34560000  0.09010000  0.22790000  1
  C  C245  1  0.65440000  0.59010000  0.22790000  1
  C  C246  1  0.22050000  0.90020000  0.23300000  1
  C  C247  1  0.77950000  0.40020000  0.23300000  1
  C  C248  1  0.27940000  0.15240000  0.24530000  1
  C  C249  1  0.72060000  0.65240000  0.24530000  1
  C  C250  1  0.46480000  0.54580000  0.24720000  1
  C  C251  1  0.53520000  0.04580000  0.24720000  1
  C  C252  1  0.03520000  0.04580000  0.25280000  1
  C  C253  1  0.96480000  0.54580000  0.25280000  1
  C  C254  1  0.22060000  0.65240000  0.25470000  1
  C  C255  1  0.77940000  0.15240000  0.25470000  1
  C  C256  1  0.27950000  0.40020000  0.26700000  1
  C  C257  1  0.72050000  0.90020000  0.26700000  1
  C  C258  1  0.15440000  0.59010000  0.27210000  1
  C  C259  1  0.84560000  0.09010000  0.27210000  1
  C  C260  1  0.46020000  0.00150000  0.27400000  1
  C  C261  1  0.53980000  0.50150000  0.27400000  1
  C  C262  1  0.10810000  0.99410000  0.27650000  1
  C  C263  1  0.89190000  0.49410000  0.27650000  1
  C  C264  1  0.34700000  0.45640000  0.28850000  1
  C  C265  1  0.65300000  0.95640000  0.28850000  1
  C  C266  1  0.38780000  0.05410000  0.29560000  1
  C  C267  1  0.61220000  0.55410000  0.29560000  1
  C  C268  1  0.00390000  0.75540000  0.34880000  1
  C  C269  1  0.99610000  0.25540000  0.34880000  1
  C  C270  1  0.49680000  0.78550000  0.35470000  1
  C  C271  1  0.50320000  0.28550000  0.35470000  1
  C  C272  1  0.09570000  0.18910000  0.39740000  1
  C  C273  1  0.90430000  0.68910000  0.39740000  1
  C  C274  1  0.39230000  0.84600000  0.40200000  1
  C  C275  1  0.60770000  0.34600000  0.40200000  1
  C  C276  1  0.03590000  0.71260000  0.40580000  1
  C  C277  1  0.96410000  0.21260000  0.40580000  1
  C  C278  1  0.47800000  0.31570000  0.42170000  1
  C  C279  1  0.52200000  0.81570000  0.42170000  1
  C  C280  1  0.00320000  0.03020000  0.46860000  1
  C  C281  1  0.99680000  0.53020000  0.46860000  1
  C  C282  1  0.45130000  0.60280000  0.47700000  1
  C  C283  1  0.54870000  0.10280000  0.47700000  1
  C  C284  1  0.45920000  0.51310000  0.48760000  1
  C  C285  1  0.54080000  0.01310000  0.48760000  1
  C  C286  1  0.02200000  0.11190000  0.49790000  1
  C  C287  1  0.97800000  0.61190000  0.49790000  1
  C  C288  1  0.02200000  0.38810000  0.50210000  1
  C  C289  1  0.97800000  0.88810000  0.50210000  1
  C  C290  1  0.45920000  0.98690000  0.51240000  1
  C  C291  1  0.54080000  0.48690000  0.51240000  1
  C  C292  1  0.45130000  0.89720000  0.52300000  1
  C  C293  1  0.54870000  0.39720000  0.52300000  1
  C  C294  1  0.00320000  0.46980000  0.53140000  1
  C  C295  1  0.99680000  0.96980000  0.53140000  1
  C  C296  1  0.47800000  0.18430000  0.57830000  1
  C  C297  1  0.52200000  0.68430000  0.57830000  1
  C  C298  1  0.03590000  0.78740000  0.59420000  1
  C  C299  1  0.96410000  0.28740000  0.59420000  1
  C  C300  1  0.39230000  0.65400000  0.59800000  1
  C  C301  1  0.60770000  0.15400000  0.59800000  1
  C  C302  1  0.09570000  0.31090000  0.60260000  1
  C  C303  1  0.90430000  0.81090000  0.60260000  1
  C  C304  1  0.49680000  0.71450000  0.64530000  1
  C  C305  1  0.50320000  0.21450000  0.64530000  1
  C  C306  1  0.00390000  0.74460000  0.65120000  1
  C  C307  1  0.99610000  0.24460000  0.65120000  1
  C  C308  1  0.38780000  0.44590000  0.70440000  1
  C  C309  1  0.61220000  0.94590000  0.70440000  1
  C  C310  1  0.34700000  0.04360000  0.71150000  1
  C  C311  1  0.65300000  0.54360000  0.71150000  1
  C  C312  1  0.10810000  0.50590000  0.72350000  1
  C  C313  1  0.89190000  0.00590000  0.72350000  1
  C  C314  1  0.46020000  0.49850000  0.72600000  1
  C  C315  1  0.53980000  0.99850000  0.72600000  1
  C  C316  1  0.15440000  0.90990000  0.72790000  1
  C  C317  1  0.84560000  0.40990000  0.72790000  1
  C  C318  1  0.27950000  0.09980000  0.73300000  1
  C  C319  1  0.72050000  0.59980000  0.73300000  1
  C  C320  1  0.22060000  0.84760000  0.74530000  1
  C  C321  1  0.77940000  0.34760000  0.74530000  1
  C  C322  1  0.03520000  0.45420000  0.74720000  1
  C  C323  1  0.96480000  0.95420000  0.74720000  1
  C  C324  1  0.46480000  0.95420000  0.75280000  1
  C  C325  1  0.53520000  0.45420000  0.75280000  1
  C  C326  1  0.27940000  0.34760000  0.75470000  1
  C  C327  1  0.72060000  0.84760000  0.75470000  1
  C  C328  1  0.22050000  0.59980000  0.76700000  1
  C  C329  1  0.77950000  0.09980000  0.76700000  1
  C  C330  1  0.34560000  0.40990000  0.77210000  1
  C  C331  1  0.65440000  0.90990000  0.77210000  1
  C  C332  1  0.03980000  0.99850000  0.77400000  1
  C  C333  1  0.96020000  0.49850000  0.77400000  1
  C  C334  1  0.39190000  0.00590000  0.77650000  1
  C  C335  1  0.60810000  0.50590000  0.77650000  1
  C  C336  1  0.15300000  0.54360000  0.78850000  1
  C  C337  1  0.84700000  0.04360000  0.78850000  1
  C  C338  1  0.11220000  0.94590000  0.79560000  1
  C  C339  1  0.88780000  0.44590000  0.79560000  1
  C  C340  1  0.49610000  0.24460000  0.84880000  1
  C  C341  1  0.50390000  0.74460000  0.84880000  1
  C  C342  1  0.00320000  0.21450000  0.85470000  1
  C  C343  1  0.99680000  0.71450000  0.85470000  1
  C  C344  1  0.40430000  0.81090000  0.89740000  1
  C  C345  1  0.59570000  0.31090000  0.89740000  1
  C  C346  1  0.10770000  0.15400000  0.90200000  1
  C  C347  1  0.89230000  0.65400000  0.90200000  1
  C  C348  1  0.46410000  0.28740000  0.90580000  1
  C  C349  1  0.53590000  0.78740000  0.90580000  1
  C  C350  1  0.02200000  0.68430000  0.92170000  1
  C  C351  1  0.97800000  0.18430000  0.92170000  1
  C  C352  1  0.49680000  0.96980000  0.96860000  1
  C  C353  1  0.50320000  0.46980000  0.96860000  1
  C  C354  1  0.04870000  0.39720000  0.97700000  1
  C  C355  1  0.95130000  0.89720000  0.97700000  1
  C  C356  1  0.04080000  0.48690000  0.98760000  1
  C  C357  1  0.95920000  0.98690000  0.98760000  1
  C  C358  1  0.47800000  0.88810000  0.99790000  1
  C  C359  1  0.52200000  0.38810000  0.99790000  1
  N  N360  1  0.04550000  0.35380000  0.04880000  1
  N  N361  1  0.95450000  0.85380000  0.04880000  1
  N  N362  1  0.47310000  0.67070000  0.06310000  1
  N  N363  1  0.52690000  0.17070000  0.06310000  1
  N  N364  1  0.42140000  0.74080000  0.15700000  1
  N  N365  1  0.57860000  0.24080000  0.15700000  1
  N  N366  1  0.08450000  0.30350000  0.15740000  1
  N  N367  1  0.91550000  0.80350000  0.15740000  1
  N  N368  1  0.41550000  0.80350000  0.34260000  1
  N  N369  1  0.58450000  0.30350000  0.34260000  1
  N  N370  1  0.07860000  0.24080000  0.34300000  1
  N  N371  1  0.92140000  0.74080000  0.34300000  1
  N  N372  1  0.02690000  0.17070000  0.43690000  1
  N  N373  1  0.97310000  0.67070000  0.43690000  1
  N  N374  1  0.45450000  0.85380000  0.45120000  1
  N  N375  1  0.54550000  0.35380000  0.45120000  1
  N  N376  1  0.45450000  0.64620000  0.54880000  1
  N  N377  1  0.54550000  0.14620000  0.54880000  1
  N  N378  1  0.02690000  0.32930000  0.56310000  1
  N  N379  1  0.97310000  0.82930000  0.56310000  1
  N  N380  1  0.07860000  0.25920000  0.65700000  1
  N  N381  1  0.92140000  0.75920000  0.65700000  1
  N  N382  1  0.41550000  0.69650000  0.65740000  1
  N  N383  1  0.58450000  0.19650000  0.65740000  1
  N  N384  1  0.08450000  0.19650000  0.84260000  1
  N  N385  1  0.91550000  0.69650000  0.84260000  1
  N  N386  1  0.42140000  0.75920000  0.84300000  1
  N  N387  1  0.57860000  0.25920000  0.84300000  1
  N  N388  1  0.47310000  0.82930000  0.93690000  1
  N  N389  1  0.52690000  0.32930000  0.93690000  1
  N  N390  1  0.04550000  0.14620000  0.95120000  1
  N  N391  1  0.95450000  0.64620000  0.95120000  1
  O  O392  1  0.27250000  0.88290000  0.18240000  1
  O  O393  1  0.72750000  0.38290000  0.18240000  1
  O  O394  1  0.23150000  0.17030000  0.19210000  1
  O  O395  1  0.76850000  0.67030000  0.19210000  1
  O  O396  1  0.22540000  0.68690000  0.19310000  1
  O  O397  1  0.77460000  0.18690000  0.19310000  1
  O  O398  1  0.27660000  0.36730000  0.20430000  1
  O  O399  1  0.72340000  0.86730000  0.20430000  1
  O  O400  1  0.22340000  0.86730000  0.29570000  1
  O  O401  1  0.77660000  0.36730000  0.29570000  1
  O  O402  1  0.27460000  0.18690000  0.30690000  1
  O  O403  1  0.72540000  0.68690000  0.30690000  1
  O  O404  1  0.26850000  0.67030000  0.30790000  1
  O  O405  1  0.73150000  0.17030000  0.30790000  1
  O  O406  1  0.22750000  0.38290000  0.31760000  1
  O  O407  1  0.77250000  0.88290000  0.31760000  1
  O  O408  1  0.22750000  0.11710000  0.68240000  1
  O  O409  1  0.77250000  0.61710000  0.68240000  1
  O  O410  1  0.26850000  0.82970000  0.69210000  1
  O  O411  1  0.73150000  0.32970000  0.69210000  1
  O  O412  1  0.27460000  0.31310000  0.69310000  1
  O  O413  1  0.72540000  0.81310000  0.69310000  1
  O  O414  1  0.22340000  0.63270000  0.70430000  1
  O  O415  1  0.77660000  0.13270000  0.70430000  1
  O  O416  1  0.27660000  0.13270000  0.79570000  1
  O  O417  1  0.72340000  0.63270000  0.79570000  1
  O  O418  1  0.22540000  0.81310000  0.80690000  1
  O  O419  1  0.77460000  0.31310000  0.80690000  1
  O  O420  1  0.23150000  0.32970000  0.80790000  1
  O  O421  1  0.76850000  0.82970000  0.80790000  1
  O  O422  1  0.27250000  0.61710000  0.81760000  1
  O  O423  1  0.72750000  0.11710000  0.81760000  1
