# generated using pymatgen
data_Ni2H19C19N3O11
_symmetry_space_group_name_H-M   'P 1'
_cell_length_a   7.04800000
_cell_length_b   14.11977282
_cell_length_c   14.11977282
_cell_angle_alpha   76.86561248
_cell_angle_beta   84.47506197
_cell_angle_gamma   84.47506197
_symmetry_Int_Tables_number   1
_chemical_formula_structural   Ni2H19C19N3O11
_chemical_formula_sum   'Ni4 H38 C38 N6 O22'
_cell_volume   1358.01148572
_cell_formula_units_Z   2
loop_
 _symmetry_equiv_pos_site_id
 _symmetry_equiv_pos_as_xyz
  1  'x, y, z'
loop_
 _atom_site_type_symbol
 _atom_site_label
 _atom_site_symmetry_multiplicity
 _atom_site_fract_x
 _atom_site_fract_y
 _atom_site_fract_z
 _atom_site_occupancy
  C  C0  1  0.50000000  0.04330000  0.95670000  1
  C  C1  1  0.50000000  0.19440000  0.80560000  1
  C  C2  1  0.50000000  0.80560000  0.19440000  1
  C  C3  1  0.50000000  0.95670000  0.04330000  1
  C  C4  1  0.50340000  0.46630000  0.46630000  1
  C  C5  1  0.58980000  0.10650000  0.79870000  1
  C  C6  1  0.58980000  0.79870000  0.10650000  1
  C  C7  1  0.50860000  0.36580000  0.49980000  1
  C  C8  1  0.50860000  0.49980000  0.36580000  1
  C  C9  1  0.51940000  0.30480000  0.43380000  1
  C  C10  1  0.51940000  0.43380000  0.30480000  1
  C  C11  1  0.20110000  0.92990000  0.67690000  1
  C  C12  1  0.20110000  0.67690000  0.92990000  1
  C  C13  1  0.07420000  0.98524000  0.59724000  1
  C  C14  1  0.07420000  0.59724000  0.98524000  1
  C  C15  1  0.78960000  0.88772000  0.67072000  1
  C  C16  1  0.78960000  0.67072000  0.88772000  1
  C  C17  1  0.20100000  0.01840000  0.50300000  1
  C  C18  1  0.20100000  0.50300000  0.01840000  1
  C  C19  1  0.92070000  0.92330000  0.57930000  1
  C  C20  1  0.92070000  0.57930000  0.92330000  1
  C  C21  1  0.07930000  0.07670000  0.42070000  1
  C  C22  1  0.07930000  0.42070000  0.07670000  1
  C  C23  1  0.79900000  0.98160000  0.49700000  1
  C  C24  1  0.79900000  0.49700000  0.98160000  1
  C  C25  1  0.21040000  0.11228000  0.32928000  1
  C  C26  1  0.21040000  0.32928000  0.11228000  1
  C  C27  1  0.92580000  0.01476000  0.40276000  1
  C  C28  1  0.92580000  0.40276000  0.01476000  1
  C  C29  1  0.79890000  0.07010000  0.32310000  1
  C  C30  1  0.79890000  0.32310000  0.07010000  1
  C  C31  1  0.48060000  0.69520000  0.56620000  1
  C  C32  1  0.48060000  0.56620000  0.69520000  1
  C  C33  1  0.49140000  0.63420000  0.50020000  1
  C  C34  1  0.49140000  0.50020000  0.63420000  1
  C  C35  1  0.41020000  0.89350000  0.20130000  1
  C  C36  1  0.41020000  0.20130000  0.89350000  1
  C  C37  1  0.49660000  0.53370000  0.53370000  1
  H  H38  1  0.50000000  0.24850000  0.75150000  1
  H  H39  1  0.50000000  0.75150000  0.24850000  1
  H  H40  1  0.50470000  0.33840000  0.56800000  1
  H  H41  1  0.50470000  0.56800000  0.33840000  1
  H  H42  1  0.65350000  0.09850000  0.73830000  1
  H  H43  1  0.65350000  0.73830000  0.09850000  1
  H  H44  1  0.22820000  0.03740000  0.71740000  1
  H  H45  1  0.22820000  0.71740000  0.03740000  1
  H  H46  1  0.38570000  0.90210000  0.82590000  1
  H  H47  1  0.38570000  0.82590000  0.90210000  1
  H  H48  1  0.52330000  0.23630000  0.45870000  1
  H  H49  1  0.52330000  0.45870000  0.23630000  1
  H  H50  1  0.00980000  0.04430000  0.61790000  1
  H  H51  1  0.00980000  0.61790000  0.04430000  1
  H  H52  1  0.01390000  0.13510000  0.44230000  1
  H  H53  1  0.01390000  0.44230000  0.13510000  1
  H  H54  1  0.29790000  0.05980000  0.51500000  1
  H  H55  1  0.29790000  0.51500000  0.05980000  1
  H  H56  1  0.73110000  0.03930000  0.51730000  1
  H  H57  1  0.73110000  0.51730000  0.03930000  1
  H  H58  1  0.26890000  0.96070000  0.48270000  1
  H  H59  1  0.26890000  0.48270000  0.96070000  1
  H  H60  1  0.70210000  0.94020000  0.48500000  1
  H  H61  1  0.70210000  0.48500000  0.94020000  1
  H  H62  1  0.98610000  0.86490000  0.55770000  1
  H  H63  1  0.98610000  0.55770000  0.86490000  1
  H  H64  1  0.99020000  0.95570000  0.38210000  1
  H  H65  1  0.99020000  0.38210000  0.95570000  1
  H  H66  1  0.47670000  0.76370000  0.54130000  1
  H  H67  1  0.47670000  0.54130000  0.76370000  1
  H  H68  1  0.61430000  0.09790000  0.17410000  1
  H  H69  1  0.61430000  0.17410000  0.09790000  1
  H  H70  1  0.77180000  0.96260000  0.28260000  1
  H  H71  1  0.77180000  0.28260000  0.96260000  1
  H  H72  1  0.34650000  0.90150000  0.26170000  1
  H  H73  1  0.34650000  0.26170000  0.90150000  1
  H  H74  1  0.49530000  0.66160000  0.43200000  1
  H  H75  1  0.49530000  0.43200000  0.66160000  1
  N  N76  1  0.59040000  0.02984000  0.87632000  1
  N  N77  1  0.59040000  0.87632000  0.02984000  1
  N  N78  1  0.52440000  0.33820000  0.33820000  1
  N  N79  1  0.47560000  0.66180000  0.66180000  1
  N  N80  1  0.40960000  0.97016000  0.12368000  1
  N  N81  1  0.40960000  0.12368000  0.97016000  1
  Ni  Ni82  1  0.70499000  0.88553000  0.88553000  1
  Ni  Ni83  1  0.46905000  0.75577000  0.75577000  1
  Ni  Ni84  1  0.53095000  0.24423000  0.24423000  1
  Ni  Ni85  1  0.29501000  0.11447000  0.11447000  1
  O  O86  1  0.68600000  0.15510000  0.66850000  1
  O  O87  1  0.68600000  0.66850000  0.15510000  1
  O  O88  1  0.24310000  0.97602000  0.73830000  1
  O  O89  1  0.24310000  0.73830000  0.97602000  1
  O  O90  1  0.45170000  0.85010000  0.85010000  1
  O  O91  1  0.80810000  0.91947000  0.74487000  1
  O  O92  1  0.80810000  0.74487000  0.91947000  1
  O  O93  1  0.25860000  0.84341000  0.67653000  1
  O  O94  1  0.25860000  0.67653000  0.84341000  1
  O  O95  1  0.32750000  0.17108000  0.33678000  1
  O  O96  1  0.32750000  0.33678000  0.17108000  1
  O  O97  1  0.67250000  0.82892000  0.66322000  1
  O  O98  1  0.67250000  0.66322000  0.82892000  1
  O  O99  1  0.74140000  0.15659000  0.32347000  1
  O  O100  1  0.74140000  0.32347000  0.15659000  1
  O  O101  1  0.19190000  0.08053000  0.25513000  1
  O  O102  1  0.19190000  0.25513000  0.08053000  1
  O  O103  1  0.54830000  0.14990000  0.14990000  1
  O  O104  1  0.75690000  0.02398000  0.26170000  1
  O  O105  1  0.75690000  0.26170000  0.02398000  1
  O  O106  1  0.31400000  0.84490000  0.33150000  1
  O  O107  1  0.31400000  0.33150000  0.84490000  1
