# generated using pymatgen
data_ZnH30C44(N5O2)2
_symmetry_space_group_name_H-M   'P 1'
_cell_length_a   9.30860000
_cell_length_b   21.18290000
_cell_length_c   21.45600000
_cell_angle_alpha   90.00000000
_cell_angle_beta   90.00000000
_cell_angle_gamma   90.00000000
_symmetry_Int_Tables_number   1
_chemical_formula_structural   ZnH30C44(N5O2)2
_chemical_formula_sum   'Zn4 H120 C176 N40 O16'
_cell_volume   4230.76151492
_cell_formula_units_Z   4
loop_
 _symmetry_equiv_pos_site_id
 _symmetry_equiv_pos_as_xyz
  1  'x, y, z'
loop_
 _atom_site_type_symbol
 _atom_site_label
 _atom_site_symmetry_multiplicity
 _atom_site_fract_x
 _atom_site_fract_y
 _atom_site_fract_z
 _atom_site_occupancy
  Zn  Zn0  1  0.07725000  0.00286000  0.35337000  1
  Zn  Zn1  1  0.42275000  0.99714000  0.85337000  1
  Zn  Zn2  1  0.57725000  0.49714000  0.64663000  1
  Zn  Zn3  1  0.92275000  0.50286000  0.14663000  1
  H  H4  1  0.00472000  0.86443000  0.30524000  1
  H  H5  1  0.00654000  0.64558000  0.45705000  1
  H  H6  1  0.02453000  0.56895000  0.94538000  1
  H  H7  1  0.02456000  0.82793000  0.55446000  1
  H  H8  1  0.02846000  0.38296000  0.45268000  1
  H  H9  1  0.03231000  0.82576000  0.78652000  1
  H  H10  1  0.06081000  0.67162000  0.69541000  1
  H  H11  1  0.06319000  0.27370000  0.31490000  1
  H  H12  1  0.06499000  0.26901000  0.02754000  1
  H  H13  1  0.07923000  0.09678000  0.86618000  1
  H  H14  1  0.08321000  0.74725000  0.10255000  1
  H  H15  1  0.09781000  0.04328000  0.64427000  1
  H  H16  1  0.10602000  0.24883000  0.57186000  1
  H  H17  1  0.10656000  0.94026000  0.85794000  1
  H  H18  1  0.10703000  0.81161000  0.89968000  1
  H  H19  1  0.12943000  0.62323000  0.10909000  1
  H  H20  1  0.14867000  0.55289000  0.64200000  1
  H  H21  1  0.15392000  0.42608000  0.62651000  1
  H  H22  1  0.15868000  0.24457000  0.11777000  1
  H  H23  1  0.16648000  0.64257000  0.25418000  1
  H  H24  1  0.17038000  0.99534000  0.49686000  1
  H  H25  1  0.18408000  0.02969000  0.74585000  1
  H  H26  1  0.20566000  0.19702000  0.87584000  1
  H  H27  1  0.21602000  0.22425000  0.66494000  1
  H  H28  1  0.23449000  0.60289000  0.46697000  1
  H  H29  1  0.23826000  0.17210000  0.18933000  1
  H  H30  1  0.24375000  0.15662000  0.47958000  1
  H  H31  1  0.24482000  0.33265000  0.43589000  1
  H  H32  1  0.24676000  0.87563000  0.54655000  1
  H  H33  1  0.24696000  0.71230000  0.32870000  1
  H  H34  1  0.25304000  0.28770000  0.82870000  1
  H  H35  1  0.25324000  0.12437000  0.04655000  1
  H  H36  1  0.25518000  0.66735000  0.93589000  1
  H  H37  1  0.25625000  0.84338000  0.97958000  1
  H  H38  1  0.26174000  0.82790000  0.68933000  1
  H  H39  1  0.26551000  0.39711000  0.96697000  1
  H  H40  1  0.28398000  0.77575000  0.16494000  1
  H  H41  1  0.29434000  0.80298000  0.37584000  1
  H  H42  1  0.31592000  0.97031000  0.24585000  1
  H  H43  1  0.32962000  0.00466000  0.99686000  1
  H  H44  1  0.33352000  0.35743000  0.75418000  1
  H  H45  1  0.34132000  0.75543000  0.61777000  1
  H  H46  1  0.34608000  0.57392000  0.12651000  1
  H  H47  1  0.35133000  0.44711000  0.14200000  1
  H  H48  1  0.37057000  0.37677000  0.60909000  1
  H  H49  1  0.39297000  0.18839000  0.39968000  1
  H  H50  1  0.39344000  0.05974000  0.35794000  1
  H  H51  1  0.39398000  0.75117000  0.07186000  1
  H  H52  1  0.40219000  0.95672000  0.14427000  1
  H  H53  1  0.41679000  0.25275000  0.60255000  1
  H  H54  1  0.42077000  0.90322000  0.36618000  1
  H  H55  1  0.43501000  0.73099000  0.52754000  1
  H  H56  1  0.43681000  0.72630000  0.81490000  1
  H  H57  1  0.43919000  0.32838000  0.19541000  1
  H  H58  1  0.46769000  0.17424000  0.28652000  1
  H  H59  1  0.47154000  0.61704000  0.95268000  1
  H  H60  1  0.47544000  0.17207000  0.05446000  1
  H  H61  1  0.47547000  0.43105000  0.44538000  1
  H  H62  1  0.49346000  0.35442000  0.95705000  1
  H  H63  1  0.49528000  0.13557000  0.80524000  1
  H  H64  1  0.50472000  0.63557000  0.69476000  1
  H  H65  1  0.50654000  0.85442000  0.54295000  1
  H  H66  1  0.52453000  0.93105000  0.05462000  1
  H  H67  1  0.52456000  0.67207000  0.44554000  1
  H  H68  1  0.52846000  0.11704000  0.54732000  1
  H  H69  1  0.53231000  0.67424000  0.21348000  1
  H  H70  1  0.56081000  0.82838000  0.30459000  1
  H  H71  1  0.56319000  0.22630000  0.68510000  1
  H  H72  1  0.56499000  0.23099000  0.97246000  1
  H  H73  1  0.57923000  0.40322000  0.13382000  1
  H  H74  1  0.58321000  0.75275000  0.89745000  1
  H  H75  1  0.59781000  0.45672000  0.35573000  1
  H  H76  1  0.60602000  0.25117000  0.42814000  1
  H  H77  1  0.60656000  0.55974000  0.14206000  1
  H  H78  1  0.60703000  0.68839000  0.10032000  1
  H  H79  1  0.62943000  0.87677000  0.89091000  1
  H  H80  1  0.64867000  0.94711000  0.35800000  1
  H  H81  1  0.65392000  0.07392000  0.37349000  1
  H  H82  1  0.65868000  0.25543000  0.88223000  1
  H  H83  1  0.66648000  0.85743000  0.74582000  1
  H  H84  1  0.67038000  0.50466000  0.50314000  1
  H  H85  1  0.68408000  0.47031000  0.25415000  1
  H  H86  1  0.70566000  0.30298000  0.12416000  1
  H  H87  1  0.71602000  0.27575000  0.33506000  1
  H  H88  1  0.73449000  0.89711000  0.53303000  1
  H  H89  1  0.73826000  0.32790000  0.81067000  1
  H  H90  1  0.74375000  0.34338000  0.52042000  1
  H  H91  1  0.74482000  0.16735000  0.56411000  1
  H  H92  1  0.74676000  0.62437000  0.45345000  1
  H  H93  1  0.74696000  0.78770000  0.67130000  1
  H  H94  1  0.75304000  0.21230000  0.17130000  1
  H  H95  1  0.75324000  0.37563000  0.95345000  1
  H  H96  1  0.75518000  0.83265000  0.06411000  1
  H  H97  1  0.75625000  0.65662000  0.02042000  1
  H  H98  1  0.76174000  0.67210000  0.31067000  1
  H  H99  1  0.76551000  0.10289000  0.03303000  1
  H  H100  1  0.78398000  0.72425000  0.83506000  1
  H  H101  1  0.79434000  0.69702000  0.62416000  1
  H  H102  1  0.81592000  0.52969000  0.75415000  1
  H  H103  1  0.82962000  0.49534000  0.00314000  1
  H  H104  1  0.83352000  0.14257000  0.24582000  1
  H  H105  1  0.84132000  0.74457000  0.38223000  1
  H  H106  1  0.84608000  0.92608000  0.87349000  1
  H  H107  1  0.85133000  0.05289000  0.85800000  1
  H  H108  1  0.87057000  0.12323000  0.39091000  1
  H  H109  1  0.89297000  0.31161000  0.60032000  1
  H  H110  1  0.89344000  0.44026000  0.64206000  1
  H  H111  1  0.89398000  0.74883000  0.92814000  1
  H  H112  1  0.90219000  0.54328000  0.85573000  1
  H  H113  1  0.91679000  0.24725000  0.39745000  1
  H  H114  1  0.92077000  0.59678000  0.63382000  1
  H  H115  1  0.93501000  0.76901000  0.47246000  1
  H  H116  1  0.93681000  0.77370000  0.18510000  1
  H  H117  1  0.93919000  0.17162000  0.80459000  1
  H  H118  1  0.96769000  0.32576000  0.71348000  1
  H  H119  1  0.97154000  0.88296000  0.04732000  1
  H  H120  1  0.97544000  0.32793000  0.94554000  1
  H  H121  1  0.97547000  0.06895000  0.55462000  1
  H  H122  1  0.99346000  0.14558000  0.04295000  1
  H  H123  1  0.99528000  0.36443000  0.19476000  1
  C  C124  1  0.01160000  0.23340000  0.39710000  1
  C  C125  1  0.01650000  0.09860000  0.89990000  1
  C  C126  1  0.02560000  0.78720000  0.46930000  1
  C  C127  1  0.02680000  0.09980000  0.57590000  1
  C  C128  1  0.03100000  0.16100000  0.55320000  1
  C  C129  1  0.03480000  0.62790000  0.49480000  1
  C  C130  1  0.04450000  0.14760000  0.22410000  1
  C  C131  1  0.05430000  0.73550000  0.36500000  1
  C  C132  1  0.05950000  0.12730000  0.95520000  1
  C  C133  1  0.06060000  0.78610000  0.77260000  1
  C  C134  1  0.06110000  0.19623000  0.44610000  1
  C  C135  1  0.07070000  0.41035000  0.54120000  1
  C  C136  1  0.07860000  0.70320000  0.72450000  1
  C  C137  1  0.07880000  0.82300000  0.51840000  1
  C  C138  1  0.08230000  0.87890000  0.28190000  1
  C  C139  1  0.09240000  0.22320000  0.14240000  1
  C  C140  1  0.09750000  0.38190000  0.48400000  1
  C  C141  1  0.09830000  0.08460000  0.62970000  1
  C  C142  1  0.09830000  0.09940000  0.26990000  1
  C  C143  1  0.09930000  0.25040000  0.34810000  1
  C  C144  1  0.10100000  0.66180000  0.28090000  1
  C  C145  1  0.10350000  0.20760000  0.58680000  1
  C  C146  1  0.10640000  0.77830000  0.41520000  1
  C  C147  1  0.12100000  0.57250000  0.60510000  1
  C  C148  1  0.13530000  0.45430000  0.06090000  1
  C  C149  1  0.13660000  0.95140000  0.89780000  1
  C  C150  1  0.14030000  0.17990000  0.18570000  1
  C  C151  1  0.14900000  0.70440000  0.32530000  1
  C  C152  1  0.16770000  0.64900000  0.02040000  1
  C  C153  1  0.17090000  0.13080000  0.66220000  1
  C  C154  1  0.17090000  0.19300000  0.64170000  1
  C  C155  1  0.17210000  0.60200000  0.50080000  1
  C  C156  1  0.17280000  0.40780000  0.58790000  1
  C  C157  1  0.19760000  0.62170000  0.07740000  1
  C  C158  1  0.20410000  0.80130000  0.89860000  1
  C  C159  1  0.20560000  0.15660000  0.96070000  1
  C  C160  1  0.20670000  0.18010000  0.44660000  1
  C  C161  1  0.21220000  0.85120000  0.51380000  1
  C  C162  1  0.21630000  0.57550000  0.55580000  1
  C  C163  1  0.22720000  0.35220000  0.47400000  1
  C  C164  1  0.23980000  0.80760000  0.41190000  1
  C  C165  1  0.24170000  0.23220000  0.34920000  1
  C  C166  1  0.24410000  0.01410000  0.47420000  1
  C  C167  1  0.24910000  0.06260000  0.75090000  1
  C  C168  1  0.25090000  0.93740000  0.25090000  1
  C  C169  1  0.25590000  0.98590000  0.97420000  1
  C  C170  1  0.25830000  0.76780000  0.84920000  1
  C  C171  1  0.26020000  0.19240000  0.91190000  1
  C  C172  1  0.27280000  0.64780000  0.97400000  1
  C  C173  1  0.28370000  0.42450000  0.05580000  1
  C  C174  1  0.28780000  0.14880000  0.01380000  1
  C  C175  1  0.29330000  0.81990000  0.94660000  1
  C  C176  1  0.29440000  0.84340000  0.46070000  1
  C  C177  1  0.29590000  0.19870000  0.39860000  1
  C  C178  1  0.30240000  0.37830000  0.57740000  1
  C  C179  1  0.32720000  0.59220000  0.08790000  1
  C  C180  1  0.32790000  0.39800000  0.00080000  1
  C  C181  1  0.32910000  0.80700000  0.14170000  1
  C  C182  1  0.32910000  0.86920000  0.16220000  1
  C  C183  1  0.33230000  0.35100000  0.52040000  1
  C  C184  1  0.35100000  0.29560000  0.82530000  1
  C  C185  1  0.35970000  0.82010000  0.68570000  1
  C  C186  1  0.36340000  0.04860000  0.39780000  1
  C  C187  1  0.36470000  0.54570000  0.56090000  1
  C  C188  1  0.37900000  0.42750000  0.10510000  1
  C  C189  1  0.39360000  0.22170000  0.91520000  1
  C  C190  1  0.39650000  0.79240000  0.08680000  1
  C  C191  1  0.39900000  0.33820000  0.78090000  1
  C  C192  1  0.40070000  0.74960000  0.84810000  1
  C  C193  1  0.40170000  0.90060000  0.76990000  1
  C  C194  1  0.40170000  0.91540000  0.12970000  1
  C  C195  1  0.40250000  0.61810000  0.98400000  1
  C  C196  1  0.40760000  0.77680000  0.64240000  1
  C  C197  1  0.41770000  0.12110000  0.78190000  1
  C  C198  1  0.42120000  0.17700000  0.01840000  1
  C  C199  1  0.42140000  0.29680000  0.22450000  1
  C  C200  1  0.42930000  0.58965000  0.04120000  1
  C  C201  1  0.43890000  0.80377000  0.94610000  1
  C  C202  1  0.43940000  0.21390000  0.27260000  1
  C  C203  1  0.44050000  0.87270000  0.45520000  1
  C  C204  1  0.44570000  0.26450000  0.86500000  1
  C  C205  1  0.45550000  0.85240000  0.72410000  1
  C  C206  1  0.46520000  0.37210000  0.99480000  1
  C  C207  1  0.46900000  0.83900000  0.05320000  1
  C  C208  1  0.47320000  0.90020000  0.07590000  1
  C  C209  1  0.47440000  0.21280000  0.96930000  1
  C  C210  1  0.48350000  0.90140000  0.39990000  1
  C  C211  1  0.48840000  0.76660000  0.89710000  1
  C  C212  1  0.51160000  0.26660000  0.60290000  1
  C  C213  1  0.51650000  0.40140000  0.10010000  1
  C  C214  1  0.52560000  0.71280000  0.53070000  1
  C  C215  1  0.52680000  0.40020000  0.42410000  1
  C  C216  1  0.53100000  0.33900000  0.44680000  1
  C  C217  1  0.53480000  0.87210000  0.50520000  1
  C  C218  1  0.54450000  0.35240000  0.77590000  1
  C  C219  1  0.55430000  0.76450000  0.63500000  1
  C  C220  1  0.55950000  0.37270000  0.04480000  1
  C  C221  1  0.56060000  0.71390000  0.22740000  1
  C  C222  1  0.56110000  0.30377000  0.55390000  1
  C  C223  1  0.57070000  0.08965000  0.45880000  1
  C  C224  1  0.57860000  0.79680000  0.27550000  1
  C  C225  1  0.57880000  0.67700000  0.48160000  1
  C  C226  1  0.58230000  0.62110000  0.71810000  1
  C  C227  1  0.59240000  0.27680000  0.85760000  1
  C  C228  1  0.59750000  0.11810000  0.51600000  1
  C  C229  1  0.59830000  0.40060000  0.73010000  1
  C  C230  1  0.59830000  0.41540000  0.37030000  1
  C  C231  1  0.59930000  0.24960000  0.65190000  1
  C  C232  1  0.60100000  0.83820000  0.71910000  1
  C  C233  1  0.60350000  0.29240000  0.41320000  1
  C  C234  1  0.60640000  0.72170000  0.58480000  1
  C  C235  1  0.62100000  0.92750000  0.39490000  1
  C  C236  1  0.63530000  0.04570000  0.93910000  1
  C  C237  1  0.63660000  0.54860000  0.10220000  1
  C  C238  1  0.64030000  0.32010000  0.81430000  1
  C  C239  1  0.64900000  0.79560000  0.67470000  1
  C  C240  1  0.66770000  0.85100000  0.97960000  1
  C  C241  1  0.67090000  0.30700000  0.35830000  1
  C  C242  1  0.67090000  0.36920000  0.33780000  1
  C  C243  1  0.67210000  0.89800000  0.49920000  1
  C  C244  1  0.67280000  0.09220000  0.41210000  1
  C  C245  1  0.69760000  0.87830000  0.92260000  1
  C  C246  1  0.70410000  0.69870000  0.10140000  1
  C  C247  1  0.70560000  0.34340000  0.03930000  1
  C  C248  1  0.70670000  0.31990000  0.55340000  1
  C  C249  1  0.71220000  0.64880000  0.48620000  1
  C  C250  1  0.71630000  0.92450000  0.44420000  1
  C  C251  1  0.72720000  0.14780000  0.52600000  1
  C  C252  1  0.73980000  0.69240000  0.58810000  1
  C  C253  1  0.74170000  0.26780000  0.65080000  1
  C  C254  1  0.74410000  0.48590000  0.52580000  1
  C  C255  1  0.74910000  0.43740000  0.24910000  1
  C  C256  1  0.75090000  0.56260000  0.74910000  1
  C  C257  1  0.75590000  0.51410000  0.02580000  1
  C  C258  1  0.75830000  0.73220000  0.15080000  1
  C  C259  1  0.76020000  0.30760000  0.08810000  1
  C  C260  1  0.77280000  0.85220000  0.02600000  1
  C  C261  1  0.78370000  0.07550000  0.94420000  1
  C  C262  1  0.78780000  0.35120000  0.98620000  1
  C  C263  1  0.79330000  0.68010000  0.05340000  1
  C  C264  1  0.79440000  0.65660000  0.53930000  1
  C  C265  1  0.79590000  0.30130000  0.60140000  1
  C  C266  1  0.80240000  0.12170000  0.42260000  1
  C  C267  1  0.82720000  0.90780000  0.91210000  1
  C  C268  1  0.82790000  0.10200000  0.99920000  1
  C  C269  1  0.82910000  0.63080000  0.83780000  1
  C  C270  1  0.82910000  0.69300000  0.85830000  1
  C  C271  1  0.83230000  0.14900000  0.47960000  1
  C  C272  1  0.85100000  0.20440000  0.17470000  1
  C  C273  1  0.85970000  0.67990000  0.31430000  1
  C  C274  1  0.86340000  0.45140000  0.60220000  1
  C  C275  1  0.86470000  0.95430000  0.43910000  1
  C  C276  1  0.87900000  0.07250000  0.89490000  1
  C  C277  1  0.89360000  0.27830000  0.08480000  1
  C  C278  1  0.89650000  0.70760000  0.91320000  1
  C  C279  1  0.89900000  0.16180000  0.21910000  1
  C  C280  1  0.90070000  0.75040000  0.15190000  1
  C  C281  1  0.90170000  0.58460000  0.87030000  1
  C  C282  1  0.90170000  0.59940000  0.23010000  1
  C  C283  1  0.90250000  0.88190000  0.01600000  1
  C  C284  1  0.90760000  0.72320000  0.35760000  1
  C  C285  1  0.91770000  0.37890000  0.21810000  1
  C  C286  1  0.92120000  0.32300000  0.98160000  1
  C  C287  1  0.92140000  0.20320000  0.77550000  1
  C  C288  1  0.92930000  0.91035000  0.95880000  1
  C  C289  1  0.93890000  0.69623000  0.05390000  1
  C  C290  1  0.93940000  0.28610000  0.72740000  1
  C  C291  1  0.94050000  0.62730000  0.54480000  1
  C  C292  1  0.94570000  0.23550000  0.13500000  1
  C  C293  1  0.95550000  0.64760000  0.27590000  1
  C  C294  1  0.96520000  0.12790000  0.00520000  1
  C  C295  1  0.96900000  0.66100000  0.94680000  1
  C  C296  1  0.97320000  0.59980000  0.92410000  1
  C  C297  1  0.97440000  0.28720000  0.03070000  1
  C  C298  1  0.98350000  0.59860000  0.60010000  1
  C  C299  1  0.98840000  0.73340000  0.10290000  1
  N  N300  1  0.00220000  0.75680000  0.72500000  1
  N  N301  1  0.03180000  0.67610000  0.00628000  1
  N  N302  1  0.06250000  0.94227000  0.95004000  1
  N  N303  1  0.13740000  0.84668000  0.23577000  1
  N  N304  1  0.13790000  0.96404000  0.00026000  1
  N  N305  1  0.14790000  0.93543000  0.29324000  1
  N  N306  1  0.16640000  0.75190000  0.79876000  1
  N  N307  1  0.18100000  0.69700000  0.76750000  1
  N  N308  1  0.23940000  0.02110000  0.41190000  1
  N  N309  1  0.24780000  0.88536000  0.21677000  1
  N  N310  1  0.25220000  0.11464000  0.71677000  1
  N  N311  1  0.26060000  0.97890000  0.91190000  1
  N  N312  1  0.31900000  0.30300000  0.26750000  1
  N  N313  1  0.33360000  0.24810000  0.29876000  1
  N  N314  1  0.35210000  0.06457000  0.79324000  1
  N  N315  1  0.36210000  0.03596000  0.50026000  1
  N  N316  1  0.36260000  0.15332000  0.73577000  1
  N  N317  1  0.43750000  0.05773000  0.45004000  1
  N  N318  1  0.46820000  0.32390000  0.50628000  1
  N  N319  1  0.49780000  0.24320000  0.22500000  1
  N  N320  1  0.50220000  0.74320000  0.27500000  1
  N  N321  1  0.53180000  0.82390000  0.99372000  1
  N  N322  1  0.56250000  0.55773000  0.04996000  1
  N  N323  1  0.63740000  0.65332000  0.76423000  1
  N  N324  1  0.63790000  0.53596000  0.99974000  1
  N  N325  1  0.64790000  0.56457000  0.70676000  1
  N  N326  1  0.66640000  0.74810000  0.20124000  1
  N  N327  1  0.68100000  0.80300000  0.23250000  1
  N  N328  1  0.73940000  0.47890000  0.58810000  1
  N  N329  1  0.74780000  0.61464000  0.78323000  1
  N  N330  1  0.75220000  0.38536000  0.28323000  1
  N  N331  1  0.76060000  0.52110000  0.08810000  1
  N  N332  1  0.81900000  0.19700000  0.73250000  1
  N  N333  1  0.83360000  0.25190000  0.70124000  1
  N  N334  1  0.85210000  0.43543000  0.20676000  1
  N  N335  1  0.86210000  0.46404000  0.49974000  1
  N  N336  1  0.86260000  0.34668000  0.26423000  1
  N  N337  1  0.93750000  0.44227000  0.54996000  1
  N  N338  1  0.96820000  0.17610000  0.49372000  1
  N  N339  1  0.99780000  0.25680000  0.77500000  1
  O  O340  1  0.00350000  0.07453000  0.30556000  1
  O  O341  1  0.07090000  0.47045000  0.01435000  1
  O  O342  1  0.09280000  0.46123000  0.11715000  1
  O  O343  1  0.22760000  0.08516000  0.27102000  1
  O  O344  1  0.27240000  0.91484000  0.77102000  1
  O  O345  1  0.40720000  0.53877000  0.61715000  1
  O  O346  1  0.42910000  0.52955000  0.51435000  1
  O  O347  1  0.49650000  0.92547000  0.80556000  1
  O  O348  1  0.50350000  0.42547000  0.69444000  1
  O  O349  1  0.57090000  0.02955000  0.98565000  1
  O  O350  1  0.59280000  0.03877000  0.88285000  1
  O  O351  1  0.72760000  0.41484000  0.72898000  1
  O  O352  1  0.77240000  0.58516000  0.22898000  1
  O  O353  1  0.90720000  0.96123000  0.38285000  1
  O  O354  1  0.92910000  0.97045000  0.48565000  1
  O  O355  1  0.99650000  0.57453000  0.19444000  1
