# generated using pymatgen
data_NiPC3NO3
_symmetry_space_group_name_H-M   'P 1'
_cell_length_a   6.16550000
_cell_length_b   16.24689568
_cell_length_c   16.24689568
_cell_angle_alpha   118.42435992
_cell_angle_beta   97.26715380
_cell_angle_gamma   97.26715380
_symmetry_Int_Tables_number   1
_chemical_formula_structural   NiPC3NO3
_chemical_formula_sum   'Ni6 P6 C18 N6 O18'
_cell_volume   1386.86527411
_cell_formula_units_Z   6
loop_
 _symmetry_equiv_pos_site_id
 _symmetry_equiv_pos_as_xyz
  1  'x, y, z'
loop_
 _atom_site_type_symbol
 _atom_site_label
 _atom_site_symmetry_multiplicity
 _atom_site_fract_x
 _atom_site_fract_y
 _atom_site_fract_z
 _atom_site_occupancy
  C  C0  1  0.73170000  0.57810000  0.46870000  1
  C  C1  1  0.13920000  0.59550000  0.53020000  1
  C  C2  1  0.07140000  0.56710000  0.60150000  1
  C  C3  1  0.15360000  0.89060000  0.42190000  1
  C  C4  1  0.54370000  0.93470000  0.40450000  1
  C  C5  1  0.73700000  0.46870000  0.89060000  1
  C  C6  1  0.46990000  0.39850000  0.96560000  1
  C  C7  1  0.39100000  0.53020000  0.93470000  1
  C  C8  1  0.50430000  0.03440000  0.43290000  1
  C  C9  1  0.49570000  0.96560000  0.56710000  1
  C  C10  1  0.60900000  0.46980000  0.06530000  1
  C  C11  1  0.53010000  0.60150000  0.03440000  1
  C  C12  1  0.26300000  0.53130000  0.10940000  1
  C  C13  1  0.45630000  0.06530000  0.59550000  1
  C  C14  1  0.84640000  0.10940000  0.57810000  1
  C  C15  1  0.92860000  0.43290000  0.39850000  1
  C  C16  1  0.86080000  0.40450000  0.46980000  1
  C  C17  1  0.26830000  0.42190000  0.53130000  1
  N  N18  1  0.06090000  0.46230000  0.55990000  1
  N  N19  1  0.50100000  0.44010000  0.90240000  1
  N  N20  1  0.40140000  0.90240000  0.46230000  1
  N  N21  1  0.59860000  0.09760000  0.53770000  1
  N  N22  1  0.49900000  0.55990000  0.09760000  1
  N  N23  1  0.93910000  0.53770000  0.44010000  1
  Ni  Ni24  1  0.97599000  0.41893000  0.66652000  1
  Ni  Ni25  1  0.30947000  0.33348000  0.75241000  1
  Ni  Ni26  1  0.44294000  0.75241000  0.41893000  1
  Ni  Ni27  1  0.55706000  0.24759000  0.58107000  1
  Ni  Ni28  1  0.69053000  0.66652000  0.24759000  1
  Ni  Ni29  1  0.02401000  0.58107000  0.33348000  1
  O  O30  1  0.60063000  0.28152000  0.72207000  1
  O  O31  1  0.63694000  0.40159000  0.63303000  1
  O  O32  1  0.00391000  0.36697000  0.76856000  1
  O  O33  1  0.88350000  0.29182000  0.86408000  1
  O  O34  1  0.31911000  0.44055000  0.71848000  1
  O  O35  1  0.12144000  0.72207000  0.44055000  1
  O  O36  1  0.76465000  0.76856000  0.40159000  1
  O  O37  1  0.59168000  0.57226000  0.70818000  1
  O  O38  1  0.98058000  0.86408000  0.57226000  1
  O  O39  1  0.01942000  0.13592000  0.42774000  1
  O  O40  1  0.40832000  0.42774000  0.29182000  1
  O  O41  1  0.23535000  0.23144000  0.59841000  1
  O  O42  1  0.87856000  0.27793000  0.55945000  1
  O  O43  1  0.68089000  0.55945000  0.28152000  1
  O  O44  1  0.11650000  0.70818000  0.13592000  1
  O  O45  1  0.99609000  0.63303000  0.23144000  1
  O  O46  1  0.36306000  0.59841000  0.36697000  1
  O  O47  1  0.39937000  0.71848000  0.27793000  1
  P  P48  1  0.46900000  0.46297000  0.65403000  1
  P  P49  1  0.81497000  0.34597000  0.80894000  1
  P  P50  1  0.99397000  0.80894000  0.46297000  1
  P  P51  1  0.00603000  0.19106000  0.53703000  1
  P  P52  1  0.18503000  0.65403000  0.19106000  1
  P  P53  1  0.53100000  0.53703000  0.34597000  1
